MODEL 1
REMARK VINA RESULT:      -7.2      0.000      0.000
REMARK  7 active torsions:
REMARK  status: ('A' for Active; 'I' for Inactive)
REMARK    1  A    between atoms: C1_2  and  C2_3 
REMARK    2  A    between atoms: C2_3  and  C3_4 
REMARK    3  A    between atoms: C3_4  and  N1_5 
REMARK    4  A    between atoms: N1_5  and  C4_6 
REMARK    5  A    between atoms: C8_12  and  O1_13 
REMARK    6  A    between atoms: O1_13  and  C9_14 
REMARK    7  A    between atoms: C9_14  and  C10_15 
ROOT
HETATM    1  C4  UNL     1      20.705   0.835  53.086  1.00  0.00     0.140 A 
HETATM    2  N2  UNL     1      20.211  -0.261  53.656  1.00  0.00    -0.224 NA
HETATM    3  C5  UNL     1      20.956  -1.246  54.172  1.00  0.00     0.236 A 
HETATM    4  N3  UNL     1      22.298  -1.181  54.140  1.00  0.00    -0.241 NA
HETATM    5  C6  UNL     1      22.882  -0.128  53.594  1.00  0.00     0.077 A 
HETATM    6  C7  UNL     1      24.256  -0.036  53.550  1.00  0.00     0.072 A 
HETATM    7  C8  UNL     1      24.903   1.047  52.988  1.00  0.00     0.107 A 
HETATM    8  C14 UNL     1      24.086   2.051  52.463  1.00  0.00     0.136 A 
HETATM    9  C15 UNL     1      22.719   1.944  52.514  1.00  0.00     0.121 A 
HETATM   10  C16 UNL     1      22.078   0.872  53.070  1.00  0.00     0.075 A 
HETATM   11  O3  UNL     1      22.059   3.003  51.961  1.00  0.00    -0.345 OA
HETATM   12  C17 UNL     1      22.629   3.727  50.889  1.00  0.00     0.202 C 
HETATM   13  C18 UNL     1      23.967   4.253  51.426  1.00  0.00     0.202 C 
HETATM   14  O4  UNL     1      24.729   3.140  51.897  1.00  0.00    -0.344 OA
ENDROOT
BRANCH   7  15
HETATM   15  O1  UNL     1      26.283   1.153  52.936  1.00  0.00    -0.346 OA
BRANCH  15  16
HETATM   16  C9  UNL     1      26.990  -0.078  52.734  1.00  0.00     0.207 C 
BRANCH  16  17
HETATM   17  C10 UNL     1      27.660  -0.419  54.043  1.00  0.00     0.145 C 
HETATM   18  C11 UNL     1      28.663   0.634  54.429  1.00  0.00     0.036 C 
HETATM   19  C12 UNL     1      29.884   0.208  53.655  1.00  0.00     0.029 C 
HETATM   20  C13 UNL     1      29.501  -1.167  53.165  1.00  0.00     0.168 C 
HETATM   21  O2  UNL     1      28.402  -1.580  53.880  1.00  0.00    -0.384 OA
ENDBRANCH  16  17
ENDBRANCH  15  16
ENDBRANCH   7  15
BRANCH   1  22
HETATM   22  N1  UNL     1      19.843   1.821  52.562  1.00  0.00    -0.374 N 
HETATM   23  H7  UNL     1      19.687   2.832  52.676  1.00  0.00     0.161 HD
BRANCH  22  24
HETATM   24  C3  UNL     1      18.875   1.404  51.588  1.00  0.00     0.122 C 
BRANCH  24  25
HETATM   25  C2  UNL     1      19.460   0.567  50.466  1.00  0.00     0.034 C 
BRANCH  25  26
HETATM   26  C1  UNL     1      20.001   1.581  49.451  1.00  0.00     0.116 C 
HETATM   27 CL1  UNL     1      21.518   0.985  48.741  1.00  0.00    -0.130 Cl
ENDBRANCH  25  26
ENDBRANCH  24  25
ENDBRANCH  22  24
ENDBRANCH   1  22
TORSDOF 7
ENDMDL
MODEL 2
REMARK VINA RESULT:      -7.2      1.783      1.914
REMARK  7 active torsions:
REMARK  status: ('A' for Active; 'I' for Inactive)
REMARK    1  A    between atoms: C1_2  and  C2_3 
REMARK    2  A    between atoms: C2_3  and  C3_4 
REMARK    3  A    between atoms: C3_4  and  N1_5 
REMARK    4  A    between atoms: N1_5  and  C4_6 
REMARK    5  A    between atoms: C8_12  and  O1_13 
REMARK    6  A    between atoms: O1_13  and  C9_14 
REMARK    7  A    between atoms: C9_14  and  C10_15 
ROOT
HETATM    1  C4  UNL     1      20.919  -0.070  52.556  1.00  0.00     0.140 A 
HETATM    2  N2  UNL     1      20.549  -0.924  53.507  1.00  0.00    -0.224 NA
HETATM    3  C5  UNL     1      21.367  -1.399  54.455  1.00  0.00     0.236 A 
HETATM    4  N3  UNL     1      22.657  -1.024  54.500  1.00  0.00    -0.241 NA
HETATM    5  C6  UNL     1      23.117  -0.176  53.596  1.00  0.00     0.077 A 
HETATM    6  C7  UNL     1      24.434   0.225  53.622  1.00  0.00     0.072 A 
HETATM    7  C8  UNL     1      24.953   1.109  52.695  1.00  0.00     0.107 A 
HETATM    8  C14 UNL     1      24.064   1.578  51.725  1.00  0.00     0.136 A 
HETATM    9  C15 UNL     1      22.754   1.169  51.713  1.00  0.00     0.121 A 
HETATM   10  C16 UNL     1      22.242   0.294  52.630  1.00  0.00     0.075 A 
HETATM   11  O3  UNL     1      22.012   1.714  50.707  1.00  0.00    -0.345 OA
HETATM   12  C17 UNL     1      22.612   2.056  49.472  1.00  0.00     0.202 C 
HETATM   13  C18 UNL     1      23.712   3.066  49.828  1.00  0.00     0.202 C 
HETATM   14  O4  UNL     1      24.577   2.465  50.792  1.00  0.00    -0.344 OA
ENDROOT
BRANCH   7  15
HETATM   15  O1  UNL     1      26.275   1.520  52.708  1.00  0.00    -0.346 OA
BRANCH  15  16
HETATM   16  C9  UNL     1      27.249   0.474  52.595  1.00  0.00     0.207 C 
BRANCH  16  17
HETATM   17  C10 UNL     1      27.851   0.286  53.965  1.00  0.00     0.145 C 
HETATM   18  C11 UNL     1      29.239   0.864  54.032  1.00  0.00     0.036 C 
HETATM   19  C12 UNL     1      30.076  -0.258  53.473  1.00  0.00     0.029 C 
HETATM   20  C13 UNL     1      29.102  -1.408  53.431  1.00  0.00     0.168 C 
HETATM   21  O2  UNL     1      28.016  -1.072  54.203  1.00  0.00    -0.384 OA
ENDBRANCH  16  17
ENDBRANCH  15  16
ENDBRANCH   7  15
BRANCH   1  22
HETATM   22  N1  UNL     1      19.990   0.373  51.591  1.00  0.00    -0.374 N 
HETATM   23  H7  UNL     1      20.007   0.703  50.616  1.00  0.00     0.161 HD
BRANCH  22  24
HETATM   24  C3  UNL     1      18.608   0.414  51.973  1.00  0.00     0.122 C 
BRANCH  24  25
HETATM   25  C2  UNL     1      17.653   0.062  50.846  1.00  0.00     0.034 C 
BRANCH  25  26
HETATM   26  C1  UNL     1      16.587  -0.832  51.491  1.00  0.00     0.116 C 
HETATM   27 CL1  UNL     1      17.084  -1.286  53.136  1.00  0.00    -0.130 Cl
ENDBRANCH  25  26
ENDBRANCH  24  25
ENDBRANCH  22  24
ENDBRANCH   1  22
TORSDOF 7
ENDMDL
MODEL 3
REMARK VINA RESULT:      -7.1      3.407      7.649
REMARK  7 active torsions:
REMARK  status: ('A' for Active; 'I' for Inactive)
REMARK    1  A    between atoms: C1_2  and  C2_3 
REMARK    2  A    between atoms: C2_3  and  C3_4 
REMARK    3  A    between atoms: C3_4  and  N1_5 
REMARK    4  A    between atoms: N1_5  and  C4_6 
REMARK    5  A    between atoms: C8_12  and  O1_13 
REMARK    6  A    between atoms: O1_13  and  C9_14 
REMARK    7  A    between atoms: C9_14  and  C10_15 
ROOT
HETATM    1  C4  UNL     1      26.635   2.074  51.819  1.00  0.00     0.140 A 
HETATM    2  N2  UNL     1      27.031   2.942  50.892  1.00  0.00    -0.224 NA
HETATM    3  C5  UNL     1      26.211   3.542  50.019  1.00  0.00     0.236 A 
HETATM    4  N3  UNL     1      24.891   3.289  50.032  1.00  0.00    -0.241 NA
HETATM    5  C6  UNL     1      24.403   2.439  50.918  1.00  0.00     0.077 A 
HETATM    6  C7  UNL     1      23.054   2.164  50.953  1.00  0.00     0.072 A 
HETATM    7  C8  UNL     1      22.505   1.282  51.864  1.00  0.00     0.107 A 
HETATM    8  C14 UNL     1      23.398   0.681  52.754  1.00  0.00     0.136 A 
HETATM    9  C15 UNL     1      24.739   0.965  52.708  1.00  0.00     0.121 A 
HETATM   10  C16 UNL     1      25.281   1.838  51.805  1.00  0.00     0.075 A 
HETATM   11  O3  UNL     1      25.480   0.300  53.641  1.00  0.00    -0.345 OA
HETATM   12  C17 UNL     1      25.088  -0.981  54.093  1.00  0.00     0.202 C 
HETATM   13  C18 UNL     1      23.683  -0.788  54.678  1.00  0.00     0.202 C 
HETATM   14  O4  UNL     1      22.854  -0.205  53.672  1.00  0.00    -0.344 OA
ENDROOT
BRANCH   7  15
HETATM   15  O1  UNL     1      21.151   0.995  51.910  1.00  0.00    -0.346 OA
BRANCH  15  16
HETATM   16  C9  UNL     1      20.332   1.981  52.553  1.00  0.00     0.207 C 
BRANCH  16  17
HETATM   17  C10 UNL     1      19.028   2.029  51.796  1.00  0.00     0.145 C 
HETATM   18  C11 UNL     1      19.252   1.863  50.317  1.00  0.00     0.036 C 
HETATM   19  C12 UNL     1      19.592   3.268  49.889  1.00  0.00     0.029 C 
HETATM   20  C13 UNL     1      19.241   4.080  51.110  1.00  0.00     0.168 C 
HETATM   21  O2  UNL     1      18.472   3.294  51.935  1.00  0.00    -0.384 OA
ENDBRANCH  16  17
ENDBRANCH  15  16
ENDBRANCH   7  15
BRANCH   1  22
HETATM   22  N1  UNL     1      27.571   1.483  52.694  1.00  0.00    -0.374 N 
HETATM   23  H7  UNL     1      27.876   0.535  52.953  1.00  0.00     0.161 HD
BRANCH  22  24
HETATM   24  C3  UNL     1      28.374   2.363  53.494  1.00  0.00     0.122 C 
BRANCH  24  25
HETATM   25  C2  UNL     1      29.356   1.638  54.398  1.00  0.00     0.034 C 
BRANCH  25  26
HETATM   26  C1  UNL     1      28.868   0.185  54.434  1.00  0.00     0.116 C 
HETATM   27 CL1  UNL     1      30.057  -0.878  53.649  1.00  0.00    -0.130 Cl
ENDBRANCH  25  26
ENDBRANCH  24  25
ENDBRANCH  22  24
ENDBRANCH   1  22
TORSDOF 7
ENDMDL
MODEL 4
REMARK VINA RESULT:      -7.0      3.219      7.432
REMARK  7 active torsions:
REMARK  status: ('A' for Active; 'I' for Inactive)
REMARK    1  A    between atoms: C1_2  and  C2_3 
REMARK    2  A    between atoms: C2_3  and  C3_4 
REMARK    3  A    between atoms: C3_4  and  N1_5 
REMARK    4  A    between atoms: N1_5  and  C4_6 
REMARK    5  A    between atoms: C8_12  and  O1_13 
REMARK    6  A    between atoms: O1_13  and  C9_14 
REMARK    7  A    between atoms: C9_14  and  C10_15 
ROOT
HETATM    1  C4  UNL     1      24.773  -0.302  54.006  1.00  0.00     0.140 A 
HETATM    2  N2  UNL     1      24.972  -0.994  55.125  1.00  0.00    -0.224 NA
HETATM    3  C5  UNL     1      23.998  -1.564  55.845  1.00  0.00     0.236 A 
HETATM    4  N3  UNL     1      22.713  -1.463  55.462  1.00  0.00    -0.241 NA
HETATM    5  C6  UNL     1      22.416  -0.794  54.361  1.00  0.00     0.077 A 
HETATM    6  C7  UNL     1      21.107  -0.678  53.946  1.00  0.00     0.072 A 
HETATM    7  C8  UNL     1      20.756   0.012  52.802  1.00  0.00     0.107 A 
HETATM    8  C14 UNL     1      21.806   0.590  52.084  1.00  0.00     0.136 A 
HETATM    9  C15 UNL     1      23.104   0.465  52.510  1.00  0.00     0.121 A 
HETATM   10  C16 UNL     1      23.451  -0.218  53.642  1.00  0.00     0.075 A 
HETATM   11  O3  UNL     1      24.015   1.082  51.702  1.00  0.00    -0.345 OA
HETATM   12  C17 UNL     1      23.663   2.243  50.975  1.00  0.00     0.202 C 
HETATM   13  C18 UNL     1      22.481   1.820  50.092  1.00  0.00     0.202 C 
HETATM   14  O4  UNL     1      21.461   1.284  50.935  1.00  0.00    -0.344 OA
ENDROOT
BRANCH   7  15
HETATM   15  O1  UNL     1      19.445   0.138  52.374  1.00  0.00    -0.346 OA
BRANCH  15  16
HETATM   16  C9  UNL     1      18.488  -0.673  53.067  1.00  0.00     0.207 C 
BRANCH  16  17
HETATM   17  C10 UNL     1      17.539  -1.217  52.027  1.00  0.00     0.145 C 
HETATM   18  C11 UNL     1      17.248  -0.188  50.968  1.00  0.00     0.036 C 
HETATM   19  C12 UNL     1      16.144   0.618  51.603  1.00  0.00     0.029 C 
HETATM   20  C13 UNL     1      15.767  -0.222  52.798  1.00  0.00     0.168 C 
HETATM   21  O2  UNL     1      16.313  -1.472  52.625  1.00  0.00    -0.384 OA
ENDBRANCH  16  17
ENDBRANCH  15  16
ENDBRANCH   7  15
BRANCH   1  22
HETATM   22  N1  UNL     1      25.861   0.271  53.315  1.00  0.00    -0.374 N 
HETATM   23  H7  UNL     1      26.254   0.247  52.364  1.00  0.00     0.161 HD
BRANCH  22  24
HETATM   24  C3  UNL     1      26.725   1.149  54.051  1.00  0.00     0.122 C 
BRANCH  24  25
HETATM   25  C2  UNL     1      28.187   1.036  53.659  1.00  0.00     0.034 C 
BRANCH  25  26
HETATM   26  C1  UNL     1      28.773  -0.020  54.603  1.00  0.00     0.116 C 
HETATM   27 CL1  UNL     1      29.811  -1.143  53.696  1.00  0.00    -0.130 Cl
ENDBRANCH  25  26
ENDBRANCH  24  25
ENDBRANCH  22  24
ENDBRANCH   1  22
TORSDOF 7
ENDMDL
MODEL 5
REMARK VINA RESULT:      -7.0      3.541      5.028
REMARK  7 active torsions:
REMARK  status: ('A' for Active; 'I' for Inactive)
REMARK    1  A    between atoms: C1_2  and  C2_3 
REMARK    2  A    between atoms: C2_3  and  C3_4 
REMARK    3  A    between atoms: C3_4  and  N1_5 
REMARK    4  A    between atoms: N1_5  and  C4_6 
REMARK    5  A    between atoms: C8_12  and  O1_13 
REMARK    6  A    between atoms: O1_13  and  C9_14 
REMARK    7  A    between atoms: C9_14  and  C10_15 
ROOT
HETATM    1  C4  UNL     1      25.085   5.601  49.330  1.00  0.00     0.140 A 
HETATM    2  N2  UNL     1      26.173   5.941  48.643  1.00  0.00    -0.224 NA
HETATM    3  C5  UNL     1      27.304   5.226  48.617  1.00  0.00     0.236 A 
HETATM    4  N3  UNL     1      27.408   4.079  49.311  1.00  0.00    -0.241 NA
HETATM    5  C6  UNL     1      26.378   3.659  50.024  1.00  0.00     0.077 A 
HETATM    6  C7  UNL     1      26.458   2.487  50.744  1.00  0.00     0.072 A 
HETATM    7  C8  UNL     1      25.403   2.014  51.501  1.00  0.00     0.107 A 
HETATM    8  C14 UNL     1      24.244   2.792  51.498  1.00  0.00     0.136 A 
HETATM    9  C15 UNL     1      24.179   3.958  50.776  1.00  0.00     0.121 A 
HETATM   10  C16 UNL     1      25.223   4.425  50.027  1.00  0.00     0.075 A 
HETATM   11  O3  UNL     1      22.981   4.605  50.873  1.00  0.00    -0.345 OA
HETATM   12  C17 UNL     1      22.204   4.509  52.051  1.00  0.00     0.202 C 
HETATM   13  C18 UNL     1      21.929   3.009  52.228  1.00  0.00     0.202 C 
HETATM   14  O4  UNL     1      23.181   2.324  52.255  1.00  0.00    -0.344 OA
ENDROOT
BRANCH   7  15
HETATM   15  O1  UNL     1      25.469   0.838  52.229  1.00  0.00    -0.346 OA
BRANCH  15  16
HETATM   16  C9  UNL     1      26.750   0.192  52.244  1.00  0.00     0.207 C 
BRANCH  16  17
HETATM   17  C10 UNL     1      26.809  -0.634  53.505  1.00  0.00     0.145 C 
HETATM   18  C11 UNL     1      27.067   0.231  54.709  1.00  0.00     0.036 C 
HETATM   19  C12 UNL     1      28.568   0.367  54.686  1.00  0.00     0.029 C 
HETATM   20  C13 UNL     1      28.977  -0.657  53.657  1.00  0.00     0.168 C 
HETATM   21  O2  UNL     1      27.903  -1.486  53.435  1.00  0.00    -0.384 OA
ENDBRANCH  16  17
ENDBRANCH  15  16
ENDBRANCH   7  15
BRANCH   1  22
HETATM   22  N1  UNL     1      23.936   6.420  49.305  1.00  0.00    -0.374 N 
HETATM   23  H7  UNL     1      23.351   6.927  49.982  1.00  0.00     0.161 HD
BRANCH  22  24
HETATM   24  C3  UNL     1      23.339   6.683  48.027  1.00  0.00     0.122 C 
BRANCH  24  25
HETATM   25  C2  UNL     1      21.987   6.019  47.838  1.00  0.00     0.034 C 
BRANCH  25  26
HETATM   26  C1  UNL     1      22.239   4.876  46.848  1.00  0.00     0.116 C 
HETATM   27 CL1  UNL     1      22.383   3.333  47.720  1.00  0.00    -0.130 Cl
ENDBRANCH  25  26
ENDBRANCH  24  25
ENDBRANCH  22  24
ENDBRANCH   1  22
TORSDOF 7
ENDMDL
MODEL 6
REMARK VINA RESULT:      -6.9      3.168      7.597
REMARK  7 active torsions:
REMARK  status: ('A' for Active; 'I' for Inactive)
REMARK    1  A    between atoms: C1_2  and  C2_3 
REMARK    2  A    between atoms: C2_3  and  C3_4 
REMARK    3  A    between atoms: C3_4  and  N1_5 
REMARK    4  A    between atoms: N1_5  and  C4_6 
REMARK    5  A    between atoms: C8_12  and  O1_13 
REMARK    6  A    between atoms: O1_13  and  C9_14 
REMARK    7  A    between atoms: C9_14  and  C10_15 
ROOT
HETATM    1  C4  UNL     1      25.664   0.725  52.206  1.00  0.00     0.140 A 
HETATM    2  N2  UNL     1      26.574   1.380  51.491  1.00  0.00    -0.224 NA
HETATM    3  C5  UNL     1      26.343   2.531  50.846  1.00  0.00     0.236 A 
HETATM    4  N3  UNL     1      25.131   3.110  50.888  1.00  0.00    -0.241 NA
HETATM    5  C6  UNL     1      24.161   2.532  51.575  1.00  0.00     0.077 A 
HETATM    6  C7  UNL     1      22.909   3.106  51.635  1.00  0.00     0.072 A 
HETATM    7  C8  UNL     1      21.870   2.533  52.342  1.00  0.00     0.107 A 
HETATM    8  C14 UNL     1      22.157   1.334  52.998  1.00  0.00     0.136 A 
HETATM    9  C15 UNL     1      23.408   0.775  52.930  1.00  0.00     0.121 A 
HETATM   10  C16 UNL     1      24.437   1.342  52.229  1.00  0.00     0.075 A 
HETATM   11  O3  UNL     1      23.533  -0.394  53.622  1.00  0.00    -0.345 OA
HETATM   12  C17 UNL     1      22.426  -1.261  53.778  1.00  0.00     0.202 C 
HETATM   13  C18 UNL     1      21.355  -0.420  54.488  1.00  0.00     0.202 C 
HETATM   14  O4  UNL     1      21.119   0.754  53.710  1.00  0.00    -0.344 OA
ENDROOT
BRANCH   7  15
HETATM   15  O1  UNL     1      20.607   3.098  52.410  1.00  0.00    -0.346 OA
BRANCH  15  16
HETATM   16  C9  UNL     1      19.850   3.066  51.193  1.00  0.00     0.207 C 
BRANCH  16  17
HETATM   17  C10 UNL     1      18.476   2.550  51.544  1.00  0.00     0.145 C 
HETATM   18  C11 UNL     1      18.457   1.045  51.587  1.00  0.00     0.036 C 
HETATM   19  C12 UNL     1      18.257   0.690  50.136  1.00  0.00     0.029 C 
HETATM   20  C13 UNL     1      17.910   2.019  49.514  1.00  0.00     0.168 C 
HETATM   21  O2  UNL     1      17.593   2.892  50.529  1.00  0.00    -0.384 OA
ENDBRANCH  16  17
ENDBRANCH  15  16
ENDBRANCH   7  15
BRANCH   1  22
HETATM   22  N1  UNL     1      25.994  -0.488  52.848  1.00  0.00    -0.374 N 
HETATM   23  H7  UNL     1      25.533  -1.382  53.064  1.00  0.00     0.161 HD
BRANCH  22  24
HETATM   24  C3  UNL     1      27.319  -0.614  53.384  1.00  0.00     0.122 C 
BRANCH  24  25
HETATM   25  C2  UNL     1      27.537   0.174  54.662  1.00  0.00     0.034 C 
BRANCH  25  26
HETATM   26  C1  UNL     1      28.961   0.730  54.551  1.00  0.00     0.116 C 
HETATM   27 CL1  UNL     1      29.960  -0.345  53.547  1.00  0.00    -0.130 Cl
ENDBRANCH  25  26
ENDBRANCH  24  25
ENDBRANCH  22  24
ENDBRANCH   1  22
TORSDOF 7
ENDMDL
MODEL 7
REMARK VINA RESULT:      -6.8      2.901      6.528
REMARK  7 active torsions:
REMARK  status: ('A' for Active; 'I' for Inactive)
REMARK    1  A    between atoms: C1_2  and  C2_3 
REMARK    2  A    between atoms: C2_3  and  C3_4 
REMARK    3  A    between atoms: C3_4  and  N1_5 
REMARK    4  A    between atoms: N1_5  and  C4_6 
REMARK    5  A    between atoms: C8_12  and  O1_13 
REMARK    6  A    between atoms: O1_13  and  C9_14 
REMARK    7  A    between atoms: C9_14  and  C10_15 
ROOT
HETATM    1  C4  UNL     1      24.187  -0.088  53.461  1.00  0.00     0.140 A 
HETATM    2  N2  UNL     1      23.282  -0.709  54.213  1.00  0.00    -0.224 NA
HETATM    3  C5  UNL     1      21.987  -0.377  54.265  1.00  0.00     0.236 A 
HETATM    4  N3  UNL     1      21.509   0.643  53.532  1.00  0.00    -0.241 NA
HETATM    5  C6  UNL     1      22.334   1.322  52.752  1.00  0.00     0.077 A 
HETATM    6  C7  UNL     1      21.870   2.371  51.990  1.00  0.00     0.072 A 
HETATM    7  C8  UNL     1      22.700   3.103  51.163  1.00  0.00     0.107 A 
HETATM    8  C14 UNL     1      24.043   2.721  51.141  1.00  0.00     0.136 A 
HETATM    9  C15 UNL     1      24.490   1.673  51.906  1.00  0.00     0.121 A 
HETATM   10  C16 UNL     1      23.668   0.949  52.724  1.00  0.00     0.075 A 
HETATM   11  O3  UNL     1      25.824   1.421  51.776  1.00  0.00    -0.345 OA
HETATM   12  C17 UNL     1      26.731   2.468  51.488  1.00  0.00     0.202 C 
HETATM   13  C18 UNL     1      26.247   3.064  50.159  1.00  0.00     0.202 C 
HETATM   14  O4  UNL     1      24.881   3.451  50.313  1.00  0.00    -0.344 OA
ENDROOT
BRANCH   7  15
HETATM   15  O1  UNL     1      22.248   4.161  50.391  1.00  0.00    -0.346 OA
BRANCH  15  16
HETATM   16  C9  UNL     1      22.093   5.408  51.082  1.00  0.00     0.207 C 
BRANCH  16  17
HETATM   17  C10 UNL     1      22.066   6.491  50.032  1.00  0.00     0.145 C 
HETATM   18  C11 UNL     1      23.148   6.280  49.007  1.00  0.00     0.036 C 
HETATM   19  C12 UNL     1      24.344   6.909  49.674  1.00  0.00     0.029 C 
HETATM   20  C13 UNL     1      23.727   7.633  50.845  1.00  0.00     0.168 C 
HETATM   21  O2  UNL     1      22.370   7.706  50.630  1.00  0.00    -0.384 OA
ENDBRANCH  16  17
ENDBRANCH  15  16
ENDBRANCH   7  15
BRANCH   1  22
HETATM   22  N1  UNL     1      25.536  -0.502  53.474  1.00  0.00    -0.374 N 
HETATM   23  H7  UNL     1      26.205  -0.931  52.820  1.00  0.00     0.161 HD
BRANCH  22  24
HETATM   24  C3  UNL     1      26.273  -0.319  54.691  1.00  0.00     0.122 C 
BRANCH  24  25
HETATM   25  C2  UNL     1      27.676   0.221  54.480  1.00  0.00     0.034 C 
BRANCH  25  26
HETATM   26  C1  UNL     1      28.270  -0.640  53.359  1.00  0.00     0.116 C 
HETATM   27 CL1  UNL     1      29.976  -1.001  53.705  1.00  0.00    -0.130 Cl
ENDBRANCH  25  26
ENDBRANCH  24  25
ENDBRANCH  22  24
ENDBRANCH   1  22
TORSDOF 7
ENDMDL
MODEL 8
REMARK VINA RESULT:      -6.6      2.637      6.995
REMARK  7 active torsions:
REMARK  status: ('A' for Active; 'I' for Inactive)
REMARK    1  A    between atoms: C1_2  and  C2_3 
REMARK    2  A    between atoms: C2_3  and  C3_4 
REMARK    3  A    between atoms: C3_4  and  N1_5 
REMARK    4  A    between atoms: N1_5  and  C4_6 
REMARK    5  A    between atoms: C8_12  and  O1_13 
REMARK    6  A    between atoms: O1_13  and  C9_14 
REMARK    7  A    between atoms: C9_14  and  C10_15 
ROOT
HETATM    1  C4  UNL     1      25.004  -0.318  54.412  1.00  0.00     0.140 A 
HETATM    2  N2  UNL     1      24.937  -1.107  55.482  1.00  0.00    -0.224 NA
HETATM    3  C5  UNL     1      23.820  -1.712  55.905  1.00  0.00     0.236 A 
HETATM    4  N3  UNL     1      22.659  -1.550  55.248  1.00  0.00    -0.241 NA
HETATM    5  C6  UNL     1      22.627  -0.783  54.172  1.00  0.00     0.077 A 
HETATM    6  C7  UNL     1      21.450  -0.601  53.479  1.00  0.00     0.072 A 
HETATM    7  C8  UNL     1      21.375   0.192  52.350  1.00  0.00     0.107 A 
HETATM    8  C14 UNL     1      22.564   0.803  51.945  1.00  0.00     0.136 A 
HETATM    9  C15 UNL     1      23.729   0.612  52.646  1.00  0.00     0.121 A 
HETATM   10  C16 UNL     1      23.802  -0.173  53.763  1.00  0.00     0.075 A 
HETATM   11  O3  UNL     1      24.803   1.273  52.127  1.00  0.00    -0.345 OA
HETATM   12  C17 UNL     1      24.633   2.500  51.443  1.00  0.00     0.202 C 
HETATM   13  C18 UNL     1      23.686   2.181  50.278  1.00  0.00     0.202 C 
HETATM   14  O4  UNL     1      22.497   1.600  50.813  1.00  0.00    -0.344 OA
ENDROOT
BRANCH   7  15
HETATM   15  O1  UNL     1      20.199   0.385  51.644  1.00  0.00    -0.346 OA
BRANCH  15  16
HETATM   16  C9  UNL     1      19.283   1.327  52.217  1.00  0.00     0.207 C 
BRANCH  16  17
HETATM   17  C10 UNL     1      18.335   1.741  51.118  1.00  0.00     0.145 C 
HETATM   18  C11 UNL     1      19.070   1.966  49.824  1.00  0.00     0.036 C 
HETATM   19  C12 UNL     1      19.560   3.382  49.980  1.00  0.00     0.029 C 
HETATM   20  C13 UNL     1      18.809   3.860  51.197  1.00  0.00     0.168 C 
HETATM   21  O2  UNL     1      17.785   2.975  51.437  1.00  0.00    -0.384 OA
ENDBRANCH  16  17
ENDBRANCH  15  16
ENDBRANCH   7  15
BRANCH   1  22
HETATM   22  N1  UNL     1      26.224   0.285  54.043  1.00  0.00    -0.374 N 
HETATM   23  H7  UNL     1      26.564   0.928  53.314  1.00  0.00     0.161 HD
BRANCH  22  24
HETATM   24  C3  UNL     1      27.379  -0.015  54.840  1.00  0.00     0.122 C 
BRANCH  24  25
HETATM   25  C2  UNL     1      28.681   0.004  54.059  1.00  0.00     0.034 C 
BRANCH  25  26
HETATM   26  C1  UNL     1      29.355   1.328  54.437  1.00  0.00     0.116 C 
HETATM   27 CL1  UNL     1      28.685   2.655  53.462  1.00  0.00    -0.130 Cl
ENDBRANCH  25  26
ENDBRANCH  24  25
ENDBRANCH  22  24
ENDBRANCH   1  22
TORSDOF 7
ENDMDL
MODEL 9
REMARK VINA RESULT:      -6.6      4.668      6.636
REMARK  7 active torsions:
REMARK  status: ('A' for Active; 'I' for Inactive)
REMARK    1  A    between atoms: C1_2  and  C2_3 
REMARK    2  A    between atoms: C2_3  and  C3_4 
REMARK    3  A    between atoms: C3_4  and  N1_5 
REMARK    4  A    between atoms: N1_5  and  C4_6 
REMARK    5  A    between atoms: C8_12  and  O1_13 
REMARK    6  A    between atoms: O1_13  and  C9_14 
REMARK    7  A    between atoms: C9_14  and  C10_15 
ROOT
HETATM    1  C4  UNL     1      25.729   6.331  48.879  1.00  0.00     0.140 A 
HETATM    2  N2  UNL     1      26.957   6.375  48.367  1.00  0.00    -0.224 NA
HETATM    3  C5  UNL     1      27.844   5.376  48.447  1.00  0.00     0.236 A 
HETATM    4  N3  UNL     1      27.533   4.229  49.075  1.00  0.00    -0.241 NA
HETATM    5  C6  UNL     1      26.334   4.092  49.615  1.00  0.00     0.077 A 
HETATM    6  C7  UNL     1      25.989   2.925  50.262  1.00  0.00     0.072 A 
HETATM    7  C8  UNL     1      24.747   2.743  50.839  1.00  0.00     0.107 A 
HETATM    8  C14 UNL     1      23.854   3.811  50.731  1.00  0.00     0.136 A 
HETATM    9  C15 UNL     1      24.212   4.967  50.083  1.00  0.00     0.121 A 
HETATM   10  C16 UNL     1      25.442   5.146  49.512  1.00  0.00     0.075 A 
HETATM   11  O3  UNL     1      23.233   5.916  50.060  1.00  0.00    -0.345 OA
HETATM   12  C17 UNL     1      22.294   6.010  51.114  1.00  0.00     0.202 C 
HETATM   13  C18 UNL     1      21.602   4.640  51.157  1.00  0.00     0.202 C 
HETATM   14  O4  UNL     1      22.606   3.636  51.307  1.00  0.00    -0.344 OA
ENDROOT
BRANCH   7  15
HETATM   15  O1  UNL     1      24.387   1.577  51.494  1.00  0.00    -0.346 OA
BRANCH  15  16
HETATM   16  C9  UNL     1      24.911   1.426  52.820  1.00  0.00     0.207 C 
BRANCH  16  17
HETATM   17  C10 UNL     1      25.461   0.024  52.917  1.00  0.00     0.145 C 
HETATM   18  C11 UNL     1      25.877  -0.300  54.326  1.00  0.00     0.036 C 
HETATM   19  C12 UNL     1      27.264   0.285  54.389  1.00  0.00     0.029 C 
HETATM   20  C13 UNL     1      27.554   0.604  52.943  1.00  0.00     0.168 C 
HETATM   21  O2  UNL     1      26.628  -0.056  52.170  1.00  0.00    -0.384 OA
ENDBRANCH  16  17
ENDBRANCH  15  16
ENDBRANCH   7  15
BRANCH   1  22
HETATM   22  N1  UNL     1      24.861   7.436  48.753  1.00  0.00    -0.374 N 
HETATM   23  H7  UNL     1      23.946   7.730  49.123  1.00  0.00     0.161 HD
BRANCH  22  24
HETATM   24  C3  UNL     1      25.272   8.506  47.890  1.00  0.00     0.122 C 
BRANCH  24  25
HETATM   25  C2  UNL     1      25.439   9.835  48.604  1.00  0.00     0.034 C 
BRANCH  25  26
HETATM   26  C1  UNL     1      26.948   9.978  48.833  1.00  0.00     0.116 C 
HETATM   27 CL1  UNL     1      27.397   9.276  50.403  1.00  0.00    -0.130 Cl
ENDBRANCH  25  26
ENDBRANCH  24  25
ENDBRANCH  22  24
ENDBRANCH   1  22
TORSDOF 7
ENDMDL
