MODEL 1
REMARK VINA RESULT:      -8.6      0.000      0.000
REMARK  5 active torsions:
REMARK  status: ('A' for Active; 'I' for Inactive)
REMARK    1  A    between atoms: O1_2  and  C2_3 
REMARK    2  A    between atoms: C18_22  and  N2_23 
REMARK    3  A    between atoms: N2_23  and  C19_24 
REMARK    4  A    between atoms: N2_23  and  O3_28 
REMARK    5  A    between atoms: C20_25  and  C21_26 
ROOT
HETATM    1  C2  UNL     1      23.809   3.475  51.261  1.00  0.00     0.099 A 
HETATM    2  C3  UNL     1      24.201   2.480  52.067  1.00  0.00     0.066 A 
HETATM    3  C4  UNL     1      24.505   1.372  52.761  1.00  0.00    -0.037 A 
HETATM    4  C5  UNL     1      23.735   0.882  51.684  1.00  0.00     0.040 A 
HETATM    5  C6  UNL     1      23.377   1.944  50.934  1.00  0.00     0.064 A 
HETATM    6  C7  UNL     1      23.025   3.026  50.190  1.00  0.00    -0.034 A 
HETATM    7  C8  UNL     1      22.177   3.317  49.000  1.00  0.00     0.209 C 
HETATM    8  O2  UNL     1      20.789   2.941  49.321  1.00  0.00    -0.346 OA
HETATM    9  C9  UNL     1      20.659   1.997  50.359  1.00  0.00     0.089 A 
HETATM   10  C10 UNL     1      20.547   0.631  50.662  1.00  0.00     0.051 A 
HETATM   11  C11 UNL     1      20.478   0.232  51.997  1.00  0.00     0.282 A 
HETATM   12  C12 UNL     1      20.546   1.456  52.600  1.00  0.00     0.155 A 
HETATM   13  C13 UNL     1      20.634   2.805  52.704  1.00  0.00     0.062 A 
HETATM   14  C14 UNL     1      20.689   2.952  51.350  1.00  0.00     0.069 A 
HETATM   15 CL1  UNL     1      20.716   4.702  51.579  1.00  0.00    -0.081 Cl
HETATM   16  N1  UNL     1      20.968   0.464  53.586  1.00  0.00    -0.009 N 
HETATM   17  C15 UNL     1      21.381  -0.478  54.546  1.00  0.00     0.207 C 
HETATM   18  C16 UNL     1      22.608  -0.960  54.217  1.00  0.00     0.027 C 
HETATM   19  C17 UNL     1      23.935  -0.361  54.219  1.00  0.00     0.034 C 
HETATM   20  C18 UNL     1      24.889   0.304  53.573  1.00  0.00     0.065 C 
HETATM   21  H12 UNL     1      21.341   1.174  54.309  1.00  0.00     0.293 HD
ENDROOT
BRANCH  20  22
HETATM   22  N2  UNL     1      26.234  -0.080  53.735  1.00  0.00    -0.234 N 
BRANCH  22  23
HETATM   23  C19 UNL     1      27.244   0.910  53.785  1.00  0.00     0.122 C 
HETATM   24  C20 UNL     1      28.344   0.712  54.494  1.00  0.00     0.024 C 
BRANCH  24  25
HETATM   25  C21 UNL     1      29.418   1.733  54.565  1.00  0.00     0.251 C 
HETATM   26  F1  UNL     1      29.053   2.852  53.832  1.00  0.00    -0.251 F 
ENDBRANCH  24  25
ENDBRANCH  22  23
BRANCH  22  27
HETATM   27  O3  UNL     1      26.525  -1.390  53.831  1.00  0.00    -0.279 OA
HETATM   28  C22 UNL     1      26.792  -1.841  52.517  1.00  0.00     0.238 C 
ENDBRANCH  22  27
ENDBRANCH  20  22
BRANCH   1  29
HETATM   29  O1  UNL     1      24.142   4.804  51.472  1.00  0.00    -0.379 OA
HETATM   30  C1  UNL     1      24.746   5.584  50.452  1.00  0.00     0.203 C 
ENDBRANCH   1  29
TORSDOF 5
ENDMDL
MODEL 2
REMARK VINA RESULT:      -8.5      2.451      4.368
REMARK  5 active torsions:
REMARK  status: ('A' for Active; 'I' for Inactive)
REMARK    1  A    between atoms: O1_2  and  C2_3 
REMARK    2  A    between atoms: C18_22  and  N2_23 
REMARK    3  A    between atoms: N2_23  and  C19_24 
REMARK    4  A    between atoms: N2_23  and  O3_28 
REMARK    5  A    between atoms: C20_25  and  C21_26 
ROOT
HETATM    1  C2  UNL     1      22.606   0.318  52.837  1.00  0.00     0.099 A 
HETATM    2  C3  UNL     1      23.900   0.648  52.752  1.00  0.00     0.066 A 
HETATM    3  C4  UNL     1      25.143   1.152  52.685  1.00  0.00    -0.037 A 
HETATM    4  C5  UNL     1      24.334   2.297  52.846  1.00  0.00     0.040 A 
HETATM    5  C6  UNL     1      23.055   1.876  52.914  1.00  0.00     0.064 A 
HETATM    6  C7  UNL     1      21.771   1.434  52.980  1.00  0.00    -0.034 A 
HETATM    7  C8  UNL     1      20.404   2.024  53.053  1.00  0.00     0.209 C 
HETATM    8  O2  UNL     1      20.186   2.832  51.841  1.00  0.00    -0.346 OA
HETATM    9  C9  UNL     1      21.365   3.269  51.204  1.00  0.00     0.089 A 
HETATM   10  C10 UNL     1      22.295   4.315  51.101  1.00  0.00     0.051 A 
HETATM   11  C11 UNL     1      23.392   4.171  50.252  1.00  0.00     0.282 A 
HETATM   12  C12 UNL     1      23.134   2.922  49.762  1.00  0.00     0.155 A 
HETATM   13  C13 UNL     1      22.476   1.748  49.589  1.00  0.00     0.062 A 
HETATM   14  C14 UNL     1      21.504   2.111  50.474  1.00  0.00     0.069 A 
HETATM   15 CL1  UNL     1      20.674   0.593  50.123  1.00  0.00    -0.081 Cl
HETATM   16  N1  UNL     1      24.563   3.169  49.585  1.00  0.00    -0.009 N 
HETATM   17  C15 UNL     1      25.941   3.390  49.410  1.00  0.00     0.207 C 
HETATM   18  C16 UNL     1      26.567   3.353  50.615  1.00  0.00     0.027 C 
HETATM   19  C17 UNL     1      26.848   2.269  51.547  1.00  0.00     0.034 C 
HETATM   20  C18 UNL     1      26.479   1.542  52.598  1.00  0.00     0.065 C 
HETATM   21  H12 UNL     1      24.821   2.155  49.318  1.00  0.00     0.293 HD
ENDROOT
BRANCH  20  22
HETATM   22  N2  UNL     1      27.438   1.190  53.568  1.00  0.00    -0.234 N 
BRANCH  22  23
HETATM   23  C19 UNL     1      27.757  -0.174  53.773  1.00  0.00     0.122 C 
HETATM   24  C20 UNL     1      27.690  -1.036  52.771  1.00  0.00     0.024 C 
BRANCH  24  25
HETATM   25  C21 UNL     1      28.019  -2.470  52.956  1.00  0.00     0.251 C 
HETATM   26  F1  UNL     1      29.329  -2.601  53.393  1.00  0.00    -0.251 F 
ENDBRANCH  24  25
ENDBRANCH  22  23
BRANCH  22  27
HETATM   27  O3  UNL     1      28.021   2.166  54.286  1.00  0.00    -0.279 OA
HETATM   28  C22 UNL     1      29.396   1.843  54.363  1.00  0.00     0.238 C 
ENDBRANCH  22  27
ENDBRANCH  20  22
BRANCH   1  29
HETATM   29  O1  UNL     1      22.146  -0.990  52.786  1.00  0.00    -0.379 OA
HETATM   30  C1  UNL     1      21.566  -1.613  53.921  1.00  0.00     0.203 C 
ENDBRANCH   1  29
TORSDOF 5
ENDMDL
MODEL 3
REMARK VINA RESULT:      -8.5      1.527      1.978
REMARK  5 active torsions:
REMARK  status: ('A' for Active; 'I' for Inactive)
REMARK    1  A    between atoms: O1_2  and  C2_3 
REMARK    2  A    between atoms: C18_22  and  N2_23 
REMARK    3  A    between atoms: N2_23  and  C19_24 
REMARK    4  A    between atoms: N2_23  and  O3_28 
REMARK    5  A    between atoms: C20_25  and  C21_26 
ROOT
HETATM    1  C2  UNL     1      23.703   4.275  51.371  1.00  0.00     0.099 A 
HETATM    2  C3  UNL     1      24.174   3.261  52.108  1.00  0.00     0.066 A 
HETATM    3  C4  UNL     1      24.611   2.141  52.702  1.00  0.00    -0.037 A 
HETATM    4  C5  UNL     1      24.216   1.699  51.421  1.00  0.00     0.040 A 
HETATM    5  C6  UNL     1      23.749   2.774  50.754  1.00  0.00     0.064 A 
HETATM    6  C7  UNL     1      23.283   3.868  50.097  1.00  0.00    -0.034 A 
HETATM    7  C8  UNL     1      22.635   4.178  48.792  1.00  0.00     0.209 C 
HETATM    8  O2  UNL     1      21.354   3.452  48.730  1.00  0.00    -0.346 OA
HETATM    9  C9  UNL     1      21.272   2.328  49.576  1.00  0.00     0.089 A 
HETATM   10  C10 UNL     1      21.457   0.939  49.664  1.00  0.00     0.051 A 
HETATM   11  C11 UNL     1      21.237   0.297  50.882  1.00  0.00     0.282 A 
HETATM   12  C12 UNL     1      20.871   1.373  51.640  1.00  0.00     0.155 A 
HETATM   13  C13 UNL     1      20.588   2.666  51.937  1.00  0.00     0.062 A 
HETATM   14  C14 UNL     1      20.865   3.067  50.663  1.00  0.00     0.069 A 
HETATM   15 CL1  UNL     1      20.398   4.707  51.120  1.00  0.00    -0.081 Cl
HETATM   16  N1  UNL     1      21.335   0.336  52.557  1.00  0.00    -0.009 N 
HETATM   17  C15 UNL     1      21.782  -0.651  53.455  1.00  0.00     0.207 C 
HETATM   18  C16 UNL     1      23.131  -0.780  53.359  1.00  0.00     0.027 C 
HETATM   19  C17 UNL     1      24.234   0.087  53.747  1.00  0.00     0.034 C 
HETATM   20  C18 UNL     1      25.092   1.054  53.434  1.00  0.00     0.065 C 
HETATM   21  H12 UNL     1      21.367   0.966  53.434  1.00  0.00     0.293 HD
ENDROOT
BRANCH  20  22
HETATM   22  N2  UNL     1      26.433   0.954  53.851  1.00  0.00    -0.234 N 
BRANCH  22  23
HETATM   23  C19 UNL     1      27.082  -0.304  53.827  1.00  0.00     0.122 C 
HETATM   24  C20 UNL     1      27.037  -1.061  52.742  1.00  0.00     0.024 C 
BRANCH  24  25
HETATM   25  C21 UNL     1      27.707  -2.383  52.689  1.00  0.00     0.251 C 
HETATM   26  F1  UNL     1      29.025  -2.261  53.100  1.00  0.00    -0.251 F 
ENDBRANCH  24  25
ENDBRANCH  22  23
BRANCH  22  27
HETATM   27  O3  UNL     1      27.064   2.065  54.273  1.00  0.00    -0.279 OA
HETATM   28  C22 UNL     1      28.265   2.152  53.531  1.00  0.00     0.238 C 
ENDBRANCH  22  27
ENDBRANCH  20  22
BRANCH   1  29
HETATM   29  O1  UNL     1      23.638   5.584  51.825  1.00  0.00    -0.379 OA
HETATM   30  C1  UNL     1      24.252   6.645  51.111  1.00  0.00     0.203 C 
ENDBRANCH   1  29
TORSDOF 5
ENDMDL
MODEL 4
REMARK VINA RESULT:      -7.8      2.509      4.474
REMARK  5 active torsions:
REMARK  status: ('A' for Active; 'I' for Inactive)
REMARK    1  A    between atoms: O1_2  and  C2_3 
REMARK    2  A    between atoms: C18_22  and  N2_23 
REMARK    3  A    between atoms: N2_23  and  C19_24 
REMARK    4  A    between atoms: N2_23  and  O3_28 
REMARK    5  A    between atoms: C20_25  and  C21_26 
ROOT
HETATM    1  C2  UNL     1      21.596   1.311  51.576  1.00  0.00     0.099 A 
HETATM    2  C3  UNL     1      22.912   1.143  51.752  1.00  0.00     0.066 A 
HETATM    3  C4  UNL     1      24.234   1.149  51.983  1.00  0.00    -0.037 A 
HETATM    4  C5  UNL     1      23.837   2.459  52.325  1.00  0.00     0.040 A 
HETATM    5  C6  UNL     1      22.508   2.542  52.111  1.00  0.00     0.064 A 
HETATM    6  C7  UNL     1      21.169   2.608  51.889  1.00  0.00    -0.034 A 
HETATM    7  C8  UNL     1      20.094   3.639  51.929  1.00  0.00     0.209 C 
HETATM    8  O2  UNL     1      20.425   4.687  50.948  1.00  0.00    -0.346 OA
HETATM    9  C9  UNL     1      21.790   4.766  50.608  1.00  0.00     0.089 A 
HETATM   10  C10 UNL     1      23.014   5.388  50.903  1.00  0.00     0.051 A 
HETATM   11  C11 UNL     1      24.157   5.010  50.199  1.00  0.00     0.282 A 
HETATM   12  C12 UNL     1      23.612   4.068  49.375  1.00  0.00     0.155 A 
HETATM   13  C13 UNL     1      22.656   3.281  48.819  1.00  0.00     0.062 A 
HETATM   14  C14 UNL     1      21.692   3.803  49.630  1.00  0.00     0.069 A 
HETATM   15 CL1  UNL     1      20.502   2.803  48.793  1.00  0.00    -0.081 Cl
HETATM   16  N1  UNL     1      25.044   3.792  49.459  1.00  0.00    -0.009 N 
HETATM   17  C15 UNL     1      26.421   3.512  49.532  1.00  0.00     0.207 C 
HETATM   18  C16 UNL     1      26.721   3.012  50.759  1.00  0.00     0.027 C 
HETATM   19  C17 UNL     1      26.418   1.745  51.409  1.00  0.00     0.034 C 
HETATM   20  C18 UNL     1      25.610   1.021  52.179  1.00  0.00     0.065 C 
HETATM   21  H12 UNL     1      25.003   2.827  48.977  1.00  0.00     0.293 HD
ENDROOT
BRANCH  20  22
HETATM   22  N2  UNL     1      26.162   0.156  53.144  1.00  0.00    -0.234 N 
BRANCH  22  23
HETATM   23  C19 UNL     1      25.328  -0.775  53.808  1.00  0.00     0.122 C 
HETATM   24  C20 UNL     1      24.907  -0.538  55.040  1.00  0.00     0.024 C 
BRANCH  24  25
HETATM   25  C21 UNL     1      24.032  -1.496  55.760  1.00  0.00     0.251 C 
HETATM   26  F1  UNL     1      22.755  -1.464  55.222  1.00  0.00    -0.251 F 
ENDBRANCH  24  25
ENDBRANCH  22  23
BRANCH  22  27
HETATM   27  O3  UNL     1      27.476   0.245  53.416  1.00  0.00    -0.279 OA
HETATM   28  C22 UNL     1      28.037  -1.017  53.113  1.00  0.00     0.238 C 
ENDBRANCH  22  27
ENDBRANCH  20  22
BRANCH   1  29
HETATM   29  O1  UNL     1      20.751   0.305  51.130  1.00  0.00    -0.379 OA
HETATM   30  C1  UNL     1      19.433   0.169  51.636  1.00  0.00     0.203 C 
ENDBRANCH   1  29
TORSDOF 5
ENDMDL
MODEL 5
REMARK VINA RESULT:      -7.6      1.984      3.950
REMARK  5 active torsions:
REMARK  status: ('A' for Active; 'I' for Inactive)
REMARK    1  A    between atoms: O1_2  and  C2_3 
REMARK    2  A    between atoms: C18_22  and  N2_23 
REMARK    3  A    between atoms: N2_23  and  C19_24 
REMARK    4  A    between atoms: N2_23  and  O3_28 
REMARK    5  A    between atoms: C20_25  and  C21_26 
ROOT
HETATM    1  C2  UNL     1      21.607   1.234  51.745  1.00  0.00     0.099 A 
HETATM    2  C3  UNL     1      22.935   1.122  51.882  1.00  0.00     0.066 A 
HETATM    3  C4  UNL     1      24.263   1.187  52.065  1.00  0.00    -0.037 A 
HETATM    4  C5  UNL     1      23.829   2.498  52.355  1.00  0.00     0.040 A 
HETATM    5  C6  UNL     1      22.491   2.523  52.185  1.00  0.00     0.064 A 
HETATM    6  C7  UNL     1      21.144   2.529  52.008  1.00  0.00    -0.034 A 
HETATM    7  C8  UNL     1      20.033   3.522  52.034  1.00  0.00     0.209 C 
HETATM    8  O2  UNL     1      20.291   4.530  50.990  1.00  0.00    -0.346 OA
HETATM    9  C9  UNL     1      21.640   4.640  50.599  1.00  0.00     0.089 A 
HETATM   10  C10 UNL     1      22.849   5.318  50.819  1.00  0.00     0.051 A 
HETATM   11  C11 UNL     1      23.981   4.946  50.094  1.00  0.00     0.282 A 
HETATM   12  C12 UNL     1      23.445   3.944  49.338  1.00  0.00     0.155 A 
HETATM   13  C13 UNL     1      22.500   3.096  48.857  1.00  0.00     0.062 A 
HETATM   14  C14 UNL     1      21.545   3.625  49.674  1.00  0.00     0.069 A 
HETATM   15 CL1  UNL     1      20.366   2.541  48.931  1.00  0.00    -0.081 Cl
HETATM   16  N1  UNL     1      24.888   3.724  49.385  1.00  0.00    -0.009 N 
HETATM   17  C15 UNL     1      26.275   3.497  49.423  1.00  0.00     0.207 C 
HETATM   18  C16 UNL     1      26.636   3.072  50.662  1.00  0.00     0.027 C 
HETATM   19  C17 UNL     1      26.402   1.830  51.385  1.00  0.00     0.034 C 
HETATM   20  C18 UNL     1      25.648   1.118  52.218  1.00  0.00     0.065 C 
HETATM   21  H12 UNL     1      24.866   2.734  48.953  1.00  0.00     0.293 HD
ENDROOT
BRANCH  20  22
HETATM   22  N2  UNL     1      26.264   0.324  53.206  1.00  0.00    -0.234 N 
BRANCH  22  23
HETATM   23  C19 UNL     1      27.311   0.868  53.988  1.00  0.00     0.122 C 
HETATM   24  C20 UNL     1      28.567   0.516  53.765  1.00  0.00     0.024 C 
BRANCH  24  25
HETATM   25  C21 UNL     1      29.684   1.069  54.569  1.00  0.00     0.251 C 
HETATM   26  F1  UNL     1      29.529   2.440  54.709  1.00  0.00    -0.251 F 
ENDBRANCH  24  25
ENDBRANCH  22  23
BRANCH  22  27
HETATM   27  O3  UNL     1      25.842  -0.941  53.374  1.00  0.00    -0.279 OA
HETATM   28  C22 UNL     1      26.532  -1.727  52.422  1.00  0.00     0.238 C 
ENDBRANCH  22  27
ENDBRANCH  20  22
BRANCH   1  29
HETATM   29  O1  UNL     1      20.786   0.177  51.380  1.00  0.00    -0.379 OA
HETATM   30  C1  UNL     1      19.434   0.112  51.804  1.00  0.00     0.203 C 
ENDBRANCH   1  29
TORSDOF 5
ENDMDL
MODEL 6
REMARK VINA RESULT:      -7.5      6.467      9.921
REMARK  5 active torsions:
REMARK  status: ('A' for Active; 'I' for Inactive)
REMARK    1  A    between atoms: O1_2  and  C2_3 
REMARK    2  A    between atoms: C18_22  and  N2_23 
REMARK    3  A    between atoms: N2_23  and  C19_24 
REMARK    4  A    between atoms: N2_23  and  O3_28 
REMARK    5  A    between atoms: C20_25  and  C21_26 
ROOT
HETATM    1  C2  UNL     1      30.414   5.694  47.705  1.00  0.00     0.099 A 
HETATM    2  C3  UNL     1      29.175   5.809  48.199  1.00  0.00     0.066 A 
HETATM    3  C4  UNL     1      27.916   6.068  48.585  1.00  0.00    -0.037 A 
HETATM    4  C5  UNL     1      28.178   7.073  47.629  1.00  0.00     0.040 A 
HETATM    5  C6  UNL     1      29.441   6.888  47.192  1.00  0.00     0.064 A 
HETATM    6  C7  UNL     1      30.715   6.688  46.764  1.00  0.00    -0.034 A 
HETATM    7  C8  UNL     1      31.696   7.362  45.866  1.00  0.00     0.209 C 
HETATM    8  O2  UNL     1      31.965   8.706  46.405  1.00  0.00    -0.346 OA
HETATM    9  C9  UNL     1      30.956   9.217  47.246  1.00  0.00     0.089 A 
HETATM   10  C10 UNL     1      29.791   9.999  47.299  1.00  0.00     0.051 A 
HETATM   11  C11 UNL     1      29.125  10.146  48.515  1.00  0.00     0.282 A 
HETATM   12  C12 UNL     1      29.942   9.396  49.312  1.00  0.00     0.155 A 
HETATM   13  C13 UNL     1      30.992   8.608  49.650  1.00  0.00     0.062 A 
HETATM   14  C14 UNL     1      31.461   8.604  48.370  1.00  0.00     0.069 A 
HETATM   15 CL1  UNL     1      32.839   7.648  48.918  1.00  0.00    -0.081 Cl
HETATM   16  N1  UNL     1      28.641   9.468  49.973  1.00  0.00    -0.009 N 
HETATM   17  C15 UNL     1      27.394   9.525  50.621  1.00  0.00     0.207 C 
HETATM   18  C16 UNL     1      26.492   8.765  49.946  1.00  0.00     0.027 C 
HETATM   19  C17 UNL     1      26.349   7.326  49.773  1.00  0.00     0.034 C 
HETATM   20  C18 UNL     1      26.619   6.228  49.074  1.00  0.00     0.065 C 
HETATM   21  H12 UNL     1      28.851   8.716  50.719  1.00  0.00     0.293 HD
ENDROOT
BRANCH  20  22
HETATM   22  N2  UNL     1      25.605   5.273  48.862  1.00  0.00    -0.234 N 
BRANCH  22  23
HETATM   23  C19 UNL     1      25.809   3.933  49.270  1.00  0.00     0.122 C 
HETATM   24  C20 UNL     1      26.196   3.660  50.505  1.00  0.00     0.024 C 
BRANCH  24  25
HETATM   25  C21 UNL     1      26.418   2.266  50.960  1.00  0.00     0.251 C 
HETATM   26  F1  UNL     1      27.438   2.232  51.899  1.00  0.00    -0.251 F 
ENDBRANCH  24  25
ENDBRANCH  22  23
BRANCH  22  27
HETATM   27  O3  UNL     1      24.465   5.663  48.265  1.00  0.00    -0.279 OA
HETATM   28  C22 UNL     1      23.405   5.123  49.030  1.00  0.00     0.238 C 
ENDBRANCH  22  27
ENDBRANCH  20  22
BRANCH   1  29
HETATM   29  O1  UNL     1      31.300   4.698  48.087  1.00  0.00    -0.379 OA
HETATM   30  C1  UNL     1      31.973   3.899  47.127  1.00  0.00     0.203 C 
ENDBRANCH   1  29
TORSDOF 5
ENDMDL
MODEL 7
REMARK VINA RESULT:      -7.1      3.677      6.262
REMARK  5 active torsions:
REMARK  status: ('A' for Active; 'I' for Inactive)
REMARK    1  A    between atoms: O1_2  and  C2_3 
REMARK    2  A    between atoms: C18_22  and  N2_23 
REMARK    3  A    between atoms: N2_23  and  C19_24 
REMARK    4  A    between atoms: N2_23  and  O3_28 
REMARK    5  A    between atoms: C20_25  and  C21_26 
ROOT
HETATM    1  C2  UNL     1      20.609   3.761  50.010  1.00  0.00     0.099 A 
HETATM    2  C3  UNL     1      20.498   2.621  50.704  1.00  0.00     0.066 A 
HETATM    3  C4  UNL     1      20.448   1.574  51.541  1.00  0.00    -0.037 A 
HETATM    4  C5  UNL     1      20.924   2.623  52.357  1.00  0.00     0.040 A 
HETATM    5  C6  UNL     1      21.014   3.723  51.581  1.00  0.00     0.064 A 
HETATM    6  C7  UNL     1      21.098   4.821  50.785  1.00  0.00    -0.034 A 
HETATM    7  C8  UNL     1      21.580   6.227  50.893  1.00  0.00     0.209 C 
HETATM    8  O2  UNL     1      23.021   6.197  51.200  1.00  0.00    -0.346 OA
HETATM    9  C9  UNL     1      23.472   5.001  51.794  1.00  0.00     0.089 A 
HETATM   10  C10 UNL     1      23.731   4.348  53.009  1.00  0.00     0.051 A 
HETATM   11  C11 UNL     1      24.175   3.026  52.991  1.00  0.00     0.282 A 
HETATM   12  C12 UNL     1      24.209   2.819  51.641  1.00  0.00     0.155 A 
HETATM   13  C13 UNL     1      24.084   3.101  50.320  1.00  0.00     0.062 A 
HETATM   14  C14 UNL     1      23.660   4.370  50.585  1.00  0.00     0.069 A 
HETATM   15 CL1  UNL     1      23.607   4.673  48.847  1.00  0.00    -0.081 Cl
HETATM   16  N1  UNL     1      24.118   1.507  52.277  1.00  0.00    -0.009 N 
HETATM   17  C15 UNL     1      24.026   0.236  52.874  1.00  0.00     0.207 C 
HETATM   18  C16 UNL     1      22.782   0.062  53.391  1.00  0.00     0.027 C 
HETATM   19  C17 UNL     1      21.475  -0.121  52.775  1.00  0.00     0.034 C 
HETATM   20  C18 UNL     1      20.350   0.409  52.303  1.00  0.00     0.065 C 
HETATM   21  H12 UNL     1      23.916   0.955  51.371  1.00  0.00     0.293 HD
ENDROOT
BRANCH  20  22
HETATM   22  N2  UNL     1      19.119  -0.218  52.577  1.00  0.00    -0.234 N 
BRANCH  22  23
HETATM   23  C19 UNL     1      17.973   0.132  51.823  1.00  0.00     0.122 C 
HETATM   24  C20 UNL     1      17.928  -0.104  50.522  1.00  0.00     0.024 C 
BRANCH  24  25
HETATM   25  C21 UNL     1      16.740   0.252  49.708  1.00  0.00     0.251 C 
HETATM   26  F1  UNL     1      16.391  -0.813  48.892  1.00  0.00    -0.251 F 
ENDBRANCH  24  25
ENDBRANCH  22  23
BRANCH  22  27
HETATM   27  O3  UNL     1      19.064  -1.134  53.559  1.00  0.00    -0.279 OA
HETATM   28  C22 UNL     1      17.807  -1.773  53.446  1.00  0.00     0.238 C 
ENDBRANCH  22  27
ENDBRANCH  20  22
BRANCH   1  29
HETATM   29  O1  UNL     1      20.276   3.874  48.668  1.00  0.00    -0.379 OA
HETATM   30  C1  UNL     1      20.613   2.859  47.736  1.00  0.00     0.203 C 
ENDBRANCH   1  29
TORSDOF 5
ENDMDL
MODEL 8
REMARK VINA RESULT:      -7.1      8.314     11.642
REMARK  5 active torsions:
REMARK  status: ('A' for Active; 'I' for Inactive)
REMARK    1  A    between atoms: O1_2  and  C2_3 
REMARK    2  A    between atoms: C18_22  and  N2_23 
REMARK    3  A    between atoms: N2_23  and  C19_24 
REMARK    4  A    between atoms: N2_23  and  O3_28 
REMARK    5  A    between atoms: C20_25  and  C21_26 
ROOT
HETATM    1  C2  UNL     1      28.758   7.602  48.405  1.00  0.00     0.099 A 
HETATM    2  C3  UNL     1      30.053   7.394  48.135  1.00  0.00     0.066 A 
HETATM    3  C4  UNL     1      31.384   7.326  47.974  1.00  0.00    -0.037 A 
HETATM    4  C5  UNL     1      31.217   8.408  48.864  1.00  0.00     0.040 A 
HETATM    5  C6  UNL     1      29.892   8.552  49.073  1.00  0.00     0.064 A 
HETATM    6  C7  UNL     1      28.554   8.683  49.272  1.00  0.00    -0.034 A 
HETATM    7  C8  UNL     1      27.630   9.614  49.981  1.00  0.00     0.209 C 
HETATM    8  O2  UNL     1      27.792  10.956  49.396  1.00  0.00    -0.346 OA
HETATM    9  C9  UNL     1      29.022  11.171  48.743  1.00  0.00     0.089 A 
HETATM   10  C10 UNL     1      30.334  11.648  48.890  1.00  0.00     0.051 A 
HETATM   11  C11 UNL     1      31.212  11.573  47.810  1.00  0.00     0.282 A 
HETATM   12  C12 UNL     1      30.383  11.003  46.885  1.00  0.00     0.155 A 
HETATM   13  C13 UNL     1      29.245  10.473  46.372  1.00  0.00     0.062 A 
HETATM   14  C14 UNL     1      28.580  10.643  47.551  1.00  0.00     0.069 A 
HETATM   15 CL1  UNL     1      27.123  10.018  46.774  1.00  0.00    -0.081 Cl
HETATM   16  N1  UNL     1      31.755  10.730  46.462  1.00  0.00    -0.009 N 
HETATM   17  C15 UNL     1      33.069  10.456  46.043  1.00  0.00     0.207 C 
HETATM   18  C16 UNL     1      33.631   9.536  46.870  1.00  0.00     0.027 C 
HETATM   19  C17 UNL     1      33.388   8.115  47.073  1.00  0.00     0.034 C 
HETATM   20  C18 UNL     1      32.744   7.147  47.720  1.00  0.00     0.065 C 
HETATM   21  H12 UNL     1      31.497  10.015  45.695  1.00  0.00     0.293 HD
ENDROOT
BRANCH  20  22
HETATM   22  N2  UNL     1      33.444   5.989  48.112  1.00  0.00    -0.234 N 
BRANCH  22  23
HETATM   23  C19 UNL     1      33.396   4.833  47.296  1.00  0.00     0.122 C 
HETATM   24  C20 UNL     1      32.499   3.887  47.526  1.00  0.00     0.024 C 
BRANCH  24  25
HETATM   25  C21 UNL     1      32.427   2.666  46.688  1.00  0.00     0.251 C 
HETATM   26  F1  UNL     1      31.108   2.407  46.344  1.00  0.00    -0.251 F 
ENDBRANCH  24  25
ENDBRANCH  22  23
BRANCH  22  27
HETATM   27  O3  UNL     1      34.138   6.012  49.263  1.00  0.00    -0.279 OA
HETATM   28  C22 UNL     1      35.464   5.638  48.943  1.00  0.00     0.238 C 
ENDBRANCH  22  27
ENDBRANCH  20  22
BRANCH   1  29
HETATM   29  O1  UNL     1      27.735   6.829  47.878  1.00  0.00    -0.379 OA
HETATM   30  C1  UNL     1      27.334   5.616  48.493  1.00  0.00     0.203 C 
ENDBRANCH   1  29
TORSDOF 5
ENDMDL
MODEL 9
REMARK VINA RESULT:      -7.1      2.521      4.835
REMARK  5 active torsions:
REMARK  status: ('A' for Active; 'I' for Inactive)
REMARK    1  A    between atoms: O1_2  and  C2_3 
REMARK    2  A    between atoms: C18_22  and  N2_23 
REMARK    3  A    between atoms: N2_23  and  C19_24 
REMARK    4  A    between atoms: N2_23  and  O3_28 
REMARK    5  A    between atoms: C20_25  and  C21_26 
ROOT
HETATM    1  C2  UNL     1      21.381   4.286  50.989  1.00  0.00     0.099 A 
HETATM    2  C3  UNL     1      22.419   3.488  51.272  1.00  0.00     0.066 A 
HETATM    3  C4  UNL     1      23.544   2.840  51.610  1.00  0.00    -0.037 A 
HETATM    4  C5  UNL     1      23.840   4.187  51.911  1.00  0.00     0.040 A 
HETATM    5  C6  UNL     1      22.752   4.916  51.589  1.00  0.00     0.064 A 
HETATM    6  C7  UNL     1      21.646   5.634  51.259  1.00  0.00    -0.034 A 
HETATM    7  C8  UNL     1      21.237   7.067  51.206  1.00  0.00     0.209 C 
HETATM    8  O2  UNL     1      22.116   7.761  50.249  1.00  0.00    -0.346 OA
HETATM    9  C9  UNL     1      23.355   7.129  50.021  1.00  0.00     0.089 A 
HETATM   10  C10 UNL     1      24.702   7.065  50.411  1.00  0.00     0.051 A 
HETATM   11  C11 UNL     1      25.544   6.133  49.804  1.00  0.00     0.282 A 
HETATM   12  C12 UNL     1      24.655   5.554  48.943  1.00  0.00     0.155 A 
HETATM   13  C13 UNL     1      23.473   5.330  48.316  1.00  0.00     0.062 A 
HETATM   14  C14 UNL     1      22.851   6.301  49.043  1.00  0.00     0.069 A 
HETATM   15 CL1  UNL     1      21.379   5.996  48.117  1.00  0.00    -0.081 Cl
HETATM   16  N1  UNL     1      25.744   4.602  49.145  1.00  0.00    -0.009 N 
HETATM   17  C15 UNL     1      26.783   3.672  49.332  1.00  0.00     0.207 C 
HETATM   18  C16 UNL     1      26.708   3.145  50.581  1.00  0.00     0.027 C 
HETATM   19  C17 UNL     1      25.764   2.233  51.212  1.00  0.00     0.034 C 
HETATM   20  C18 UNL     1      24.651   2.048  51.917  1.00  0.00     0.065 C 
HETATM   21  H12 UNL     1      25.254   3.766  48.666  1.00  0.00     0.293 HD
ENDROOT
BRANCH  20  22
HETATM   22  N2  UNL     1      24.626   1.069  52.929  1.00  0.00    -0.234 N 
BRANCH  22  23
HETATM   23  C19 UNL     1      25.829   0.432  53.317  1.00  0.00     0.122 C 
HETATM   24  C20 UNL     1      26.331   0.625  54.526  1.00  0.00     0.024 C 
BRANCH  24  25
HETATM   25  C21 UNL     1      27.590  -0.029  54.959  1.00  0.00     0.251 C 
HETATM   26  F1  UNL     1      28.676   0.608  54.378  1.00  0.00    -0.251 F 
ENDBRANCH  24  25
ENDBRANCH  22  23
BRANCH  22  27
HETATM   27  O3  UNL     1      23.448   0.757  53.498  1.00  0.00    -0.279 OA
HETATM   28  C22 UNL     1      23.135  -0.558  53.084  1.00  0.00     0.238 C 
ENDBRANCH  22  27
ENDBRANCH  20  22
BRANCH   1  29
HETATM   29  O1  UNL     1      20.177   3.821  50.481  1.00  0.00    -0.379 OA
HETATM   30  C1  UNL     1      18.968   3.955  51.209  1.00  0.00     0.203 C 
ENDBRANCH   1  29
TORSDOF 5
ENDMDL
