MODEL 1
REMARK VINA RESULT:      -7.9      0.000      0.000
REMARK  5 active torsions:
REMARK  status: ('A' for Active; 'I' for Inactive)
REMARK    1  A    between atoms: C2_2  and  C5_5 
REMARK    2  A    between atoms: C8_8  and  C9_9 
REMARK    3  A    between atoms: C10_12  and  S1_13 
REMARK    4  A    between atoms: S1_13  and  C11_14 
REMARK    5  A    between atoms: C11_14  and  C12_15 
ROOT
HETATM    1  C9  UNL     1      25.088   3.005  50.671  1.00  0.00     0.203 A 
HETATM    2  N1  UNL     1      23.780   2.703  50.449  1.00  0.00    -0.120 NA
HETATM    3  N2  UNL     1      23.450   1.700  51.238  1.00  0.00    -0.114 NA
HETATM    4  C10 UNL     1      24.527   1.351  51.965  1.00  0.00     0.231 A 
HETATM    5  O1  UNL     1      25.511   2.167  51.596  1.00  0.00    -0.263 OA
ENDROOT
BRANCH   1   6
HETATM    6  C8  UNL     1      25.786   4.079  49.959  1.00  0.00     0.019 A 
HETATM    7  C7  UNL     1      26.967   3.865  49.278  1.00  0.00     0.016 A 
HETATM    8  C6  UNL     1      27.580   4.902  48.631  1.00  0.00     0.009 A 
HETATM    9  C5  UNL     1      27.050   6.172  48.636  1.00  0.00    -0.051 A 
HETATM   10  C18 UNL     1      25.854   6.408  49.320  1.00  0.00     0.009 A 
HETATM   11  C17 UNL     1      25.222   5.349  49.985  1.00  0.00     0.016 A 
BRANCH   9  12
HETATM   12  C2  UNL     1      27.573   7.403  47.991  1.00  0.00    -0.024 C 
HETATM   13  C1  UNL     1      26.614   7.975  46.970  1.00  0.00     0.019 C 
HETATM   14  C3  UNL     1      28.904   7.061  47.346  1.00  0.00     0.019 C 
HETATM   15  C4  UNL     1      27.858   8.452  49.034  1.00  0.00     0.019 C 
ENDBRANCH   9  12
ENDBRANCH   1   6
BRANCH   4  16
HETATM   16  S1  UNL     1      25.089   0.202  53.228  1.00  0.00    -0.078 SA
BRANCH  16  17
HETATM   17  C11 UNL     1      26.445   1.002  54.126  1.00  0.00     0.121 C 
BRANCH  17  18
HETATM   18  C12 UNL     1      27.670   0.193  53.899  1.00  0.00    -0.052 A 
HETATM   19  C13 UNL     1      28.931   0.374  54.288  1.00  0.00    -0.015 A 
HETATM   20  C14 UNL     1      29.799  -0.720  53.809  1.00  0.00     0.054 A 
HETATM   21  C15 UNL     1      28.842  -1.576  53.073  1.00  0.00    -0.022 A 
HETATM   22  C16 UNL     1      27.622  -1.054  53.124  1.00  0.00     0.004 A 
ENDBRANCH  17  18
ENDBRANCH  16  17
ENDBRANCH   4  16
TORSDOF 5
ENDMDL
MODEL 2
REMARK VINA RESULT:      -7.7      5.846      8.622
REMARK  5 active torsions:
REMARK  status: ('A' for Active; 'I' for Inactive)
REMARK    1  A    between atoms: C2_2  and  C5_5 
REMARK    2  A    between atoms: C8_8  and  C9_9 
REMARK    3  A    between atoms: C10_12  and  S1_13 
REMARK    4  A    between atoms: S1_13  and  C11_14 
REMARK    5  A    between atoms: C11_14  and  C12_15 
ROOT
HETATM    1  C9  UNL     1      21.519  -0.869  53.938  1.00  0.00     0.203 A 
HETATM    2  N1  UNL     1      21.750  -1.589  55.069  1.00  0.00    -0.120 NA
HETATM    3  N2  UNL     1      23.026  -1.466  55.381  1.00  0.00    -0.114 NA
HETATM    4  C10 UNL     1      23.618  -0.677  54.467  1.00  0.00     0.231 A 
HETATM    5  O1  UNL     1      22.671  -0.327  53.600  1.00  0.00    -0.263 OA
ENDROOT
BRANCH   1   6
HETATM    6  C8  UNL     1      20.197  -0.783  53.309  1.00  0.00     0.019 A 
HETATM    7  C7  UNL     1      19.128  -1.542  53.738  1.00  0.00     0.016 A 
HETATM    8  C6  UNL     1      17.915  -1.426  53.115  1.00  0.00     0.009 A 
HETATM    9  C5  UNL     1      17.724  -0.563  52.060  1.00  0.00    -0.051 A 
HETATM   10  C18 UNL     1      18.796   0.213  51.613  1.00  0.00     0.009 A 
HETATM   11  C17 UNL     1      20.040   0.098  52.247  1.00  0.00     0.016 A 
BRANCH   9  12
HETATM   12  C2  UNL     1      16.488  -0.309  51.277  1.00  0.00    -0.024 C 
HETATM   13  C1  UNL     1      15.795   0.972  51.688  1.00  0.00     0.019 C 
HETATM   14  C3  UNL     1      15.567  -1.501  51.460  1.00  0.00     0.019 C 
HETATM   15  C4  UNL     1      16.813  -0.238  49.808  1.00  0.00     0.019 C 
ENDBRANCH   9  12
ENDBRANCH   1   6
BRANCH   4  16
HETATM   16  S1  UNL     1      25.198   0.055  54.017  1.00  0.00    -0.078 SA
BRANCH  16  17
HETATM   17  C11 UNL     1      26.142  -1.202  53.117  1.00  0.00     0.121 C 
BRANCH  17  18
HETATM   18  C12 UNL     1      27.583  -0.890  53.293  1.00  0.00    -0.052 A 
HETATM   19  C13 UNL     1      28.671  -1.650  53.178  1.00  0.00    -0.015 A 
HETATM   20  C14 UNL     1      29.896  -0.873  53.454  1.00  0.00     0.054 A 
HETATM   21  C15 UNL     1      29.352   0.470  53.751  1.00  0.00    -0.022 A 
HETATM   22  C16 UNL     1      28.027   0.462  53.658  1.00  0.00     0.004 A 
ENDBRANCH  17  18
ENDBRANCH  16  17
ENDBRANCH   4  16
TORSDOF 5
ENDMDL
MODEL 3
REMARK VINA RESULT:      -7.5      1.067      1.787
REMARK  5 active torsions:
REMARK  status: ('A' for Active; 'I' for Inactive)
REMARK    1  A    between atoms: C2_2  and  C5_5 
REMARK    2  A    between atoms: C8_8  and  C9_9 
REMARK    3  A    between atoms: C10_12  and  S1_13 
REMARK    4  A    between atoms: S1_13  and  C11_14 
REMARK    5  A    between atoms: C11_14  and  C12_15 
ROOT
HETATM    1  C9  UNL     1      24.750   3.457  50.130  1.00  0.00     0.203 A 
HETATM    2  N1  UNL     1      23.710   2.928  49.431  1.00  0.00    -0.120 NA
HETATM    3  N2  UNL     1      23.045   2.119  50.232  1.00  0.00    -0.114 NA
HETATM    4  C10 UNL     1      23.642   2.121  51.437  1.00  0.00     0.231 A 
HETATM    5  O1  UNL     1      24.680   2.948  51.344  1.00  0.00    -0.263 OA
ENDROOT
BRANCH   1   6
HETATM    6  C8  UNL     1      25.701   4.405  49.542  1.00  0.00     0.019 A 
HETATM    7  C7  UNL     1      26.964   4.025  49.138  1.00  0.00     0.016 A 
HETATM    8  C6  UNL     1      27.815   4.949  48.596  1.00  0.00     0.009 A 
HETATM    9  C5  UNL     1      27.446   6.266  48.438  1.00  0.00    -0.051 A 
HETATM   10  C18 UNL     1      26.171   6.669  48.842  1.00  0.00     0.009 A 
HETATM   11  C17 UNL     1      25.295   5.726  49.397  1.00  0.00     0.016 A 
BRANCH   9  12
HETATM   12  C2  UNL     1      28.232   7.392  47.872  1.00  0.00    -0.024 C 
HETATM   13  C1  UNL     1      29.606   6.963  47.407  1.00  0.00     0.019 C 
HETATM   14  C3  UNL     1      28.336   8.468  48.937  1.00  0.00     0.019 C 
HETATM   15  C4  UNL     1      27.493   8.005  46.711  1.00  0.00     0.019 C 
ENDBRANCH   9  12
ENDBRANCH   1   6
BRANCH   4  16
HETATM   16  S1  UNL     1      23.533   1.417  53.089  1.00  0.00    -0.078 SA
BRANCH  16  17
HETATM   17  C11 UNL     1      24.218  -0.258  53.012  1.00  0.00     0.121 C 
BRANCH  17  18
HETATM   18  C12 UNL     1      25.679  -0.155  53.258  1.00  0.00    -0.052 A 
HETATM   19  C13 UNL     1      26.723  -0.271  52.438  1.00  0.00    -0.015 A 
HETATM   20  C14 UNL     1      27.995  -0.083  53.164  1.00  0.00     0.054 A 
HETATM   21  C15 UNL     1      27.530   0.162  54.547  1.00  0.00    -0.022 A 
HETATM   22  C16 UNL     1      26.204   0.121  54.602  1.00  0.00     0.004 A 
ENDBRANCH  17  18
ENDBRANCH  16  17
ENDBRANCH   4  16
TORSDOF 5
ENDMDL
MODEL 4
REMARK VINA RESULT:      -7.4      5.277      8.705
REMARK  5 active torsions:
REMARK  status: ('A' for Active; 'I' for Inactive)
REMARK    1  A    between atoms: C2_2  and  C5_5 
REMARK    2  A    between atoms: C8_8  and  C9_9 
REMARK    3  A    between atoms: C10_12  and  S1_13 
REMARK    4  A    between atoms: S1_13  and  C11_14 
REMARK    5  A    between atoms: C11_14  and  C12_15 
ROOT
HETATM    1  C9  UNL     1      21.674  -0.935  54.050  1.00  0.00     0.203 A 
HETATM    2  N1  UNL     1      21.704  -1.678  55.189  1.00  0.00    -0.120 NA
HETATM    3  N2  UNL     1      22.946  -1.699  55.633  1.00  0.00    -0.114 NA
HETATM    4  C10 UNL     1      23.714  -0.979  54.796  1.00  0.00     0.231 A 
HETATM    5  O1  UNL     1      22.908  -0.525  53.840  1.00  0.00    -0.263 OA
ENDROOT
BRANCH   1   6
HETATM    6  C8  UNL     1      20.443  -0.701  53.288  1.00  0.00     0.019 A 
HETATM    7  C7  UNL     1      20.400   0.149  52.203  1.00  0.00     0.016 A 
HETATM    8  C6  UNL     1      19.225   0.335  51.527  1.00  0.00     0.009 A 
HETATM    9  C5  UNL     1      18.067  -0.310  51.899  1.00  0.00    -0.051 A 
HETATM   10  C18 UNL     1      18.093  -1.174  52.997  1.00  0.00     0.009 A 
HETATM   11  C17 UNL     1      19.293  -1.368  53.693  1.00  0.00     0.016 A 
BRANCH   9  12
HETATM   12  C2  UNL     1      16.718  -0.230  51.285  1.00  0.00    -0.024 C 
HETATM   13  C1  UNL     1      15.818  -1.368  51.714  1.00  0.00     0.019 C 
HETATM   14  C3  UNL     1      16.893  -0.222  49.777  1.00  0.00     0.019 C 
HETATM   15  C4  UNL     1      16.061   1.076  51.648  1.00  0.00     0.019 C 
ENDBRANCH   9  12
ENDBRANCH   1   6
BRANCH   4  16
HETATM   16  S1  UNL     1      25.404  -0.428  54.523  1.00  0.00    -0.078 SA
BRANCH  16  17
HETATM   17  C11 UNL     1      25.765  -0.636  52.759  1.00  0.00     0.121 C 
BRANCH  17  18
HETATM   18  C12 UNL     1      25.695   0.706  52.127  1.00  0.00    -0.052 A 
HETATM   19  C13 UNL     1      24.657   1.469  51.788  1.00  0.00    -0.015 A 
HETATM   20  C14 UNL     1      25.104   2.738  51.181  1.00  0.00     0.054 A 
HETATM   21  C15 UNL     1      26.576   2.598  51.216  1.00  0.00    -0.022 A 
HETATM   22  C16 UNL     1      26.916   1.434  51.758  1.00  0.00     0.004 A 
ENDBRANCH  17  18
ENDBRANCH  16  17
ENDBRANCH   4  16
TORSDOF 5
ENDMDL
MODEL 5
REMARK VINA RESULT:      -7.4      6.297      9.134
REMARK  5 active torsions:
REMARK  status: ('A' for Active; 'I' for Inactive)
REMARK    1  A    between atoms: C2_2  and  C5_5 
REMARK    2  A    between atoms: C8_8  and  C9_9 
REMARK    3  A    between atoms: C10_12  and  S1_13 
REMARK    4  A    between atoms: S1_13  and  C11_14 
REMARK    5  A    between atoms: C11_14  and  C12_15 
ROOT
HETATM    1  C9  UNL     1      20.463   0.217  51.964  1.00  0.00     0.203 A 
HETATM    2  N1  UNL     1      19.861   0.765  50.873  1.00  0.00    -0.120 NA
HETATM    3  N2  UNL     1      18.581   0.448  50.908  1.00  0.00    -0.114 NA
HETATM    4  C10 UNL     1      18.351  -0.295  52.006  1.00  0.00     0.231 A 
HETATM    5  O1  UNL     1      19.520  -0.417  52.630  1.00  0.00    -0.263 OA
ENDROOT
BRANCH   1   6
HETATM    6  C8  UNL     1      21.894   0.373  52.241  1.00  0.00     0.019 A 
HETATM    7  C7  UNL     1      22.685   1.264  51.547  1.00  0.00     0.016 A 
HETATM    8  C6  UNL     1      24.016   1.371  51.843  1.00  0.00     0.009 A 
HETATM    9  C5  UNL     1      24.601   0.606  52.827  1.00  0.00    -0.051 A 
HETATM   10  C18 UNL     1      23.814  -0.302  53.541  1.00  0.00     0.009 A 
HETATM   11  C17 UNL     1      22.450  -0.414  53.241  1.00  0.00     0.016 A 
BRANCH   9  12
HETATM   12  C2  UNL     1      26.015   0.593  53.280  1.00  0.00    -0.024 C 
HETATM   13  C1  UNL     1      26.600   1.984  53.394  1.00  0.00     0.019 C 
HETATM   14  C3  UNL     1      26.810  -0.246  52.296  1.00  0.00     0.019 C 
HETATM   15  C4  UNL     1      26.124  -0.093  54.616  1.00  0.00     0.019 C 
ENDBRANCH   9  12
ENDBRANCH   1   6
BRANCH   4  16
HETATM   16  S1  UNL     1      17.053  -1.157  52.904  1.00  0.00    -0.078 SA
BRANCH  16  17
HETATM   17  C11 UNL     1      17.774  -2.678  53.574  1.00  0.00     0.121 C 
BRANCH  17  18
HETATM   18  C12 UNL     1      16.742  -3.741  53.479  1.00  0.00    -0.052 A 
HETATM   19  C13 UNL     1      16.621  -4.912  54.104  1.00  0.00    -0.015 A 
HETATM   20  C14 UNL     1      15.405  -5.626  53.667  1.00  0.00     0.054 A 
HETATM   21  C15 UNL     1      14.829  -4.686  52.681  1.00  0.00    -0.022 A 
HETATM   22  C16 UNL     1      15.595  -3.605  52.573  1.00  0.00     0.004 A 
ENDBRANCH  17  18
ENDBRANCH  16  17
ENDBRANCH   4  16
TORSDOF 5
ENDMDL
MODEL 6
REMARK VINA RESULT:      -7.3      4.619      7.608
REMARK  5 active torsions:
REMARK  status: ('A' for Active; 'I' for Inactive)
REMARK    1  A    between atoms: C2_2  and  C5_5 
REMARK    2  A    between atoms: C8_8  and  C9_9 
REMARK    3  A    between atoms: C10_12  and  S1_13 
REMARK    4  A    between atoms: S1_13  and  C11_14 
REMARK    5  A    between atoms: C11_14  and  C12_15 
ROOT
HETATM    1  C9  UNL     1      27.787   5.454  48.536  1.00  0.00     0.203 A 
HETATM    2  N1  UNL     1      27.771   6.666  47.917  1.00  0.00    -0.120 NA
HETATM    3  N2  UNL     1      29.008   6.968  47.573  1.00  0.00    -0.114 NA
HETATM    4  C10 UNL     1      29.819   5.968  47.962  1.00  0.00     0.231 A 
HETATM    5  O1  UNL     1      29.044   5.058  48.546  1.00  0.00    -0.263 OA
ENDROOT
BRANCH   1   6
HETATM    6  C8  UNL     1      26.574   4.810  49.050  1.00  0.00     0.019 A 
HETATM    7  C7  UNL     1      25.322   5.362  48.885  1.00  0.00     0.016 A 
HETATM    8  C6  UNL     1      24.221   4.722  49.385  1.00  0.00     0.009 A 
HETATM    9  C5  UNL     1      24.325   3.526  50.059  1.00  0.00    -0.051 A 
HETATM   10  C18 UNL     1      25.587   2.952  50.236  1.00  0.00     0.009 A 
HETATM   11  C17 UNL     1      26.717   3.604  49.725  1.00  0.00     0.016 A 
BRANCH   9  12
HETATM   12  C2  UNL     1      23.248   2.699  50.660  1.00  0.00    -0.024 C 
HETATM   13  C1  UNL     1      22.327   3.505  51.550  1.00  0.00     0.019 C 
HETATM   14  C3  UNL     1      23.905   1.577  51.442  1.00  0.00     0.019 C 
HETATM   15  C4  UNL     1      22.431   2.046  49.576  1.00  0.00     0.019 C 
ENDBRANCH   9  12
ENDBRANCH   1   6
BRANCH   4  16
HETATM   16  S1  UNL     1      31.538   5.442  47.968  1.00  0.00    -0.078 SA
BRANCH  16  17
HETATM   17  C11 UNL     1      31.639   3.904  47.014  1.00  0.00     0.121 C 
BRANCH  17  18
HETATM   18  C12 UNL     1      32.926   3.922  46.273  1.00  0.00    -0.052 A 
HETATM   19  C13 UNL     1      33.299   4.564  45.168  1.00  0.00    -0.015 A 
HETATM   20  C14 UNL     1      34.701   4.257  44.819  1.00  0.00     0.054 A 
HETATM   21  C15 UNL     1      35.093   3.327  45.901  1.00  0.00    -0.022 A 
HETATM   22  C16 UNL     1      34.077   3.135  46.735  1.00  0.00     0.004 A 
ENDBRANCH  17  18
ENDBRANCH  16  17
ENDBRANCH   4  16
TORSDOF 5
ENDMDL
MODEL 7
REMARK VINA RESULT:      -7.2      2.662      3.848
REMARK  5 active torsions:
REMARK  status: ('A' for Active; 'I' for Inactive)
REMARK    1  A    between atoms: C2_2  and  C5_5 
REMARK    2  A    between atoms: C8_8  and  C9_9 
REMARK    3  A    between atoms: C10_12  and  S1_13 
REMARK    4  A    between atoms: S1_13  and  C11_14 
REMARK    5  A    between atoms: C11_14  and  C12_15 
ROOT
HETATM    1  C9  UNL     1      25.333   4.469  49.682  1.00  0.00     0.203 A 
HETATM    2  N1  UNL     1      24.193   4.020  49.092  1.00  0.00    -0.120 NA
HETATM    3  N2  UNL     1      23.558   3.251  49.955  1.00  0.00    -0.114 NA
HETATM    4  C10 UNL     1      24.274   3.198  51.092  1.00  0.00     0.231 A 
HETATM    5  O1  UNL     1      25.352   3.953  50.895  1.00  0.00    -0.263 OA
ENDROOT
BRANCH   1   6
HETATM    6  C8  UNL     1      26.283   5.356  49.002  1.00  0.00     0.019 A 
HETATM    7  C7  UNL     1      25.915   6.594  48.518  1.00  0.00     0.016 A 
HETATM    8  C6  UNL     1      26.839   7.383  47.889  1.00  0.00     0.009 A 
HETATM    9  C5  UNL     1      28.144   6.976  47.722  1.00  0.00    -0.051 A 
HETATM   10  C18 UNL     1      28.533   5.724  48.206  1.00  0.00     0.009 A 
HETATM   11  C17 UNL     1      27.591   4.912  48.851  1.00  0.00     0.016 A 
BRANCH   9  12
HETATM   12  C2  UNL     1      29.268   7.696  47.074  1.00  0.00    -0.024 C 
HETATM   13  C1  UNL     1      28.953   8.101  45.650  1.00  0.00     0.019 C 
HETATM   14  C3  UNL     1      30.487   6.792  47.118  1.00  0.00     0.019 C 
HETATM   15  C4  UNL     1      29.618   8.928  47.866  1.00  0.00     0.019 C 
ENDBRANCH   9  12
ENDBRANCH   1   6
BRANCH   4  16
HETATM   16  S1  UNL     1      24.286   2.487  52.743  1.00  0.00    -0.078 SA
BRANCH  16  17
HETATM   17  C11 UNL     1      24.107   0.692  52.563  1.00  0.00     0.121 C 
BRANCH  17  18
HETATM   18  C12 UNL     1      22.894   0.286  53.317  1.00  0.00    -0.052 A 
HETATM   19  C13 UNL     1      21.655   0.776  53.325  1.00  0.00    -0.015 A 
HETATM   20  C14 UNL     1      20.789   0.022  54.254  1.00  0.00     0.054 A 
HETATM   21  C15 UNL     1      21.721  -0.993  54.792  1.00  0.00    -0.022 A 
HETATM   22  C16 UNL     1      22.927  -0.842  54.256  1.00  0.00     0.004 A 
ENDBRANCH  17  18
ENDBRANCH  16  17
ENDBRANCH   4  16
TORSDOF 5
ENDMDL
MODEL 8
REMARK VINA RESULT:      -7.2      3.292      3.884
REMARK  5 active torsions:
REMARK  status: ('A' for Active; 'I' for Inactive)
REMARK    1  A    between atoms: C2_2  and  C5_5 
REMARK    2  A    between atoms: C8_8  and  C9_9 
REMARK    3  A    between atoms: C10_12  and  S1_13 
REMARK    4  A    between atoms: S1_13  and  C11_14 
REMARK    5  A    between atoms: C11_14  and  C12_15 
ROOT
HETATM    1  C9  UNL     1      24.575   4.142  49.615  1.00  0.00     0.203 A 
HETATM    2  N1  UNL     1      23.912   3.232  48.850  1.00  0.00    -0.120 NA
HETATM    3  N2  UNL     1      22.903   2.760  49.557  1.00  0.00    -0.114 NA
HETATM    4  C10 UNL     1      22.908   3.352  50.764  1.00  0.00     0.231 A 
HETATM    5  O1  UNL     1      23.940   4.192  50.768  1.00  0.00    -0.263 OA
ENDROOT
BRANCH   1   6
HETATM    6  C8  UNL     1      25.756   4.868  49.138  1.00  0.00     0.019 A 
HETATM    7  C7  UNL     1      27.000   4.277  49.057  1.00  0.00     0.016 A 
HETATM    8  C6  UNL     1      28.072   4.998  48.606  1.00  0.00     0.009 A 
HETATM    9  C5  UNL     1      27.947   6.315  48.225  1.00  0.00    -0.051 A 
HETATM   10  C18 UNL     1      26.694   6.930  48.301  1.00  0.00     0.009 A 
HETATM   11  C17 UNL     1      25.594   6.195  48.762  1.00  0.00     0.016 A 
BRANCH   9  12
HETATM   12  C2  UNL     1      28.990   7.240  47.715  1.00  0.00    -0.024 C 
HETATM   13  C1  UNL     1      28.622   7.848  46.379  1.00  0.00     0.019 C 
HETATM   14  C3  UNL     1      30.291   6.463  47.612  1.00  0.00     0.019 C 
HETATM   15  C4  UNL     1      29.229   8.348  48.707  1.00  0.00     0.019 C 
ENDBRANCH   9  12
ENDBRANCH   1   6
BRANCH   4  16
HETATM   16  S1  UNL     1      22.032   3.409  52.333  1.00  0.00    -0.078 SA
BRANCH  16  17
HETATM   17  C11 UNL     1      20.874   2.015  52.359  1.00  0.00     0.121 C 
BRANCH  17  18
HETATM   18  C12 UNL     1      21.511   0.920  53.133  1.00  0.00    -0.052 A 
HETATM   19  C13 UNL     1      22.690   0.316  52.999  1.00  0.00    -0.015 A 
HETATM   20  C14 UNL     1      22.873  -0.730  54.026  1.00  0.00     0.054 A 
HETATM   21  C15 UNL     1      21.608  -0.643  54.786  1.00  0.00    -0.022 A 
HETATM   22  C16 UNL     1      20.826   0.301  54.276  1.00  0.00     0.004 A 
ENDBRANCH  17  18
ENDBRANCH  16  17
ENDBRANCH   4  16
TORSDOF 5
ENDMDL
MODEL 9
REMARK VINA RESULT:      -7.1      5.503      7.491
REMARK  5 active torsions:
REMARK  status: ('A' for Active; 'I' for Inactive)
REMARK    1  A    between atoms: C2_2  and  C5_5 
REMARK    2  A    between atoms: C8_8  and  C9_9 
REMARK    3  A    between atoms: C10_12  and  S1_13 
REMARK    4  A    between atoms: S1_13  and  C11_14 
REMARK    5  A    between atoms: C11_14  and  C12_15 
ROOT
HETATM    1  C9  UNL     1      29.816   6.682  47.642  1.00  0.00     0.203 A 
HETATM    2  N1  UNL     1      30.055   7.523  46.600  1.00  0.00    -0.120 NA
HETATM    3  N2  UNL     1      31.362   7.653  46.468  1.00  0.00    -0.114 NA
HETATM    4  C10 UNL     1      31.965   6.908  47.411  1.00  0.00     0.231 A 
HETATM    5  O1  UNL     1      30.994   6.326  48.111  1.00  0.00    -0.263 OA
ENDROOT
BRANCH   1   6
HETATM    6  C8  UNL     1      28.462   6.313  48.068  1.00  0.00     0.019 A 
HETATM    7  C7  UNL     1      27.414   7.209  48.044  1.00  0.00     0.016 A 
HETATM    8  C6  UNL     1      26.169   6.815  48.454  1.00  0.00     0.009 A 
HETATM    9  C5  UNL     1      25.926   5.534  48.895  1.00  0.00    -0.051 A 
HETATM   10  C18 UNL     1      26.977   4.613  48.926  1.00  0.00     0.009 A 
HETATM   11  C17 UNL     1      28.253   5.012  48.507  1.00  0.00     0.016 A 
BRANCH   9  12
HETATM   12  C2  UNL     1      24.651   4.939  49.369  1.00  0.00    -0.024 C 
HETATM   13  C1  UNL     1      24.744   3.440  49.553  1.00  0.00     0.019 C 
HETATM   14  C3  UNL     1      23.570   5.292  48.364  1.00  0.00     0.019 C 
HETATM   15  C4  UNL     1      24.242   5.566  50.677  1.00  0.00     0.019 C 
ENDBRANCH   9  12
ENDBRANCH   1   6
BRANCH   4  16
HETATM   16  S1  UNL     1      33.580   6.431  48.041  1.00  0.00    -0.078 SA
BRANCH  16  17
HETATM   17  C11 UNL     1      34.320   5.296  46.837  1.00  0.00     0.121 C 
BRANCH  17  18
HETATM   18  C12 UNL     1      33.538   4.034  46.874  1.00  0.00    -0.052 A 
HETATM   19  C13 UNL     1      32.465   3.640  46.190  1.00  0.00    -0.015 A 
HETATM   20  C14 UNL     1      32.049   2.280  46.587  1.00  0.00     0.054 A 
HETATM   21  C15 UNL     1      33.053   1.937  47.618  1.00  0.00    -0.022 A 
HETATM   22  C16 UNL     1      33.906   2.941  47.783  1.00  0.00     0.004 A 
ENDBRANCH  17  18
ENDBRANCH  16  17
ENDBRANCH   4  16
TORSDOF 5
ENDMDL
