MODEL 1
REMARK VINA RESULT:      -7.9      0.000      0.000
REMARK  5 active torsions:
REMARK  status: ('A' for Active; 'I' for Inactive)
REMARK    1  A    between atoms: C1_2  and  C15_20 
REMARK    2  A    between atoms: C2_3  and  C3_4 
REMARK    3  A    between atoms: C4_5  and  N1_6 
REMARK    4  A    between atoms: N1_6  and  N2_7 
REMARK    5  A    between atoms: C15_20  and  C16_21 
ROOT
HETATM    1  N1  UNL     1      23.440   3.474  49.915  1.00  0.00    -0.308 N 
HETATM    2  H4  UNL     1      23.590   4.337  49.335  1.00  0.00     0.186 HD
ENDROOT
BRANCH   1   3
HETATM    3  C4  UNL     1      22.821   2.434  49.180  1.00  0.00     0.107 C 
HETATM    4  C3  UNL     1      21.581   2.077  49.454  1.00  0.00     0.021 C 
BRANCH   4   5
HETATM    5  C2  UNL     1      20.698   2.640  50.476  1.00  0.00     0.039 C 
HETATM    6  C1  UNL     1      19.885   2.125  51.362  1.00  0.00     0.098 C 
HETATM    7  F1  UNL     1      19.158   2.875  52.221  1.00  0.00    -0.210 F 
BRANCH   6   8
HETATM    8  C15 UNL     1      19.630   0.679  51.570  1.00  0.00     0.108 C 
BRANCH   8   9
HETATM    9  C16 UNL     1      20.533   0.185  52.658  1.00  0.00    -0.052 A 
HETATM   10  C17 UNL     1      20.406   0.367  54.010  1.00  0.00     0.007 A 
HETATM   11  C18 UNL     1      21.325  -0.153  54.886  1.00  0.00     0.001 A 
HETATM   12  C19 UNL     1      22.410  -0.877  54.442  1.00  0.00     0.000 A 
HETATM   13  C20 UNL     1      22.593  -1.094  53.096  1.00  0.00     0.001 A 
HETATM   14  C21 UNL     1      21.646  -0.552  52.257  1.00  0.00     0.007 A 
ENDBRANCH   8   9
ENDBRANCH   6   8
ENDBRANCH   4   5
ENDBRANCH   1   3
BRANCH   1  15
HETATM   15  N2  UNL     1      23.810   3.416  51.251  1.00  0.00    -0.276 N 
HETATM   16  C5  UNL     1      25.143   3.856  50.865  1.00  0.00     0.221 C 
HETATM   17  N3  UNL     1      26.330   3.314  50.692  1.00  0.00    -0.281 NA
HETATM   18  C6  UNL     1      26.505   1.900  50.912  1.00  0.00     0.180 C 
HETATM   19  C7  UNL     1      27.174   1.679  52.227  1.00  0.00     0.295 C 
HETATM   20  N4  UNL     1      27.152   0.318  52.712  1.00  0.00     0.106 N 
HETATM   21  C8  UNL     1      28.307  -0.178  53.310  1.00  0.00     0.274 C 
HETATM   22  C11 UNL     1      26.076   0.183  53.713  1.00  0.00     0.301 C 
HETATM   23  C9  UNL     1      28.242   0.145  54.774  1.00  0.00     0.033 C 
HETATM   24  C10 UNL     1      26.795   0.449  55.009  1.00  0.00     0.050 C 
HETATM   25  C12 UNL     1      25.177   1.265  53.365  1.00  0.00    -0.069 C 
HETATM   26  C13 UNL     1      24.492   2.109  53.081  1.00  0.00    -0.083 C 
HETATM   27  C14 UNL     1      23.644   3.186  52.703  1.00  0.00     0.243 C 
ENDBRANCH   1  15
TORSDOF 5
ENDMDL
MODEL 2
REMARK VINA RESULT:      -7.6      2.507      6.001
REMARK  5 active torsions:
REMARK  status: ('A' for Active; 'I' for Inactive)
REMARK    1  A    between atoms: C1_2  and  C15_20 
REMARK    2  A    between atoms: C2_3  and  C3_4 
REMARK    3  A    between atoms: C4_5  and  N1_6 
REMARK    4  A    between atoms: N1_6  and  N2_7 
REMARK    5  A    between atoms: C15_20  and  C16_21 
ROOT
HETATM    1  N1  UNL     1      20.764   0.175  52.990  1.00  0.00    -0.308 N 
HETATM    2  H4  UNL     1      20.652  -0.705  52.427  1.00  0.00     0.186 HD
ENDROOT
BRANCH   1   3
HETATM    3  C4  UNL     1      21.144  -0.088  54.328  1.00  0.00     0.107 C 
HETATM    4  C3  UNL     1      22.364  -0.509  54.600  1.00  0.00     0.021 C 
BRANCH   4   5
HETATM    5  C2  UNL     1      23.451  -0.758  53.654  1.00  0.00     0.039 C 
HETATM    6  C1  UNL     1      24.756  -0.738  53.739  1.00  0.00     0.098 C 
HETATM    7  F1  UNL     1      25.569  -1.013  52.693  1.00  0.00    -0.210 F 
BRANCH   6   8
HETATM    8  C15 UNL     1      25.543  -0.422  54.955  1.00  0.00     0.108 C 
BRANCH   8   9
HETATM    9  C16 UNL     1      26.747   0.373  54.553  1.00  0.00    -0.052 A 
HETATM   10  C17 UNL     1      28.067   0.067  54.752  1.00  0.00     0.007 A 
HETATM   11  C18 UNL     1      29.064   0.906  54.322  1.00  0.00     0.001 A 
HETATM   12  C19 UNL     1      28.778   2.088  53.674  1.00  0.00     0.000 A 
HETATM   13  C20 UNL     1      27.471   2.452  53.445  1.00  0.00     0.001 A 
HETATM   14  C21 UNL     1      26.508   1.579  53.895  1.00  0.00     0.007 A 
ENDBRANCH   8   9
ENDBRANCH   6   8
ENDBRANCH   4   5
ENDBRANCH   1   3
BRANCH   1  15
HETATM   15  N2  UNL     1      20.536   1.428  52.441  1.00  0.00    -0.276 N 
HETATM   16  C5  UNL     1      21.131   0.954  51.200  1.00  0.00     0.221 C 
HETATM   17  N3  UNL     1      22.278   1.076  50.566  1.00  0.00    -0.281 NA
HETATM   18  C6  UNL     1      23.330   1.873  51.148  1.00  0.00     0.180 C 
HETATM   19  C7  UNL     1      23.403   3.189  50.448  1.00  0.00     0.295 C 
HETATM   20  N4  UNL     1      24.205   4.195  51.105  1.00  0.00     0.106 N 
HETATM   21  C8  UNL     1      25.021   4.997  50.311  1.00  0.00     0.274 C 
HETATM   22  C11 UNL     1      23.315   5.112  51.843  1.00  0.00     0.301 C 
HETATM   23  C9  UNL     1      24.217   6.188  49.881  1.00  0.00     0.033 C 
HETATM   24  C10 UNL     1      23.069   6.210  50.842  1.00  0.00     0.050 C 
HETATM   25  C12 UNL     1      22.131   4.305  52.058  1.00  0.00    -0.069 C 
HETATM   26  C13 UNL     1      21.221   3.665  52.215  1.00  0.00    -0.083 C 
HETATM   27  C14 UNL     1      20.081   2.835  52.397  1.00  0.00     0.243 C 
ENDBRANCH   1  15
TORSDOF 5
ENDMDL
MODEL 3
REMARK VINA RESULT:      -7.6      4.162      7.310
REMARK  5 active torsions:
REMARK  status: ('A' for Active; 'I' for Inactive)
REMARK    1  A    between atoms: C1_2  and  C15_20 
REMARK    2  A    between atoms: C2_3  and  C3_4 
REMARK    3  A    between atoms: C4_5  and  N1_6 
REMARK    4  A    between atoms: N1_6  and  N2_7 
REMARK    5  A    between atoms: C15_20  and  C16_21 
ROOT
HETATM    1  N1  UNL     1      24.566   5.896  51.012  1.00  0.00    -0.308 N 
HETATM    2  H4  UNL     1      24.858   6.222  51.967  1.00  0.00     0.186 HD
ENDROOT
BRANCH   1   3
HETATM    3  C4  UNL     1      23.815   6.874  50.317  1.00  0.00     0.107 C 
HETATM    4  C3  UNL     1      24.334   8.065  50.083  1.00  0.00     0.021 C 
BRANCH   4   5
HETATM    5  C2  UNL     1      25.661   8.547  50.463  1.00  0.00     0.039 C 
HETATM    6  C1  UNL     1      26.772   8.770  49.809  1.00  0.00     0.098 C 
HETATM    7  F1  UNL     1      27.897   9.231  50.401  1.00  0.00    -0.210 F 
BRANCH   6   8
HETATM    8  C15 UNL     1      26.981   8.564  48.356  1.00  0.00     0.108 C 
BRANCH   8   9
HETATM    9  C16 UNL     1      28.089   7.574  48.168  1.00  0.00    -0.052 A 
HETATM   10  C17 UNL     1      29.372   7.811  47.750  1.00  0.00     0.007 A 
HETATM   11  C18 UNL     1      30.279   6.789  47.625  1.00  0.00     0.001 A 
HETATM   12  C19 UNL     1      29.937   5.486  47.915  1.00  0.00     0.000 A 
HETATM   13  C20 UNL     1      28.664   5.184  48.340  1.00  0.00     0.001 A 
HETATM   14  C21 UNL     1      27.790   6.241  48.448  1.00  0.00     0.007 A 
ENDBRANCH   8   9
ENDBRANCH   6   8
ENDBRANCH   4   5
ENDBRANCH   1   3
BRANCH   1  15
HETATM   15  N2  UNL     1      24.890   4.633  50.540  1.00  0.00    -0.276 N 
HETATM   16  C5  UNL     1      23.694   4.120  51.192  1.00  0.00     0.221 C 
HETATM   17  N3  UNL     1      23.399   3.446  52.284  1.00  0.00    -0.281 NA
HETATM   18  C6  UNL     1      24.457   3.036  53.174  1.00  0.00     0.180 C 
HETATM   19  C7  UNL     1      24.735   1.583  52.981  1.00  0.00     0.295 C 
HETATM   20  N4  UNL     1      25.954   1.100  53.588  1.00  0.00     0.106 N 
HETATM   21  C8  UNL     1      25.919  -0.139  54.221  1.00  0.00     0.274 C 
HETATM   22  C11 UNL     1      27.001   1.007  52.552  1.00  0.00     0.301 C 
HETATM   23  C9  UNL     1      26.236  -1.188  53.197  1.00  0.00     0.033 C 
HETATM   24  C10 UNL     1      26.875  -0.419  52.083  1.00  0.00     0.050 C 
HETATM   25  C12 UNL     1      26.542   1.945  51.547  1.00  0.00    -0.069 C 
HETATM   26  C13 UNL     1      26.171   2.677  50.780  1.00  0.00    -0.083 C 
HETATM   27  C14 UNL     1      25.678   3.606  49.823  1.00  0.00     0.243 C 
ENDBRANCH   1  15
TORSDOF 5
ENDMDL
MODEL 4
REMARK VINA RESULT:      -7.5      2.690      6.101
REMARK  5 active torsions:
REMARK  status: ('A' for Active; 'I' for Inactive)
REMARK    1  A    between atoms: C1_2  and  C15_20 
REMARK    2  A    between atoms: C2_3  and  C3_4 
REMARK    3  A    between atoms: C4_5  and  N1_6 
REMARK    4  A    between atoms: N1_6  and  N2_7 
REMARK    5  A    between atoms: C15_20  and  C16_21 
ROOT
HETATM    1  N1  UNL     1      22.254   1.449  52.744  1.00  0.00    -0.308 N 
HETATM    2  H4  UNL     1      22.936   1.505  53.542  1.00  0.00     0.186 HD
ENDROOT
BRANCH   1   3
HETATM    3  C4  UNL     1      21.875   0.116  52.454  1.00  0.00     0.107 C 
HETATM    4  C3  UNL     1      22.466  -0.889  53.072  1.00  0.00     0.021 C 
BRANCH   4   5
HETATM    5  C2  UNL     1      23.524  -0.817  54.078  1.00  0.00     0.039 C 
HETATM    6  C1  UNL     1      24.805  -0.557  54.037  1.00  0.00     0.098 C 
HETATM    7  F1  UNL     1      25.593  -0.551  55.136  1.00  0.00    -0.210 F 
BRANCH   6   8
HETATM    8  C15 UNL     1      25.587  -0.237  52.819  1.00  0.00     0.108 C 
BRANCH   8   9
HETATM    9  C16 UNL     1      27.001  -0.687  53.026  1.00  0.00    -0.052 A 
HETATM   10  C17 UNL     1      28.081   0.066  53.405  1.00  0.00     0.007 A 
HETATM   11  C18 UNL     1      29.324  -0.497  53.552  1.00  0.00     0.001 A 
HETATM   12  C19 UNL     1      29.535  -1.839  53.326  1.00  0.00     0.000 A 
HETATM   13  C20 UNL     1      28.490  -2.648  52.943  1.00  0.00     0.001 A 
HETATM   14  C21 UNL     1      27.264  -2.038  52.807  1.00  0.00     0.007 A 
ENDBRANCH   8   9
ENDBRANCH   6   8
ENDBRANCH   4   5
ENDBRANCH   1   3
BRANCH   1  15
HETATM   15  N2  UNL     1      21.820   2.582  52.072  1.00  0.00    -0.276 N 
HETATM   16  C5  UNL     1      22.568   2.135  50.906  1.00  0.00     0.221 C 
HETATM   17  N3  UNL     1      23.705   2.430  50.312  1.00  0.00    -0.281 NA
HETATM   18  C6  UNL     1      24.546   3.465  50.861  1.00  0.00     0.180 C 
HETATM   19  C7  UNL     1      24.402   4.707  50.045  1.00  0.00     0.295 C 
HETATM   20  N4  UNL     1      24.953   5.904  50.638  1.00  0.00     0.106 N 
HETATM   21  C8  UNL     1      25.643   6.783  49.808  1.00  0.00     0.274 C 
HETATM   22  C11 UNL     1      23.859   6.683  51.250  1.00  0.00     0.301 C 
HETATM   23  C9  UNL     1      24.649   7.750  49.235  1.00  0.00     0.033 C 
HETATM   24  C10 UNL     1      23.464   7.623  50.141  1.00  0.00     0.050 C 
HETATM   25  C12 UNL     1      22.844   5.677  51.489  1.00  0.00    -0.069 C 
HETATM   26  C13 UNL     1      22.068   4.884  51.667  1.00  0.00    -0.083 C 
HETATM   27  C14 UNL     1      21.103   3.862  51.878  1.00  0.00     0.243 C 
ENDBRANCH   1  15
TORSDOF 5
ENDMDL
MODEL 5
REMARK VINA RESULT:      -7.5      2.182      6.096
REMARK  5 active torsions:
REMARK  status: ('A' for Active; 'I' for Inactive)
REMARK    1  A    between atoms: C1_2  and  C15_20 
REMARK    2  A    between atoms: C2_3  and  C3_4 
REMARK    3  A    between atoms: C4_5  and  N1_6 
REMARK    4  A    between atoms: N1_6  and  N2_7 
REMARK    5  A    between atoms: C15_20  and  C16_21 
ROOT
HETATM    1  N1  UNL     1      25.140   4.329  50.120  1.00  0.00    -0.308 N 
HETATM    2  H4  UNL     1      25.213   5.263  50.596  1.00  0.00     0.186 HD
ENDROOT
BRANCH   1   3
HETATM    3  C4  UNL     1      26.391   3.671  50.037  1.00  0.00     0.107 C 
HETATM    4  C3  UNL     1      26.625   2.598  50.769  1.00  0.00     0.021 C 
BRANCH   4   5
HETATM    5  C2  UNL     1      25.716   1.951  51.714  1.00  0.00     0.039 C 
HETATM    6  C1  UNL     1      25.851   1.465  52.921  1.00  0.00     0.098 C 
HETATM    7  F1  UNL     1      24.831   0.901  53.608  1.00  0.00    -0.210 F 
BRANCH   6   8
HETATM    8  C15 UNL     1      27.102   1.449  53.716  1.00  0.00     0.108 C 
BRANCH   8   9
HETATM    9  C16 UNL     1      27.789   0.136  53.502  1.00  0.00    -0.052 A 
HETATM   10  C17 UNL     1      27.254  -1.030  53.020  1.00  0.00     0.007 A 
HETATM   11  C18 UNL     1      28.021  -2.159  52.880  1.00  0.00     0.001 A 
HETATM   12  C19 UNL     1      29.356  -2.167  53.219  1.00  0.00     0.000 A 
HETATM   13  C20 UNL     1      29.952  -1.027  53.710  1.00  0.00     0.001 A 
HETATM   14  C21 UNL     1      29.142   0.079  53.832  1.00  0.00     0.007 A 
ENDBRANCH   8   9
ENDBRANCH   6   8
ENDBRANCH   4   5
ENDBRANCH   1   3
BRANCH   1  15
HETATM   15  N2  UNL     1      23.935   3.849  49.630  1.00  0.00    -0.276 N 
HETATM   16  C5  UNL     1      23.248   4.646  50.637  1.00  0.00     0.221 C 
HETATM   17  N3  UNL     1      22.659   4.444  51.796  1.00  0.00    -0.281 NA
HETATM   18  C6  UNL     1      22.605   3.111  52.343  1.00  0.00     0.180 C 
HETATM   19  C7  UNL     1      21.237   2.547  52.143  1.00  0.00     0.295 C 
HETATM   20  N4  UNL     1      21.114   1.126  52.375  1.00  0.00     0.106 N 
HETATM   21  C8  UNL     1      19.982   0.672  53.046  1.00  0.00     0.274 C 
HETATM   22  C11 UNL     1      21.136   0.425  51.077  1.00  0.00     0.301 C 
HETATM   23  C9  UNL     1      18.917   0.407  52.023  1.00  0.00     0.033 C 
HETATM   24  C10 UNL     1      19.673   0.319  50.734  1.00  0.00     0.050 C 
HETATM   25  C12 UNL     1      21.823   1.366  50.215  1.00  0.00    -0.069 C 
HETATM   26  C13 UNL     1      22.357   2.108  49.562  1.00  0.00    -0.083 C 
HETATM   27  C14 UNL     1      23.033   3.066  48.757  1.00  0.00     0.243 C 
ENDBRANCH   1  15
TORSDOF 5
ENDMDL
MODEL 6
REMARK VINA RESULT:      -7.2      5.175      7.696
REMARK  5 active torsions:
REMARK  status: ('A' for Active; 'I' for Inactive)
REMARK    1  A    between atoms: C1_2  and  C15_20 
REMARK    2  A    between atoms: C2_3  and  C3_4 
REMARK    3  A    between atoms: C4_5  and  N1_6 
REMARK    4  A    between atoms: N1_6  and  N2_7 
REMARK    5  A    between atoms: C15_20  and  C16_21 
ROOT
HETATM    1  N1  UNL     1      27.061   4.940  49.740  1.00  0.00    -0.308 N 
HETATM    2  H4  UNL     1      27.110   4.989  50.788  1.00  0.00     0.186 HD
ENDROOT
BRANCH   1   3
HETATM    3  C4  UNL     1      26.741   3.640  49.278  1.00  0.00     0.107 C 
HETATM    4  C3  UNL     1      26.186   2.765  50.094  1.00  0.00     0.021 C 
BRANCH   4   5
HETATM    5  C2  UNL     1      25.830   2.959  51.499  1.00  0.00     0.039 C 
HETATM    6  C1  UNL     1      25.672   2.156  52.519  1.00  0.00     0.098 C 
HETATM    7  F1  UNL     1      25.333   2.589  53.755  1.00  0.00    -0.210 F 
BRANCH   6   8
HETATM    8  C15 UNL     1      25.831   0.682  52.496  1.00  0.00     0.108 C 
BRANCH   8   9
HETATM    9  C16 UNL     1      27.225   0.344  52.925  1.00  0.00    -0.052 A 
HETATM   10  C17 UNL     1      28.213   1.198  53.340  1.00  0.00     0.007 A 
HETATM   11  C18 UNL     1      29.451   0.730  53.703  1.00  0.00     0.001 A 
HETATM   12  C19 UNL     1      29.750  -0.614  53.665  1.00  0.00     0.000 A 
HETATM   13  C20 UNL     1      28.800  -1.522  53.258  1.00  0.00     0.001 A 
HETATM   14  C21 UNL     1      27.575  -1.005  52.903  1.00  0.00     0.007 A 
ENDBRANCH   8   9
ENDBRANCH   6   8
ENDBRANCH   4   5
ENDBRANCH   1   3
BRANCH   1  15
HETATM   15  N2  UNL     1      27.307   6.048  48.943  1.00  0.00    -0.276 N 
HETATM   16  C5  UNL     1      28.243   5.243  48.172  1.00  0.00     0.221 C 
HETATM   17  N3  UNL     1      29.548   5.100  48.076  1.00  0.00    -0.281 NA
HETATM   18  C6  UNL     1      30.414   5.900  48.907  1.00  0.00     0.180 C 
HETATM   19  C7  UNL     1      31.001   7.005  48.093  1.00  0.00     0.295 C 
HETATM   20  N4  UNL     1      31.652   8.051  48.848  1.00  0.00     0.106 N 
HETATM   21  C8  UNL     1      32.849   8.561  48.354  1.00  0.00     0.274 C 
HETATM   22  C11 UNL     1      30.732   9.198  48.970  1.00  0.00     0.301 C 
HETATM   23  C9  UNL     1      32.519   9.694  47.428  1.00  0.00     0.033 C 
HETATM   24  C10 UNL     1      31.111  10.053  47.790  1.00  0.00     0.050 C 
HETATM   25  C12 UNL     1      29.431   8.585  48.794  1.00  0.00    -0.069 C 
HETATM   26  C13 UNL     1      28.430   8.092  48.655  1.00  0.00    -0.083 C 
HETATM   27  C14 UNL     1      27.178   7.445  48.472  1.00  0.00     0.243 C 
ENDBRANCH   1  15
TORSDOF 5
ENDMDL
MODEL 7
REMARK VINA RESULT:      -7.2      3.914      6.772
REMARK  5 active torsions:
REMARK  status: ('A' for Active; 'I' for Inactive)
REMARK    1  A    between atoms: C1_2  and  C15_20 
REMARK    2  A    between atoms: C2_3  and  C3_4 
REMARK    3  A    between atoms: C4_5  and  N1_6 
REMARK    4  A    between atoms: N1_6  and  N2_7 
REMARK    5  A    between atoms: C15_20  and  C16_21 
ROOT
HETATM    1  N1  UNL     1      24.011   4.633  49.303  1.00  0.00    -0.308 N 
HETATM    2  H4  UNL     1      23.315   5.387  49.531  1.00  0.00     0.186 HD
ENDROOT
BRANCH   1   3
HETATM    3  C4  UNL     1      23.384   3.414  48.949  1.00  0.00     0.107 C 
HETATM    4  C3  UNL     1      23.218   2.467  49.853  1.00  0.00     0.021 C 
BRANCH   4   5
HETATM    5  C2  UNL     1      23.614   2.503  51.261  1.00  0.00     0.039 C 
HETATM    6  C1  UNL     1      24.748   2.344  51.893  1.00  0.00     0.098 C 
HETATM    7  F1  UNL     1      24.862   2.427  53.238  1.00  0.00    -0.210 F 
BRANCH   6   8
HETATM    8  C15 UNL     1      26.059   2.055  51.265  1.00  0.00     0.108 C 
BRANCH   8   9
HETATM    9  C16 UNL     1      26.792   1.067  52.119  1.00  0.00    -0.052 A 
HETATM   10  C17 UNL     1      26.554  -0.276  52.254  1.00  0.00     0.007 A 
HETATM   11  C18 UNL     1      27.320  -1.054  53.085  1.00  0.00     0.001 A 
HETATM   12  C19 UNL     1      28.357  -0.517  53.816  1.00  0.00     0.000 A 
HETATM   13  C20 UNL     1      28.646   0.825  53.724  1.00  0.00     0.001 A 
HETATM   14  C21 UNL     1      27.850   1.563  52.880  1.00  0.00     0.007 A 
ENDBRANCH   8   9
ENDBRANCH   6   8
ENDBRANCH   4   5
ENDBRANCH   1   3
BRANCH   1  15
HETATM   15  N2  UNL     1      25.378   4.854  49.373  1.00  0.00    -0.276 N 
HETATM   16  C5  UNL     1      25.147   5.696  50.538  1.00  0.00     0.221 C 
HETATM   17  N3  UNL     1      25.101   6.984  50.809  1.00  0.00    -0.281 NA
HETATM   18  C6  UNL     1      25.321   7.941  49.753  1.00  0.00     0.180 C 
HETATM   19  C7  UNL     1      26.700   8.500  49.868  1.00  0.00     0.295 C 
HETATM   20  N4  UNL     1      27.163   9.246  48.721  1.00  0.00     0.106 N 
HETATM   21  C8  UNL     1      27.879  10.417  48.952  1.00  0.00     0.274 C 
HETATM   22  C11 UNL     1      28.037   8.380  47.907  1.00  0.00     0.301 C 
HETATM   23  C9  UNL     1      29.330  10.054  49.066  1.00  0.00     0.033 C 
HETATM   24  C10 UNL     1      29.408   8.693  48.446  1.00  0.00     0.050 C 
HETATM   25  C12 UNL     1      27.605   7.048  48.279  1.00  0.00    -0.069 C 
HETATM   26  C13 UNL     1      27.257   6.023  48.580  1.00  0.00    -0.083 C 
HETATM   27  C14 UNL     1      26.800   4.737  48.981  1.00  0.00     0.243 C 
ENDBRANCH   1  15
TORSDOF 5
ENDMDL
MODEL 8
REMARK VINA RESULT:      -7.2      2.432      5.449
REMARK  5 active torsions:
REMARK  status: ('A' for Active; 'I' for Inactive)
REMARK    1  A    between atoms: C1_2  and  C15_20 
REMARK    2  A    between atoms: C2_3  and  C3_4 
REMARK    3  A    between atoms: C4_5  and  N1_6 
REMARK    4  A    between atoms: N1_6  and  N2_7 
REMARK    5  A    between atoms: C15_20  and  C16_21 
ROOT
HETATM    1  N1  UNL     1      21.962   4.599  49.718  1.00  0.00    -0.308 N 
HETATM    2  H4  UNL     1      21.640   5.171  48.898  1.00  0.00     0.186 HD
ENDROOT
BRANCH   1   3
HETATM    3  C4  UNL     1      22.495   5.401  50.756  1.00  0.00     0.107 C 
HETATM    4  C3  UNL     1      23.753   5.254  51.127  1.00  0.00     0.021 C 
BRANCH   4   5
HETATM    5  C2  UNL     1      24.738   4.320  50.582  1.00  0.00     0.039 C 
HETATM    6  C1  UNL     1      25.357   3.270  51.055  1.00  0.00     0.098 C 
HETATM    7  F1  UNL     1      26.249   2.551  50.335  1.00  0.00    -0.210 F 
BRANCH   6   8
HETATM    8  C15 UNL     1      25.195   2.706  52.416  1.00  0.00     0.108 C 
BRANCH   8   9
HETATM    9  C16 UNL     1      26.337   1.776  52.689  1.00  0.00    -0.052 A 
HETATM   10  C17 UNL     1      27.579   2.082  53.179  1.00  0.00     0.007 A 
HETATM   11  C18 UNL     1      28.526   1.108  53.375  1.00  0.00     0.001 A 
HETATM   12  C19 UNL     1      28.266  -0.214  53.087  1.00  0.00     0.000 A 
HETATM   13  C20 UNL     1      27.037  -0.585  52.592  1.00  0.00     0.001 A 
HETATM   14  C21 UNL     1      26.122   0.426  52.412  1.00  0.00     0.007 A 
ENDBRANCH   8   9
ENDBRANCH   6   8
ENDBRANCH   4   5
ENDBRANCH   1   3
BRANCH   1  15
HETATM   15  N2  UNL     1      21.869   3.215  49.727  1.00  0.00    -0.276 N 
HETATM   16  C5  UNL     1      20.530   3.343  50.285  1.00  0.00     0.221 C 
HETATM   17  N3  UNL     1      19.954   3.217  51.462  1.00  0.00    -0.281 NA
HETATM   18  C6  UNL     1      20.750   2.853  52.607  1.00  0.00     0.180 C 
HETATM   19  C7  UNL     1      20.531   1.413  52.929  1.00  0.00     0.295 C 
HETATM   20  N4  UNL     1      21.473   0.836  53.861  1.00  0.00     0.106 N 
HETATM   21  C8  UNL     1      20.979  -0.030  54.832  1.00  0.00     0.274 C 
HETATM   22  C11 UNL     1      22.491   0.079  53.108  1.00  0.00     0.301 C 
HETATM   23  C9  UNL     1      20.987  -1.416  54.258  1.00  0.00     0.033 C 
HETATM   24  C10 UNL     1      21.920  -1.315  53.092  1.00  0.00     0.050 C 
HETATM   25  C12 UNL     1      22.444   0.694  51.797  1.00  0.00    -0.069 C 
HETATM   26  C13 UNL     1      22.393   1.184  50.787  1.00  0.00    -0.083 C 
HETATM   27  C14 UNL     1      22.307   1.818  49.517  1.00  0.00     0.243 C 
ENDBRANCH   1  15
TORSDOF 5
ENDMDL
MODEL 9
REMARK VINA RESULT:      -7.1      5.354      7.309
REMARK  5 active torsions:
REMARK  status: ('A' for Active; 'I' for Inactive)
REMARK    1  A    between atoms: C1_2  and  C15_20 
REMARK    2  A    between atoms: C2_3  and  C3_4 
REMARK    3  A    between atoms: C4_5  and  N1_6 
REMARK    4  A    between atoms: N1_6  and  N2_7 
REMARK    5  A    between atoms: C15_20  and  C16_21 
ROOT
HETATM    1  N1  UNL     1      26.344   6.218  49.938  1.00  0.00    -0.308 N 
HETATM    2  H4  UNL     1      26.745   5.766  50.798  1.00  0.00     0.186 HD
ENDROOT
BRANCH   1   3
HETATM    3  C4  UNL     1      25.551   5.323  49.181  1.00  0.00     0.107 C 
HETATM    4  C3  UNL     1      24.730   4.488  49.789  1.00  0.00     0.021 C 
BRANCH   4   5
HETATM    5  C2  UNL     1      24.508   4.349  51.228  1.00  0.00     0.039 C 
HETATM    6  C1  UNL     1      24.113   3.368  51.999  1.00  0.00     0.098 C 
HETATM    7  F1  UNL     1      23.985   3.488  53.340  1.00  0.00    -0.210 F 
BRANCH   6   8
HETATM    8  C15 UNL     1      23.751   2.003  51.549  1.00  0.00     0.108 C 
BRANCH   8   9
HETATM    9  C16 UNL     1      24.620   1.016  52.267  1.00  0.00    -0.052 A 
HETATM   10  C17 UNL     1      24.271   0.161  53.279  1.00  0.00     0.007 A 
HETATM   11  C18 UNL     1      25.190  -0.690  53.839  1.00  0.00     0.001 A 
HETATM   12  C19 UNL     1      26.498  -0.720  53.407  1.00  0.00     0.000 A 
HETATM   13  C20 UNL     1      26.910   0.115  52.394  1.00  0.00     0.001 A 
HETATM   14  C21 UNL     1      25.953   0.951  51.866  1.00  0.00     0.007 A 
ENDBRANCH   8   9
ENDBRANCH   6   8
ENDBRANCH   4   5
ENDBRANCH   1   3
BRANCH   1  15
HETATM   15  N2  UNL     1      26.607   7.542  49.617  1.00  0.00    -0.276 N 
HETATM   16  C5  UNL     1      26.981   7.107  48.279  1.00  0.00     0.221 C 
HETATM   17  N3  UNL     1      28.091   6.903  47.601  1.00  0.00    -0.281 NA
HETATM   18  C6  UNL     1      29.365   7.135  48.237  1.00  0.00     0.180 C 
HETATM   19  C7  UNL     1      29.930   8.431  47.758  1.00  0.00     0.295 C 
HETATM   20  N4  UNL     1      31.052   8.935  48.517  1.00  0.00     0.106 N 
HETATM   21  C8  UNL     1      32.111   9.501  47.814  1.00  0.00     0.274 C 
HETATM   22  C11 UNL     1      30.572   9.972  49.451  1.00  0.00     0.301 C 
HETATM   23  C9  UNL     1      31.816  10.962  47.637  1.00  0.00     0.033 C 
HETATM   24  C10 UNL     1      30.760  11.240  48.661  1.00  0.00     0.050 C 
HETATM   25  C12 UNL     1      29.170   9.639  49.607  1.00  0.00    -0.069 C 
HETATM   26  C13 UNL     1      28.085   9.366  49.716  1.00  0.00    -0.083 C 
HETATM   27  C14 UNL     1      26.716   9.001  49.833  1.00  0.00     0.243 C 
ENDBRANCH   1  15
TORSDOF 5
ENDMDL
