MODEL 1
REMARK VINA RESULT:      -8.4      0.000      0.000
REMARK  4 active torsions:
REMARK  status: ('A' for Active; 'I' for Inactive)
REMARK    1  A    between atoms: O1_2  and  C2_3 
REMARK    2  A    between atoms: C4_5  and  O2_6 
REMARK    3  A    between atoms: C9_12  and  N2_13 
REMARK    4  A    between atoms: N2_13  and  C10_14 
ROOT
HETATM    1  C2  UNL     1      16.749   0.559  51.789  1.00  0.00     0.070 C 
HETATM    2  C3  UNL     1      16.911   1.699  51.098  1.00  0.00     0.045 C 
HETATM    3  C4  UNL     1      18.121   2.533  50.895  1.00  0.00     0.167 C 
HETATM    4  C5  UNL     1      19.374   1.793  50.791  1.00  0.00     0.020 C 
HETATM    5  C6  UNL     1      19.911   0.671  51.328  1.00  0.00    -0.007 C 
HETATM    6  C7  UNL     1      21.268   0.486  50.769  1.00  0.00     0.161 C 
HETATM    7  N1  UNL     1      22.387   0.603  51.681  1.00  0.00    -0.375 N 
HETATM    8  C8  UNL     1      22.585  -0.125  52.925  1.00  0.00     0.150 A 
HETATM    9  C9  UNL     1      23.755  -0.055  53.541  1.00  0.00     0.166 A 
HETATM   10  N3  UNL     1      23.906  -0.762  54.739  1.00  0.00    -0.221 NA
HETATM   11  C16 UNL     1      23.094  -1.493  55.377  1.00  0.00     0.246 A 
HETATM   12  N4  UNL     1      21.707  -1.842  55.066  1.00  0.00    -0.188 NA
HETATM   13  S1  UNL     1      21.263  -1.140  53.693  1.00  0.00     0.096 SA
HETATM   14  O3  UNL     1      19.562  -0.978  53.288  1.00  0.00    -0.263 OA
HETATM   15  C17 UNL     1      19.049  -0.080  52.295  1.00  0.00     0.096 C 
HETATM   16  C18 UNL     1      17.753  -0.178  52.543  1.00  0.00     0.075 C 
HETATM   17  H10 UNL     1      23.218   1.263  51.520  1.00  0.00     0.160 HD
ENDROOT
BRANCH   9  18
HETATM   18  N2  UNL     1      24.725   0.747  52.899  1.00  0.00    -0.339 N 
HETATM   19  H11 UNL     1      24.242   1.287  52.119  1.00  0.00     0.167 HD
BRANCH  18  20
HETATM   20  C10 UNL     1      26.105   0.918  53.125  1.00  0.00     0.035 A 
HETATM   21  C11 UNL     1      26.632   2.173  53.331  1.00  0.00     0.029 A 
HETATM   22  C12 UNL     1      27.996   2.249  53.545  1.00  0.00     0.004 A 
HETATM   23  C13 UNL     1      28.838   1.157  53.560  1.00  0.00     0.019 A 
HETATM   24  C14 UNL     1      28.264  -0.083  53.348  1.00  0.00     0.013 A 
HETATM   25 BR1  UNL     1      29.446  -1.575  53.374  1.00  0.00    -0.051 Br
HETATM   26  C15 UNL     1      26.915  -0.201  53.133  1.00  0.00     0.048 A 
ENDBRANCH  18  20
ENDBRANCH   9  18
BRANCH   3  27
HETATM   27  O2  UNL     1      18.121   3.513  51.874  1.00  0.00    -0.388 OA
HETATM   28  H6  UNL     1      17.515   4.240  51.520  1.00  0.00     0.210 HD
ENDBRANCH   3  27
BRANCH   1  29
HETATM   29  O1  UNL     1      15.485  -0.014  51.808  1.00  0.00    -0.356 OA
HETATM   30  C1  UNL     1      15.220  -1.383  51.798  1.00  0.00     0.210 C 
ENDBRANCH   1  29
TORSDOF 4
ENDMDL
MODEL 2
REMARK VINA RESULT:      -8.4      6.183      8.704
REMARK  4 active torsions:
REMARK  status: ('A' for Active; 'I' for Inactive)
REMARK    1  A    between atoms: O1_2  and  C2_3 
REMARK    2  A    between atoms: C4_5  and  O2_6 
REMARK    3  A    between atoms: C9_12  and  N2_13 
REMARK    4  A    between atoms: N2_13  and  C10_14 
ROOT
HETATM    1  C2  UNL     1      26.497   8.230  46.798  1.00  0.00     0.070 C 
HETATM    2  C3  UNL     1      27.809   8.255  47.083  1.00  0.00     0.045 C 
HETATM    3  C4  UNL     1      28.567   7.586  48.168  1.00  0.00     0.167 C 
HETATM    4  C5  UNL     1      28.079   6.263  48.542  1.00  0.00     0.020 C 
HETATM    5  C6  UNL     1      26.881   5.636  48.629  1.00  0.00    -0.007 C 
HETATM    6  C7  UNL     1      27.110   4.249  49.089  1.00  0.00     0.161 C 
HETATM    7  N1  UNL     1      26.594   3.886  50.393  1.00  0.00    -0.375 N 
HETATM    8  C8  UNL     1      25.226   4.028  50.866  1.00  0.00     0.150 A 
HETATM    9  C9  UNL     1      24.869   3.461  52.009  1.00  0.00     0.166 A 
HETATM   10  N3  UNL     1      23.547   3.625  52.436  1.00  0.00    -0.221 NA
HETATM   11  C16 UNL     1      22.578   4.246  51.909  1.00  0.00     0.246 A 
HETATM   12  N4  UNL     1      22.523   5.006  50.660  1.00  0.00    -0.188 NA
HETATM   13  S1  UNL     1      23.957   4.979  49.941  1.00  0.00     0.096 SA
HETATM   14  O3  UNL     1      24.349   6.152  48.694  1.00  0.00    -0.263 OA
HETATM   15  C17 UNL     1      25.680   6.445  48.248  1.00  0.00     0.096 C 
HETATM   16  C18 UNL     1      25.443   7.514  47.506  1.00  0.00     0.075 C 
HETATM   17  H10 UNL     1      27.195   3.452  51.170  1.00  0.00     0.160 HD
ENDROOT
BRANCH   9  18
HETATM   18  N2  UNL     1      25.895   2.749  52.672  1.00  0.00    -0.339 N 
HETATM   19  H11 UNL     1      26.555   3.457  53.112  1.00  0.00     0.167 HD
BRANCH  18  20
HETATM   20  C10 UNL     1      26.141   1.370  52.818  1.00  0.00     0.035 A 
HETATM   21  C11 UNL     1      25.107   0.463  52.761  1.00  0.00     0.029 A 
HETATM   22  C12 UNL     1      25.438  -0.870  52.914  1.00  0.00     0.004 A 
HETATM   23  C13 UNL     1      26.722  -1.330  53.119  1.00  0.00     0.019 A 
HETATM   24  C14 UNL     1      27.728  -0.383  53.170  1.00  0.00     0.013 A 
HETATM   25 BR1  UNL     1      29.492  -1.039  53.453  1.00  0.00    -0.051 Br
HETATM   26  C15 UNL     1      27.441   0.950  53.021  1.00  0.00     0.048 A 
ENDBRANCH  18  20
ENDBRANCH   9  18
BRANCH   3  27
HETATM   27  O2  UNL     1      28.657   8.477  49.225  1.00  0.00    -0.388 OA
HETATM   28  H6  UNL     1      28.636   9.393  48.800  1.00  0.00     0.210 HD
ENDBRANCH   3  27
BRANCH   1  29
HETATM   29  O1  UNL     1      26.055   8.962  45.705  1.00  0.00    -0.356 OA
HETATM   30  C1  UNL     1      26.591   8.894  44.420  1.00  0.00     0.210 C 
ENDBRANCH   1  29
TORSDOF 4
ENDMDL
MODEL 3
REMARK VINA RESULT:      -8.4      5.144      7.076
REMARK  4 active torsions:
REMARK  status: ('A' for Active; 'I' for Inactive)
REMARK    1  A    between atoms: O1_2  and  C2_3 
REMARK    2  A    between atoms: C4_5  and  O2_6 
REMARK    3  A    between atoms: C9_12  and  N2_13 
REMARK    4  A    between atoms: N2_13  and  C10_14 
ROOT
HETATM    1  C2  UNL     1      22.883  -0.710  53.465  1.00  0.00     0.070 C 
HETATM    2  C3  UNL     1      24.100  -0.680  54.033  1.00  0.00     0.045 C 
HETATM    3  C4  UNL     1      25.254   0.218  53.781  1.00  0.00     0.167 C 
HETATM    4  C5  UNL     1      24.907   1.596  53.451  1.00  0.00     0.020 C 
HETATM    5  C6  UNL     1      23.920   2.237  52.780  1.00  0.00    -0.007 C 
HETATM    6  C7  UNL     1      24.188   3.691  52.829  1.00  0.00     0.161 C 
HETATM    7  N1  UNL     1      24.496   4.354  51.579  1.00  0.00    -0.375 N 
HETATM    8  C8  UNL     1      23.704   4.339  50.359  1.00  0.00     0.150 A 
HETATM    9  C9  UNL     1      24.018   5.161  49.368  1.00  0.00     0.166 A 
HETATM   10  N3  UNL     1      23.238   5.114  48.208  1.00  0.00    -0.221 NA
HETATM   11  C16 UNL     1      22.239   4.397  47.910  1.00  0.00     0.246 A 
HETATM   12  N4  UNL     1      21.561   3.365  48.697  1.00  0.00    -0.188 NA
HETATM   13  S1  UNL     1      22.276   3.210  50.124  1.00  0.00     0.096 SA
HETATM   14  O3  UNL     1      22.011   1.774  51.100  1.00  0.00    -0.263 OA
HETATM   15  C17 UNL     1      22.847   1.373  52.193  1.00  0.00     0.096 C 
HETATM   16  C18 UNL     1      22.365   0.162  52.419  1.00  0.00     0.075 C 
HETATM   17  H10 UNL     1      25.375   4.952  51.424  1.00  0.00     0.160 HD
ENDROOT
BRANCH   9  18
HETATM   18  N2  UNL     1      25.130   5.999  49.613  1.00  0.00    -0.339 N 
HETATM   19  H11 UNL     1      24.872   6.666  50.400  1.00  0.00     0.167 HD
BRANCH  18  20
HETATM   20  C10 UNL     1      26.406   6.067  49.020  1.00  0.00     0.035 A 
HETATM   21  C11 UNL     1      27.210   4.952  48.957  1.00  0.00     0.029 A 
HETATM   22  C12 UNL     1      28.447   5.107  48.359  1.00  0.00     0.004 A 
HETATM   23  C13 UNL     1      28.907   6.297  47.834  1.00  0.00     0.019 A 
HETATM   24  C14 UNL     1      28.065   7.390  47.920  1.00  0.00     0.013 A 
HETATM   25 BR1  UNL     1      28.721   9.021  47.189  1.00  0.00    -0.051 Br
HETATM   26  C15 UNL     1      26.830   7.277  48.505  1.00  0.00     0.048 A 
ENDBRANCH  18  20
ENDBRANCH   9  18
BRANCH   3  27
HETATM   27  O2  UNL     1      26.067  -0.402  52.847  1.00  0.00    -0.388 OA
HETATM   28  H6  UNL     1      26.876   0.198  52.761  1.00  0.00     0.210 HD
ENDBRANCH   3  27
BRANCH   1  29
HETATM   29  O1  UNL     1      21.985  -1.673  53.903  1.00  0.00    -0.356 OA
HETATM   30  C1  UNL     1      20.643  -1.445  54.207  1.00  0.00     0.210 C 
ENDBRANCH   1  29
TORSDOF 4
ENDMDL
MODEL 4
REMARK VINA RESULT:      -8.3      6.584      9.228
REMARK  4 active torsions:
REMARK  status: ('A' for Active; 'I' for Inactive)
REMARK    1  A    between atoms: O1_2  and  C2_3 
REMARK    2  A    between atoms: C4_5  and  O2_6 
REMARK    3  A    between atoms: C9_12  and  N2_13 
REMARK    4  A    between atoms: N2_13  and  C10_14 
ROOT
HETATM    1  C2  UNL     1      27.198   8.279  46.677  1.00  0.00     0.070 C 
HETATM    2  C3  UNL     1      28.463   8.043  47.060  1.00  0.00     0.045 C 
HETATM    3  C4  UNL     1      28.987   7.279  48.218  1.00  0.00     0.167 C 
HETATM    4  C5  UNL     1      28.207   6.103  48.590  1.00  0.00     0.020 C 
HETATM    5  C6  UNL     1      26.900   5.743  48.602  1.00  0.00    -0.007 C 
HETATM    6  C7  UNL     1      26.800   4.360  49.117  1.00  0.00     0.161 C 
HETATM    7  N1  UNL     1      26.130   4.168  50.387  1.00  0.00    -0.375 N 
HETATM    8  C8  UNL     1      24.794   4.612  50.750  1.00  0.00     0.150 A 
HETATM    9  C9  UNL     1      24.248   4.181  51.877  1.00  0.00     0.166 A 
HETATM   10  N3  UNL     1      22.964   4.635  52.198  1.00  0.00    -0.221 NA
HETATM   11  C16 UNL     1      22.186   5.419  51.581  1.00  0.00     0.246 A 
HETATM   12  N4  UNL     1      22.378   6.121  50.311  1.00  0.00    -0.188 NA
HETATM   13  S1  UNL     1      23.820   5.765  49.705  1.00  0.00     0.096 SA
HETATM   14  O3  UNL     1      24.535   6.776  48.459  1.00  0.00    -0.263 OA
HETATM   15  C17 UNL     1      25.926   6.766  48.108  1.00  0.00     0.096 C 
HETATM   16  C18 UNL     1      25.971   7.829  47.321  1.00  0.00     0.075 C 
HETATM   17  H10 UNL     1      26.572   3.653  51.220  1.00  0.00     0.160 HD
ENDROOT
BRANCH   9  18
HETATM   18  N2  UNL     1      25.053   3.301  52.636  1.00  0.00    -0.339 N 
HETATM   19  H11 UNL     1      25.786   3.881  53.144  1.00  0.00     0.167 HD
BRANCH  18  20
HETATM   20  C10 UNL     1      25.022   1.903  52.800  1.00  0.00     0.035 A 
HETATM   21  C11 UNL     1      26.144   1.143  52.557  1.00  0.00     0.029 A 
HETATM   22  C12 UNL     1      26.025  -0.222  52.743  1.00  0.00     0.004 A 
HETATM   23  C13 UNL     1      24.865  -0.849  53.150  1.00  0.00     0.019 A 
HETATM   24  C14 UNL     1      23.764  -0.046  53.381  1.00  0.00     0.013 A 
HETATM   25 BR1  UNL     1      22.175  -0.932  53.941  1.00  0.00    -0.051 Br
HETATM   26  C15 UNL     1      23.841   1.312  53.209  1.00  0.00     0.048 A 
ENDBRANCH  18  20
ENDBRANCH   9  18
BRANCH   3  27
HETATM   27  O2  UNL     1      29.189   8.176  49.254  1.00  0.00    -0.388 OA
HETATM   28  H6  UNL     1      28.482   8.887  49.128  1.00  0.00     0.210 HD
ENDBRANCH   3  27
BRANCH   1  29
HETATM   29  O1  UNL     1      26.996   9.039  45.533  1.00  0.00    -0.356 OA
HETATM   30  C1  UNL     1      26.699   8.530  44.269  1.00  0.00     0.210 C 
ENDBRANCH   1  29
TORSDOF 4
ENDMDL
MODEL 5
REMARK VINA RESULT:      -8.0      4.788      7.841
REMARK  4 active torsions:
REMARK  status: ('A' for Active; 'I' for Inactive)
REMARK    1  A    between atoms: O1_2  and  C2_3 
REMARK    2  A    between atoms: C4_5  and  O2_6 
REMARK    3  A    between atoms: C9_12  and  N2_13 
REMARK    4  A    between atoms: N2_13  and  C10_14 
ROOT
HETATM    1  C2  UNL     1      26.373   5.301  48.828  1.00  0.00     0.070 C 
HETATM    2  C3  UNL     1      25.166   5.872  48.685  1.00  0.00     0.045 C 
HETATM    3  C4  UNL     1      23.845   5.466  49.226  1.00  0.00     0.167 C 
HETATM    4  C5  UNL     1      23.876   4.868  50.556  1.00  0.00     0.020 C 
HETATM    5  C6  UNL     1      24.710   4.069  51.265  1.00  0.00    -0.007 C 
HETATM    6  C7  UNL     1      24.114   3.837  52.599  1.00  0.00     0.161 C 
HETATM    7  N1  UNL     1      23.700   2.486  52.918  1.00  0.00    -0.375 N 
HETATM    8  C8  UNL     1      24.510   1.280  52.850  1.00  0.00     0.150 A 
HETATM    9  C9  UNL     1      24.047   0.154  53.370  1.00  0.00     0.166 A 
HETATM   10  N3  UNL     1      24.851  -0.988  53.280  1.00  0.00    -0.221 NA
HETATM   11  C16 UNL     1      25.997  -1.154  52.769  1.00  0.00     0.246 A 
HETATM   12  N4  UNL     1      26.869  -0.192  52.094  1.00  0.00    -0.188 NA
HETATM   13  S1  UNL     1      26.166   1.249  52.058  1.00  0.00     0.096 SA
HETATM   14  O3  UNL     1      26.724   2.483  50.939  1.00  0.00    -0.263 OA
HETATM   15  C17 UNL     1      25.969   3.646  50.575  1.00  0.00     0.096 C 
HETATM   16  C18 UNL     1      26.709   4.097  49.576  1.00  0.00     0.075 C 
HETATM   17  H10 UNL     1      22.712   2.232  53.255  1.00  0.00     0.160 HD
ENDROOT
BRANCH   9  18
HETATM   18  N2  UNL     1      22.765   0.247  53.959  1.00  0.00    -0.339 N 
HETATM   19  H11 UNL     1      22.881   0.659  54.933  1.00  0.00     0.167 HD
BRANCH  18  20
HETATM   20  C10 UNL     1      21.484  -0.094  53.484  1.00  0.00     0.035 A 
HETATM   21  C11 UNL     1      20.723  -1.039  54.134  1.00  0.00     0.029 A 
HETATM   22  C12 UNL     1      19.477  -1.312  53.600  1.00  0.00     0.004 A 
HETATM   23  C13 UNL     1      18.969  -0.700  52.473  1.00  0.00     0.019 A 
HETATM   24  C14 UNL     1      19.769   0.242  51.853  1.00  0.00     0.013 A 
HETATM   25 BR1  UNL     1      19.046   1.073  50.300  1.00  0.00    -0.051 Br
HETATM   26  C15 UNL     1      21.010   0.542  52.352  1.00  0.00     0.048 A 
ENDBRANCH  18  20
ENDBRANCH   9  18
BRANCH   3  27
HETATM   27  O2  UNL     1      23.224   4.684  48.266  1.00  0.00    -0.388 OA
HETATM   28  H6  UNL     1      23.419   5.141  47.386  1.00  0.00     0.210 HD
ENDBRANCH   3  27
BRANCH   1  29
HETATM   29  O1  UNL     1      27.455   5.905  48.201  1.00  0.00    -0.356 OA
HETATM   30  C1  UNL     1      28.783   5.497  48.316  1.00  0.00     0.210 C 
ENDBRANCH   1  29
TORSDOF 4
ENDMDL
MODEL 6
REMARK VINA RESULT:      -7.9      8.017     11.463
REMARK  4 active torsions:
REMARK  status: ('A' for Active; 'I' for Inactive)
REMARK    1  A    between atoms: O1_2  and  C2_3 
REMARK    2  A    between atoms: C4_5  and  O2_6 
REMARK    3  A    between atoms: C9_12  and  N2_13 
REMARK    4  A    between atoms: N2_13  and  C10_14 
ROOT
HETATM    1  C2  UNL     1      30.165   9.698  47.594  1.00  0.00     0.070 C 
HETATM    2  C3  UNL     1      31.157   8.861  47.939  1.00  0.00     0.045 C 
HETATM    3  C4  UNL     1      31.123   7.615  48.744  1.00  0.00     0.167 C 
HETATM    4  C5  UNL     1      29.923   6.802  48.579  1.00  0.00     0.020 C 
HETATM    5  C6  UNL     1      28.602   7.016  48.365  1.00  0.00    -0.007 C 
HETATM    6  C7  UNL     1      27.920   5.705  48.297  1.00  0.00     0.161 C 
HETATM    7  N1  UNL     1      26.972   5.392  49.346  1.00  0.00    -0.375 N 
HETATM    8  C8  UNL     1      25.829   6.189  49.763  1.00  0.00     0.150 A 
HETATM    9  C9  UNL     1      24.941   5.668  50.597  1.00  0.00     0.166 A 
HETATM   10  N3  UNL     1      23.859   6.466  50.981  1.00  0.00    -0.221 NA
HETATM   11  C16 UNL     1      23.552   7.653  50.666  1.00  0.00     0.246 A 
HETATM   12  N4  UNL     1      24.242   8.593  49.782  1.00  0.00    -0.188 NA
HETATM   13  S1  UNL     1      25.563   7.909  49.183  1.00  0.00     0.096 SA
HETATM   14  O3  UNL     1      26.832   8.897  48.476  1.00  0.00    -0.263 OA
HETATM   15  C17 UNL     1      28.173   8.445  48.241  1.00  0.00     0.096 C 
HETATM   16  C18 UNL     1      28.751   9.594  47.931  1.00  0.00     0.075 C 
HETATM   17  H10 UNL     1      27.020   4.500  49.942  1.00  0.00     0.160 HD
ENDROOT
BRANCH   9  18
HETATM   18  N2  UNL     1      25.209   4.342  51.008  1.00  0.00    -0.339 N 
HETATM   19  H11 UNL     1      26.261   4.242  51.129  1.00  0.00     0.167 HD
BRANCH  18  20
HETATM   20  C10 UNL     1      24.362   3.245  51.257  1.00  0.00     0.035 A 
HETATM   21  C11 UNL     1      24.389   2.599  52.472  1.00  0.00     0.029 A 
HETATM   22  C12 UNL     1      23.525   1.531  52.630  1.00  0.00     0.004 A 
HETATM   23  C13 UNL     1      22.656   1.089  51.654  1.00  0.00     0.019 A 
HETATM   24  C14 UNL     1      22.665   1.767  50.450  1.00  0.00     0.013 A 
HETATM   25 BR1  UNL     1      21.458   1.139  49.118  1.00  0.00    -0.051 Br
HETATM   26  C15 UNL     1      23.506   2.832  50.253  1.00  0.00     0.048 A 
ENDBRANCH  18  20
ENDBRANCH   9  18
BRANCH   3  27
HETATM   27  O2  UNL     1      31.400   7.959  50.057  1.00  0.00    -0.388 OA
HETATM   28  H6  UNL     1      31.274   7.107  50.585  1.00  0.00     0.210 HD
ENDBRANCH   3  27
BRANCH   1  29
HETATM   29  O1  UNL     1      30.488  10.805  46.822  1.00  0.00    -0.356 OA
HETATM   30  C1  UNL     1      31.782  11.206  46.490  1.00  0.00     0.210 C 
ENDBRANCH   1  29
TORSDOF 4
ENDMDL
MODEL 7
REMARK VINA RESULT:      -7.7      4.499      7.918
REMARK  4 active torsions:
REMARK  status: ('A' for Active; 'I' for Inactive)
REMARK    1  A    between atoms: O1_2  and  C2_3 
REMARK    2  A    between atoms: C4_5  and  O2_6 
REMARK    3  A    between atoms: C9_12  and  N2_13 
REMARK    4  A    between atoms: N2_13  and  C10_14 
ROOT
HETATM    1  C2  UNL     1      24.489   3.545  49.728  1.00  0.00     0.070 C 
HETATM    2  C3  UNL     1      23.511   3.882  48.872  1.00  0.00     0.045 C 
HETATM    3  C4  UNL     1      22.100   3.429  48.802  1.00  0.00     0.167 C 
HETATM    4  C5  UNL     1      21.465   3.177  50.091  1.00  0.00     0.020 C 
HETATM    5  C6  UNL     1      21.837   2.702  51.304  1.00  0.00    -0.007 C 
HETATM    6  C7  UNL     1      20.655   2.711  52.194  1.00  0.00     0.161 C 
HETATM    7  N1  UNL     1      20.147   1.430  52.639  1.00  0.00    -0.375 N 
HETATM    8  C8  UNL     1      20.891   0.375  53.309  1.00  0.00     0.150 A 
HETATM    9  C9  UNL     1      20.238  -0.650  53.835  1.00  0.00     0.166 A 
HETATM   10  N3  UNL     1      20.987  -1.649  54.465  1.00  0.00    -0.221 NA
HETATM   11  C16 UNL     1      22.236  -1.764  54.636  1.00  0.00     0.246 A 
HETATM   12  N4  UNL     1      23.322  -0.874  54.223  1.00  0.00    -0.188 NA
HETATM   13  S1  UNL     1      22.721   0.398  53.452  1.00  0.00     0.096 SA
HETATM   14  O3  UNL     1      23.756   1.396  52.443  1.00  0.00    -0.263 OA
HETATM   15  C17 UNL     1      23.276   2.315  51.452  1.00  0.00     0.096 C 
HETATM   16  C18 UNL     1      24.414   2.617  50.849  1.00  0.00     0.075 C 
HETATM   17  H10 UNL     1      19.125   1.122  52.518  1.00  0.00     0.160 HD
ENDROOT
BRANCH   9  18
HETATM   18  N2  UNL     1      18.833  -0.607  53.685  1.00  0.00    -0.339 N 
HETATM   19  H11 UNL     1      18.515   0.395  53.845  1.00  0.00     0.167 HD
BRANCH  18  20
HETATM   20  C10 UNL     1      17.888  -1.607  53.382  1.00  0.00     0.035 A 
HETATM   21  C11 UNL     1      18.013  -2.874  53.905  1.00  0.00     0.029 A 
HETATM   22  C12 UNL     1      17.041  -3.792  53.555  1.00  0.00     0.004 A 
HETATM   23  C13 UNL     1      15.975  -3.512  52.727  1.00  0.00     0.019 A 
HETATM   24  C14 UNL     1      15.890  -2.226  52.225  1.00  0.00     0.013 A 
HETATM   25 BR1  UNL     1      14.410  -1.862  51.083  1.00  0.00    -0.051 Br
HETATM   26  C15 UNL     1      16.833  -1.286  52.548  1.00  0.00     0.048 A 
ENDBRANCH  18  20
ENDBRANCH   9  18
BRANCH   3  27
HETATM   27  O2  UNL     1      22.049   2.357  47.925  1.00  0.00    -0.388 OA
HETATM   28  H6  UNL     1      21.997   1.537  48.513  1.00  0.00     0.210 HD
ENDBRANCH   3  27
BRANCH   1  29
HETATM   29  O1  UNL     1      25.735   4.133  49.556  1.00  0.00    -0.356 OA
HETATM   30  C1  UNL     1      25.956   5.444  49.134  1.00  0.00     0.210 C 
ENDBRANCH   1  29
TORSDOF 4
ENDMDL
MODEL 8
REMARK VINA RESULT:      -7.6      4.231      5.222
REMARK  4 active torsions:
REMARK  status: ('A' for Active; 'I' for Inactive)
REMARK    1  A    between atoms: O1_2  and  C2_3 
REMARK    2  A    between atoms: C4_5  and  O2_6 
REMARK    3  A    between atoms: C9_12  and  N2_13 
REMARK    4  A    between atoms: N2_13  and  C10_14 
ROOT
HETATM    1  C2  UNL     1      19.862   0.283  52.700  1.00  0.00     0.070 C 
HETATM    2  C3  UNL     1      19.054   1.184  52.118  1.00  0.00     0.045 C 
HETATM    3  C4  UNL     1      19.381   2.406  51.343  1.00  0.00     0.167 C 
HETATM    4  C5  UNL     1      20.577   2.313  50.513  1.00  0.00     0.020 C 
HETATM    5  C6  UNL     1      21.789   1.710  50.584  1.00  0.00    -0.007 C 
HETATM    6  C7  UNL     1      22.549   2.040  49.359  1.00  0.00     0.161 C 
HETATM    7  N1  UNL     1      23.737   2.854  49.510  1.00  0.00    -0.375 N 
HETATM    8  C8  UNL     1      24.872   2.597  50.384  1.00  0.00     0.150 A 
HETATM    9  C9  UNL     1      25.970   3.327  50.257  1.00  0.00     0.166 A 
HETATM   10  N3  UNL     1      27.038   3.056  51.119  1.00  0.00    -0.221 NA
HETATM   11  C16 UNL     1      27.159   2.202  52.044  1.00  0.00     0.246 A 
HETATM   12  N4  UNL     1      26.204   1.201  52.523  1.00  0.00    -0.188 NA
HETATM   13  S1  UNL     1      24.845   1.295  51.677  1.00  0.00     0.096 SA
HETATM   14  O3  UNL     1      23.365   0.572  52.288  1.00  0.00    -0.263 OA
HETATM   15  C17 UNL     1      22.052   0.890  51.809  1.00  0.00     0.096 C 
HETATM   16  C18 UNL     1      21.319   0.273  52.722  1.00  0.00     0.075 C 
HETATM   17  H10 UNL     1      23.907   3.764  48.966  1.00  0.00     0.160 HD
ENDROOT
BRANCH   9  18
HETATM   18  N2  UNL     1      25.922   4.314  49.246  1.00  0.00    -0.339 N 
HETATM   19  H11 UNL     1      24.987   4.227  48.746  1.00  0.00     0.167 HD
BRANCH  18  20
HETATM   20  C10 UNL     1      26.845   5.301  48.849  1.00  0.00     0.035 A 
HETATM   21  C11 UNL     1      26.465   6.620  48.756  1.00  0.00     0.029 A 
HETATM   22  C12 UNL     1      27.435   7.522  48.358  1.00  0.00     0.004 A 
HETATM   23  C13 UNL     1      28.735   7.176  48.056  1.00  0.00     0.019 A 
HETATM   24  C14 UNL     1      29.071   5.839  48.163  1.00  0.00     0.013 A 
HETATM   25 BR1  UNL     1      30.870   5.384  47.740  1.00  0.00    -0.051 Br
HETATM   26  C15 UNL     1      28.138   4.913  48.554  1.00  0.00     0.048 A 
ENDBRANCH  18  20
ENDBRANCH   9  18
BRANCH   3  27
HETATM   27  O2  UNL     1      19.386   3.472  52.228  1.00  0.00    -0.388 OA
HETATM   28  H6  UNL     1      20.230   3.360  52.771  1.00  0.00     0.210 HD
ENDBRANCH   3  27
BRANCH   1  29
HETATM   29  O1  UNL     1      19.274  -0.780  53.371  1.00  0.00    -0.356 OA
HETATM   30  C1  UNL     1      19.948  -1.698  54.175  1.00  0.00     0.210 C 
ENDBRANCH   1  29
TORSDOF 4
ENDMDL
MODEL 9
REMARK VINA RESULT:      -7.6      3.946      4.592
REMARK  4 active torsions:
REMARK  status: ('A' for Active; 'I' for Inactive)
REMARK    1  A    between atoms: O1_2  and  C2_3 
REMARK    2  A    between atoms: C4_5  and  O2_6 
REMARK    3  A    between atoms: C9_12  and  N2_13 
REMARK    4  A    between atoms: N2_13  and  C10_14 
ROOT
HETATM    1  C2  UNL     1      18.174  -0.052  51.944  1.00  0.00     0.070 C 
HETATM    2  C3  UNL     1      17.472   0.960  51.409  1.00  0.00     0.045 C 
HETATM    3  C4  UNL     1      17.917   2.301  50.954  1.00  0.00     0.167 C 
HETATM    4  C5  UNL     1      19.244   2.342  50.352  1.00  0.00     0.020 C 
HETATM    5  C6  UNL     1      20.432   1.712  50.523  1.00  0.00    -0.007 C 
HETATM    6  C7  UNL     1      21.396   2.254  49.541  1.00  0.00     0.161 C 
HETATM    7  N1  UNL     1      22.526   2.999  50.058  1.00  0.00    -0.375 N 
HETATM    8  C8  UNL     1      23.487   2.556  51.056  1.00  0.00     0.150 A 
HETATM    9  C9  UNL     1      24.579   3.274  51.271  1.00  0.00     0.166 A 
HETATM   10  N3  UNL     1      25.477   2.821  52.244  1.00  0.00    -0.221 NA
HETATM   11  C16 UNL     1      25.440   1.803  52.995  1.00  0.00     0.246 A 
HETATM   12  N4  UNL     1      24.429   0.750  53.093  1.00  0.00    -0.188 NA
HETATM   13  S1  UNL     1      23.244   1.032  52.049  1.00  0.00     0.096 SA
HETATM   14  O3  UNL     1      21.689   0.237  52.233  1.00  0.00    -0.263 OA
HETATM   15  C17 UNL     1      20.480   0.668  51.595  1.00  0.00     0.096 C 
HETATM   16  C18 UNL     1      19.603  -0.096  52.225  1.00  0.00     0.075 C 
HETATM   17  H10 UNL     1      22.779   3.992  49.737  1.00  0.00     0.160 HD
ENDROOT
BRANCH   9  18
HETATM   18  N2  UNL     1      24.701   4.436  50.476  1.00  0.00    -0.339 N 
HETATM   19  H11 UNL     1      23.771   4.952  50.504  1.00  0.00     0.167 HD
BRANCH  18  20
HETATM   20  C10 UNL     1      25.775   4.958  49.729  1.00  0.00     0.035 A 
HETATM   21  C11 UNL     1      26.815   4.147  49.336  1.00  0.00     0.029 A 
HETATM   22  C12 UNL     1      27.828   4.742  48.606  1.00  0.00     0.004 A 
HETATM   23  C13 UNL     1      27.849   6.077  48.259  1.00  0.00     0.019 A 
HETATM   24  C14 UNL     1      26.783   6.852  48.676  1.00  0.00     0.013 A 
HETATM   25 BR1  UNL     1      26.834   8.691  48.185  1.00  0.00    -0.051 Br
HETATM   26  C15 UNL     1      25.759   6.300  49.401  1.00  0.00     0.048 A 
ENDBRANCH  18  20
ENDBRANCH   9  18
BRANCH   3  27
HETATM   27  O2  UNL     1      17.746   3.178  52.013  1.00  0.00    -0.388 OA
HETATM   28  H6  UNL     1      17.620   2.590  52.825  1.00  0.00     0.210 HD
ENDBRANCH   3  27
BRANCH   1  29
HETATM   29  O1  UNL     1      17.489  -1.211  52.281  1.00  0.00    -0.356 OA
HETATM   30  C1  UNL     1      17.735  -1.994  53.408  1.00  0.00     0.210 C 
ENDBRANCH   1  29
TORSDOF 4
ENDMDL
