MODEL 1
REMARK VINA RESULT:      -8.1      0.000      0.000
REMARK  5 active torsions:
REMARK  status: ('A' for Active; 'I' for Inactive)
REMARK    1  A    between atoms: C2_2  and  C3_3 
REMARK    2  A    between atoms: C3_3  and  C4_4 
REMARK    3  A    between atoms: C4_4  and  C5_6 
REMARK    4  A    between atoms: C15_19  and  N2_20 
REMARK    5  A    between atoms: N2_20  and  C16_21 
ROOT
HETATM    1  C5  UNL     1      23.653   3.308  50.994  1.00  0.00     0.051 C 
HETATM    2  C6  UNL     1      24.187   3.963  52.208  1.00  0.00     0.087 C 
HETATM    3  C7  UNL     1      24.487   2.983  53.326  1.00  0.00     0.182 C 
HETATM    4  O1  UNL     1      25.440   2.066  52.887  1.00  0.00    -0.347 OA
HETATM    5  C8  UNL     1      26.086   1.125  53.716  1.00  0.00     0.117 A 
HETATM    6  C9  UNL     1      25.836   0.074  54.519  1.00  0.00     0.065 A 
HETATM    7  C10 UNL     1      27.284  -0.063  54.809  1.00  0.00     0.058 A 
HETATM    8  C11 UNL     1      27.536   0.989  54.007  1.00  0.00     0.071 A 
HETATM    9 CL1  UNL     1      29.157   1.623  53.706  1.00  0.00    -0.081 Cl
HETATM   10  N1  UNL     1      24.533  -0.485  54.799  1.00  0.00    -0.384 N 
HETATM   11  C12 UNL     1      23.690  -0.861  53.678  1.00  0.00     0.147 C 
HETATM   12  C13 UNL     1      22.389  -1.423  54.086  1.00  0.00    -0.005 C 
HETATM   13  C14 UNL     1      21.095  -1.478  54.149  1.00  0.00     0.028 C 
HETATM   14  C15 UNL     1      20.129  -0.571  53.549  1.00  0.00     0.051 C 
HETATM   15  C17 UNL     1      20.568   0.447  52.842  1.00  0.00     0.147 C 
HETATM   16  N3  UNL     1      21.300   1.416  52.160  1.00  0.00    -0.254 NA
HETATM   17  C18 UNL     1      21.941   1.233  51.029  1.00  0.00     0.207 C 
HETATM   18  N4  UNL     1      22.454   2.552  50.885  1.00  0.00    -0.352 N 
HETATM   19  H9  UNL     1      24.228  -0.606  55.807  1.00  0.00     0.160 HD
HETATM   20  H18 UNL     1      21.892   3.402  50.602  1.00  0.00     0.166 HD
ENDROOT
BRANCH   1  21
HETATM   21  C4  UNL     1      24.329   3.410  49.838  1.00  0.00     0.146 C 
HETATM   22  F1  UNL     1      23.796   3.714  48.645  1.00  0.00    -0.203 F 
BRANCH  21  23
HETATM   23  C3  UNL     1      25.747   3.223  49.615  1.00  0.00     0.095 C 
BRANCH  23  24
HETATM   24  C2  UNL     1      26.493   4.240  49.276  1.00  0.00    -0.152 C 
HETATM   25  C1  UNL     1      27.227   5.164  48.686  1.00  0.00     0.096 C 
ENDBRANCH  23  24
ENDBRANCH  21  23
ENDBRANCH   1  21
BRANCH  14  26
HETATM   26  N2  UNL     1      18.764  -0.824  53.751  1.00  0.00    -0.333 N 
HETATM   27  H14 UNL     1      18.207  -0.236  54.415  1.00  0.00     0.168 HD
BRANCH  26  28
HETATM   28  C16 UNL     1      17.898  -1.775  53.214  1.00  0.00     0.353 C 
HETATM   29  O2  UNL     1      17.780  -2.857  53.815  1.00  0.00    -0.283 OA
ENDBRANCH  26  28
ENDBRANCH  14  26
TORSDOF 5
ENDMDL
MODEL 2
REMARK VINA RESULT:      -7.7      3.399      7.252
REMARK  5 active torsions:
REMARK  status: ('A' for Active; 'I' for Inactive)
REMARK    1  A    between atoms: C2_2  and  C3_3 
REMARK    2  A    between atoms: C3_3  and  C4_4 
REMARK    3  A    between atoms: C4_4  and  C5_6 
REMARK    4  A    between atoms: C15_19  and  N2_20 
REMARK    5  A    between atoms: N2_20  and  C16_21 
ROOT
HETATM    1  C5  UNL     1      26.678   2.133  52.587  1.00  0.00     0.051 C 
HETATM    2  C6  UNL     1      25.735   2.395  53.695  1.00  0.00     0.087 C 
HETATM    3  C7  UNL     1      24.291   2.471  53.239  1.00  0.00     0.182 C 
HETATM    4  O1  UNL     1      23.931   1.258  52.655  1.00  0.00    -0.347 OA
HETATM    5  C8  UNL     1      22.617   0.908  52.282  1.00  0.00     0.117 A 
HETATM    6  C9  UNL     1      21.609   1.287  51.474  1.00  0.00     0.065 A 
HETATM    7  C10 UNL     1      20.776   0.163  51.965  1.00  0.00     0.058 A 
HETATM    8  C11 UNL     1      21.782  -0.218  52.775  1.00  0.00     0.071 A 
HETATM    9 CL1  UNL     1      21.694  -1.612  53.855  1.00  0.00    -0.081 Cl
HETATM   10  N1  UNL     1      21.629   2.416  50.572  1.00  0.00    -0.384 N 
HETATM   11  C12 UNL     1      22.723   2.521  49.623  1.00  0.00     0.147 C 
HETATM   12  C13 UNL     1      22.632   3.710  48.754  1.00  0.00    -0.005 C 
HETATM   13  C14 UNL     1      23.036   4.832  48.245  1.00  0.00     0.028 C 
HETATM   14  C15 UNL     1      24.263   5.557  48.532  1.00  0.00     0.051 C 
HETATM   15  C17 UNL     1      25.107   5.055  49.407  1.00  0.00     0.147 C 
HETATM   16  N3  UNL     1      25.801   4.305  50.354  1.00  0.00    -0.254 NA
HETATM   17  C18 UNL     1      26.435   3.179  50.120  1.00  0.00     0.207 C 
HETATM   18  N4  UNL     1      26.904   2.946  51.443  1.00  0.00    -0.352 N 
HETATM   19  H9  UNL     1      20.850   3.134  50.626  1.00  0.00     0.160 HD
HETATM   20  H18 UNL     1      27.694   3.467  51.914  1.00  0.00     0.166 HD
ENDROOT
BRANCH   1  21
HETATM   21  C4  UNL     1      27.436   1.024  52.613  1.00  0.00     0.146 C 
HETATM   22  F1  UNL     1      27.201  -0.099  51.920  1.00  0.00    -0.203 F 
BRANCH  21  23
HETATM   23  C3  UNL     1      28.646   0.789  53.372  1.00  0.00     0.095 C 
BRANCH  23  24
HETATM   24  C2  UNL     1      29.093  -0.428  53.524  1.00  0.00    -0.152 C 
HETATM   25  C1  UNL     1      29.706  -1.595  53.472  1.00  0.00     0.096 C 
ENDBRANCH  23  24
ENDBRANCH  21  23
ENDBRANCH   1  21
BRANCH  14  26
HETATM   26  N2  UNL     1      24.496   6.765  47.858  1.00  0.00    -0.333 N 
HETATM   27  H14 UNL     1      23.877   7.059  47.066  1.00  0.00     0.168 HD
BRANCH  26  28
HETATM   28  C16 UNL     1      25.459   7.759  48.022  1.00  0.00     0.353 C 
HETATM   29  O2  UNL     1      26.408   7.785  47.218  1.00  0.00    -0.283 OA
ENDBRANCH  26  28
ENDBRANCH  14  26
TORSDOF 5
ENDMDL
MODEL 3
REMARK VINA RESULT:      -7.6      3.829      6.593
REMARK  5 active torsions:
REMARK  status: ('A' for Active; 'I' for Inactive)
REMARK    1  A    between atoms: C2_2  and  C3_3 
REMARK    2  A    between atoms: C3_3  and  C4_4 
REMARK    3  A    between atoms: C4_4  and  C5_6 
REMARK    4  A    between atoms: C15_19  and  N2_20 
REMARK    5  A    between atoms: N2_20  and  C16_21 
ROOT
HETATM    1  C5  UNL     1      21.254   2.322  51.820  1.00  0.00     0.051 C 
HETATM    2  C6  UNL     1      21.170   3.779  52.062  1.00  0.00     0.087 C 
HETATM    3  C7  UNL     1      22.445   4.514  51.695  1.00  0.00     0.182 C 
HETATM    4  O1  UNL     1      22.708   4.325  50.340  1.00  0.00    -0.347 OA
HETATM    5  C8  UNL     1      23.708   5.007  49.616  1.00  0.00     0.117 A 
HETATM    6  C9  UNL     1      25.040   5.196  49.573  1.00  0.00     0.065 A 
HETATM    7  C10 UNL     1      24.887   6.092  48.402  1.00  0.00     0.058 A 
HETATM    8  C11 UNL     1      23.553   5.906  48.443  1.00  0.00     0.071 A 
HETATM    9 CL1  UNL     1      22.425   6.657  47.313  1.00  0.00    -0.081 Cl
HETATM   10  N1  UNL     1      26.007   4.606  50.471  1.00  0.00    -0.384 N 
HETATM   11  C12 UNL     1      25.996   3.165  50.645  1.00  0.00     0.147 C 
HETATM   12  C13 UNL     1      27.029   2.680  51.579  1.00  0.00    -0.005 C 
HETATM   13  C14 UNL     1      27.472   2.082  52.642  1.00  0.00     0.028 C 
HETATM   14  C15 UNL     1      26.704   1.419  53.683  1.00  0.00     0.051 C 
HETATM   15  C17 UNL     1      25.393   1.390  53.584  1.00  0.00     0.147 C 
HETATM   16  N3  UNL     1      24.052   1.508  53.228  1.00  0.00    -0.254 NA
HETATM   17  C18 UNL     1      23.456   0.844  52.264  1.00  0.00     0.207 C 
HETATM   18  N4  UNL     1      22.158   1.405  52.420  1.00  0.00    -0.352 N 
HETATM   19  H9  UNL     1      26.695   5.236  50.976  1.00  0.00     0.160 HD
HETATM   20  H18 UNL     1      21.480   1.177  53.199  1.00  0.00     0.166 HD
ENDROOT
BRANCH   1  21
HETATM   21  C4  UNL     1      20.402   1.747  50.954  1.00  0.00     0.146 C 
HETATM   22  F1  UNL     1      19.064   1.773  51.040  1.00  0.00    -0.203 F 
BRANCH  21  23
HETATM   23  C3  UNL     1      20.720   0.989  49.763  1.00  0.00     0.095 C 
BRANCH  23  24
HETATM   24  C2  UNL     1      21.422   1.540  48.809  1.00  0.00    -0.152 C 
HETATM   25  C1  UNL     1      22.264   1.863  47.847  1.00  0.00     0.096 C 
ENDBRANCH  23  24
ENDBRANCH  21  23
ENDBRANCH   1  21
BRANCH  14  26
HETATM   26  N2  UNL     1      27.399   0.835  54.753  1.00  0.00    -0.333 N 
HETATM   27  H14 UNL     1      27.147   1.072  55.742  1.00  0.00     0.168 HD
BRANCH  26  28
HETATM   28  C16 UNL     1      28.451  -0.078  54.801  1.00  0.00     0.353 C 
HETATM   29  O2  UNL     1      28.437  -1.021  53.991  1.00  0.00    -0.283 OA
ENDBRANCH  26  28
ENDBRANCH  14  26
TORSDOF 5
ENDMDL
MODEL 4
REMARK VINA RESULT:      -7.4      3.627      6.575
REMARK  5 active torsions:
REMARK  status: ('A' for Active; 'I' for Inactive)
REMARK    1  A    between atoms: C2_2  and  C3_3 
REMARK    2  A    between atoms: C3_3  and  C4_4 
REMARK    3  A    between atoms: C4_4  and  C5_6 
REMARK    4  A    between atoms: C15_19  and  N2_20 
REMARK    5  A    between atoms: N2_20  and  C16_21 
ROOT
HETATM    1  C5  UNL     1      20.403   1.057  51.935  1.00  0.00     0.051 C 
HETATM    2  C6  UNL     1      21.188   0.378  50.881  1.00  0.00     0.087 C 
HETATM    3  C7  UNL     1      22.529   1.037  50.624  1.00  0.00     0.182 C 
HETATM    4  O1  UNL     1      23.283   1.012  51.795  1.00  0.00    -0.347 OA
HETATM    5  C8  UNL     1      24.644   1.374  51.877  1.00  0.00     0.117 A 
HETATM    6  C9  UNL     1      25.477   2.413  51.682  1.00  0.00     0.065 A 
HETATM    7  C10 UNL     1      26.632   1.580  52.095  1.00  0.00     0.058 A 
HETATM    8  C11 UNL     1      25.801   0.538  52.291  1.00  0.00     0.071 A 
HETATM    9 CL1  UNL     1      26.338  -1.050  52.845  1.00  0.00    -0.081 Cl
HETATM   10  N1  UNL     1      25.092   3.731  51.231  1.00  0.00    -0.384 N 
HETATM   11  C12 UNL     1      24.041   4.426  51.953  1.00  0.00     0.147 C 
HETATM   12  C13 UNL     1      23.739   5.762  51.405  1.00  0.00    -0.005 C 
HETATM   13  C14 UNL     1      22.989   6.677  50.874  1.00  0.00     0.028 C 
HETATM   14  C15 UNL     1      21.585   6.585  50.506  1.00  0.00     0.051 C 
HETATM   15  C17 UNL     1      20.947   5.454  50.719  1.00  0.00     0.147 C 
HETATM   16  N3  UNL     1      20.531   4.167  51.051  1.00  0.00    -0.254 NA
HETATM   17  C18 UNL     1      20.317   3.724  52.268  1.00  0.00     0.207 C 
HETATM   18  N4  UNL     1      19.934   2.398  51.924  1.00  0.00    -0.352 N 
HETATM   19  H9  UNL     1      25.584   4.155  50.392  1.00  0.00     0.160 HD
HETATM   20  H18 UNL     1      19.008   2.118  51.498  1.00  0.00     0.166 HD
ENDROOT
BRANCH   1  21
HETATM   21  C4  UNL     1      20.062   0.379  53.044  1.00  0.00     0.146 C 
HETATM   22  F1  UNL     1      19.058  -0.504  53.142  1.00  0.00    -0.203 F 
BRANCH  21  23
HETATM   23  C3  UNL     1      20.680   0.441  54.352  1.00  0.00     0.095 C 
BRANCH  23  24
HETATM   24  C2  UNL     1      21.655  -0.375  54.650  1.00  0.00    -0.152 C 
HETATM   25  C1  UNL     1      22.717  -1.155  54.699  1.00  0.00     0.096 C 
ENDBRANCH  23  24
ENDBRANCH  21  23
ENDBRANCH   1  21
BRANCH  14  26
HETATM   26  N2  UNL     1      20.970   7.710  49.940  1.00  0.00    -0.333 N 
HETATM   27  H14 UNL     1      21.543   8.536  49.643  1.00  0.00     0.168 HD
BRANCH  26  28
HETATM   28  C16 UNL     1      19.639   8.007  49.655  1.00  0.00     0.353 C 
HETATM   29  O2  UNL     1      19.202   9.116  50.012  1.00  0.00    -0.283 OA
ENDBRANCH  26  28
ENDBRANCH  14  26
TORSDOF 5
ENDMDL
MODEL 5
REMARK VINA RESULT:      -7.4      3.514      6.214
REMARK  5 active torsions:
REMARK  status: ('A' for Active; 'I' for Inactive)
REMARK    1  A    between atoms: C2_2  and  C3_3 
REMARK    2  A    between atoms: C3_3  and  C4_4 
REMARK    3  A    between atoms: C4_4  and  C5_6 
REMARK    4  A    between atoms: C15_19  and  N2_20 
REMARK    5  A    between atoms: N2_20  and  C16_21 
ROOT
HETATM    1  C5  UNL     1      23.789   4.364  50.987  1.00  0.00     0.051 C 
HETATM    2  C6  UNL     1      23.405   3.614  49.771  1.00  0.00     0.087 C 
HETATM    3  C7  UNL     1      22.789   2.263  50.079  1.00  0.00     0.182 C 
HETATM    4  O1  UNL     1      21.639   2.448  50.842  1.00  0.00    -0.347 OA
HETATM    5  C8  UNL     1      20.716   1.429  51.158  1.00  0.00     0.117 A 
HETATM    6  C9  UNL     1      20.621   0.245  51.792  1.00  0.00     0.065 A 
HETATM    7  C10 UNL     1      19.182   0.161  51.446  1.00  0.00     0.058 A 
HETATM    8  C11 UNL     1      19.274   1.345  50.810  1.00  0.00     0.071 A 
HETATM    9 CL1  UNL     1      17.914   2.130  50.002  1.00  0.00    -0.081 Cl
HETATM   10  N1  UNL     1      21.700  -0.440  52.468  1.00  0.00    -0.384 N 
HETATM   11  C12 UNL     1      22.454   0.288  53.473  1.00  0.00     0.147 C 
HETATM   12  C13 UNL     1      23.524  -0.515  54.097  1.00  0.00    -0.005 C 
HETATM   13  C14 UNL     1      24.746  -0.801  54.423  1.00  0.00     0.028 C 
HETATM   14  C15 UNL     1      25.954  -0.054  54.115  1.00  0.00     0.051 C 
HETATM   15  C17 UNL     1      25.853   1.060  53.424  1.00  0.00     0.147 C 
HETATM   16  N3  UNL     1      25.456   2.179  52.696  1.00  0.00    -0.254 NA
HETATM   17  C18 UNL     1      24.844   3.232  53.187  1.00  0.00     0.207 C 
HETATM   18  N4  UNL     1      24.730   3.969  51.976  1.00  0.00    -0.352 N 
HETATM   19  H9  UNL     1      21.911  -1.448  52.215  1.00  0.00     0.160 HD
HETATM   20  H18 UNL     1      25.522   4.472  51.487  1.00  0.00     0.166 HD
ENDROOT
BRANCH   1  21
HETATM   21  C4  UNL     1      23.224   5.558  51.231  1.00  0.00     0.146 C 
HETATM   22  F1  UNL     1      23.878   6.674  51.585  1.00  0.00    -0.203 F 
BRANCH  21  23
HETATM   23  C3  UNL     1      21.821   5.908  51.171  1.00  0.00     0.095 C 
BRANCH  23  24
HETATM   24  C2  UNL     1      21.461   7.074  50.704  1.00  0.00    -0.152 C 
HETATM   25  C1  UNL     1      21.088   8.123  49.997  1.00  0.00     0.096 C 
ENDBRANCH  23  24
ENDBRANCH  21  23
ENDBRANCH   1  21
BRANCH  14  26
HETATM   26  N2  UNL     1      27.182  -0.556  54.572  1.00  0.00    -0.333 N 
HETATM   27  H14 UNL     1      27.230  -1.489  55.047  1.00  0.00     0.168 HD
BRANCH  26  28
HETATM   28  C16 UNL     1      28.477  -0.044  54.533  1.00  0.00     0.353 C 
HETATM   29  O2  UNL     1      28.711   0.992  55.179  1.00  0.00    -0.283 OA
ENDBRANCH  26  28
ENDBRANCH  14  26
TORSDOF 5
ENDMDL
MODEL 6
REMARK VINA RESULT:      -6.9      3.909      7.769
REMARK  5 active torsions:
REMARK  status: ('A' for Active; 'I' for Inactive)
REMARK    1  A    between atoms: C2_2  and  C3_3 
REMARK    2  A    between atoms: C3_3  and  C4_4 
REMARK    3  A    between atoms: C4_4  and  C5_6 
REMARK    4  A    between atoms: C15_19  and  N2_20 
REMARK    5  A    between atoms: N2_20  and  C16_21 
ROOT
HETATM    1  C5  UNL     1      20.558   1.622  52.321  1.00  0.00     0.051 C 
HETATM    2  C6  UNL     1      20.142   3.035  52.186  1.00  0.00     0.087 C 
HETATM    3  C7  UNL     1      21.080   3.847  51.314  1.00  0.00     0.182 C 
HETATM    4  O1  UNL     1      21.112   3.292  50.036  1.00  0.00    -0.347 OA
HETATM    5  C8  UNL     1      21.735   3.889  48.920  1.00  0.00     0.117 A 
HETATM    6  C9  UNL     1      22.935   4.308  48.476  1.00  0.00     0.065 A 
HETATM    7  C10 UNL     1      22.323   4.739  47.196  1.00  0.00     0.058 A 
HETATM    8  C11 UNL     1      21.122   4.321  47.638  1.00  0.00     0.071 A 
HETATM    9 CL1  UNL     1      19.636   4.441  46.692  1.00  0.00    -0.081 Cl
HETATM   10  N1  UNL     1      24.180   4.233  49.207  1.00  0.00    -0.384 N 
HETATM   11  C12 UNL     1      24.584   2.948  49.749  1.00  0.00     0.147 C 
HETATM   12  C13 UNL     1      25.871   2.994  50.468  1.00  0.00    -0.005 C 
HETATM   13  C14 UNL     1      26.655   2.863  51.493  1.00  0.00     0.028 C 
HETATM   14  C15 UNL     1      26.309   2.429  52.837  1.00  0.00     0.051 C 
HETATM   15  C17 UNL     1      25.059   2.117  53.101  1.00  0.00     0.147 C 
HETATM   16  N3  UNL     1      23.692   1.854  53.096  1.00  0.00    -0.254 NA
HETATM   17  C18 UNL     1      23.115   0.816  52.535  1.00  0.00     0.207 C 
HETATM   18  N4  UNL     1      21.772   1.136  52.877  1.00  0.00    -0.352 N 
HETATM   19  H9  UNL     1      24.762   5.111  49.327  1.00  0.00     0.160 HD
HETATM   20  H18 UNL     1      21.345   1.040  53.840  1.00  0.00     0.166 HD
ENDROOT
BRANCH   1  21
HETATM   21  C4  UNL     1      19.736   0.648  51.895  1.00  0.00     0.146 C 
HETATM   22  F1  UNL     1      19.441  -0.474  52.566  1.00  0.00    -0.203 F 
BRANCH  21  23
HETATM   23  C3  UNL     1      18.998   0.587  50.651  1.00  0.00     0.095 C 
BRANCH  23  24
HETATM   24  C2  UNL     1      17.761   0.167  50.648  1.00  0.00    -0.152 C 
HETATM   25  C1  UNL     1      16.604  -0.442  50.816  1.00  0.00     0.096 C 
ENDBRANCH  23  24
ENDBRANCH  21  23
ENDBRANCH   1  21
BRANCH  14  26
HETATM   26  N2  UNL     1      27.329   2.361  53.797  1.00  0.00    -0.333 N 
HETATM   27  H14 UNL     1      27.117   2.523  54.810  1.00  0.00     0.168 HD
BRANCH  26  28
HETATM   28  C16 UNL     1      28.695   2.101  53.698  1.00  0.00     0.353 C 
HETATM   29  O2  UNL     1      29.411   2.379  54.675  1.00  0.00    -0.283 OA
ENDBRANCH  26  28
ENDBRANCH  14  26
TORSDOF 5
ENDMDL
MODEL 7
REMARK VINA RESULT:      -6.8      2.438      2.845
REMARK  5 active torsions:
REMARK  status: ('A' for Active; 'I' for Inactive)
REMARK    1  A    between atoms: C2_2  and  C3_3 
REMARK    2  A    between atoms: C3_3  and  C4_4 
REMARK    3  A    between atoms: C4_4  and  C5_6 
REMARK    4  A    between atoms: C15_19  and  N2_20 
REMARK    5  A    between atoms: N2_20  and  C16_21 
ROOT
HETATM    1  C5  UNL     1      23.477   4.579  50.477  1.00  0.00     0.051 C 
HETATM    2  C6  UNL     1      23.939   4.691  51.878  1.00  0.00     0.087 C 
HETATM    3  C7  UNL     1      23.666   3.442  52.693  1.00  0.00     0.182 C 
HETATM    4  O1  UNL     1      24.331   2.364  52.113  1.00  0.00    -0.347 OA
HETATM    5  C8  UNL     1      24.449   1.087  52.701  1.00  0.00     0.117 A 
HETATM    6  C9  UNL     1      23.709   0.050  53.137  1.00  0.00     0.065 A 
HETATM    7  C10 UNL     1      24.940  -0.678  53.529  1.00  0.00     0.058 A 
HETATM    8  C11 UNL     1      25.682   0.358  53.095  1.00  0.00     0.071 A 
HETATM    9 CL1  UNL     1      27.446   0.395  53.165  1.00  0.00    -0.081 Cl
HETATM   10  N1  UNL     1      22.267  -0.033  53.103  1.00  0.00    -0.384 N 
HETATM   11  C12 UNL     1      21.594   0.200  51.837  1.00  0.00     0.147 C 
HETATM   12  C13 UNL     1      20.125   0.084  51.925  1.00  0.00    -0.005 C 
HETATM   13  C14 UNL     1      18.901   0.502  51.831  1.00  0.00     0.028 C 
HETATM   14  C15 UNL     1      18.431   1.814  51.416  1.00  0.00     0.051 C 
HETATM   15  C17 UNL     1      19.315   2.729  51.083  1.00  0.00     0.147 C 
HETATM   16  N3  UNL     1      20.448   3.485  50.791  1.00  0.00    -0.254 NA
HETATM   17  C18 UNL     1      21.209   3.342  49.730  1.00  0.00     0.207 C 
HETATM   18  N4  UNL     1      22.145   4.371  50.028  1.00  0.00    -0.352 N 
HETATM   19  H9  UNL     1      21.741  -0.260  53.995  1.00  0.00     0.160 HD
HETATM   20  H18 UNL     1      21.964   5.409  49.942  1.00  0.00     0.166 HD
ENDROOT
BRANCH   1  21
HETATM   21  C4  UNL     1      24.370   4.686  49.478  1.00  0.00     0.146 C 
HETATM   22  F1  UNL     1      24.133   5.222  48.273  1.00  0.00    -0.203 F 
BRANCH  21  23
HETATM   23  C3  UNL     1      25.753   4.259  49.471  1.00  0.00     0.095 C 
BRANCH  23  24
HETATM   24  C2  UNL     1      26.656   4.991  48.874  1.00  0.00    -0.152 C 
HETATM   25  C1  UNL     1      27.555   5.878  48.496  1.00  0.00     0.096 C 
ENDBRANCH  23  24
ENDBRANCH  21  23
ENDBRANCH   1  21
BRANCH  14  26
HETATM   26  N2  UNL     1      17.048   2.047  51.389  1.00  0.00    -0.333 N 
HETATM   27  H14 UNL     1      16.503   2.116  52.281  1.00  0.00     0.168 HD
BRANCH  26  28
HETATM   28  C16 UNL     1      16.149   2.225  50.340  1.00  0.00     0.353 C 
HETATM   29  O2  UNL     1      16.381   1.636  49.270  1.00  0.00    -0.283 OA
ENDBRANCH  26  28
ENDBRANCH  14  26
TORSDOF 5
ENDMDL
MODEL 8
REMARK VINA RESULT:      -6.7      3.281      4.412
REMARK  5 active torsions:
REMARK  status: ('A' for Active; 'I' for Inactive)
REMARK    1  A    between atoms: C2_2  and  C3_3 
REMARK    2  A    between atoms: C3_3  and  C4_4 
REMARK    3  A    between atoms: C4_4  and  C5_6 
REMARK    4  A    between atoms: C15_19  and  N2_20 
REMARK    5  A    between atoms: N2_20  and  C16_21 
ROOT
HETATM    1  C5  UNL     1      24.457   5.621  49.408  1.00  0.00     0.051 C 
HETATM    2  C6  UNL     1      24.348   5.889  50.858  1.00  0.00     0.087 C 
HETATM    3  C7  UNL     1      23.823   4.701  51.642  1.00  0.00     0.182 C 
HETATM    4  O1  UNL     1      24.690   3.623  51.474  1.00  0.00    -0.347 OA
HETATM    5  C8  UNL     1      24.614   2.415  52.198  1.00  0.00     0.117 A 
HETATM    6  C9  UNL     1      23.795   1.373  52.435  1.00  0.00     0.065 A 
HETATM    7  C10 UNL     1      24.806   0.769  53.336  1.00  0.00     0.058 A 
HETATM    8  C11 UNL     1      25.626   1.811  53.102  1.00  0.00     0.071 A 
HETATM    9 CL1  UNL     1      27.230   1.975  53.823  1.00  0.00    -0.081 Cl
HETATM   10  N1  UNL     1      22.477   1.189  51.872  1.00  0.00    -0.384 N 
HETATM   11  C12 UNL     1      22.328   1.262  50.430  1.00  0.00     0.147 C 
HETATM   12  C13 UNL     1      20.940   1.054  49.973  1.00  0.00    -0.005 C 
HETATM   13  C14 UNL     1      19.832   1.377  49.382  1.00  0.00     0.028 C 
HETATM   14  C15 UNL     1      19.516   2.611  48.682  1.00  0.00     0.051 C 
HETATM   15  C17 UNL     1      20.433   3.551  48.607  1.00  0.00     0.147 C 
HETATM   16  N3  UNL     1      21.569   4.354  48.681  1.00  0.00    -0.254 NA
HETATM   17  C18 UNL     1      22.679   4.169  48.004  1.00  0.00     0.207 C 
HETATM   18  N4  UNL     1      23.402   5.282  48.517  1.00  0.00    -0.352 N 
HETATM   19  H9  UNL     1      21.658   1.007  52.521  1.00  0.00     0.160 HD
HETATM   20  H18 UNL     1      23.236   6.294  48.258  1.00  0.00     0.166 HD
ENDROOT
BRANCH   1  21
HETATM   21  C4  UNL     1      25.658   5.698  48.810  1.00  0.00     0.146 C 
HETATM   22  F1  UNL     1      26.041   6.650  47.947  1.00  0.00    -0.203 F 
BRANCH  21  23
HETATM   23  C3  UNL     1      26.784   4.801  48.956  1.00  0.00     0.095 C 
BRANCH  23  24
HETATM   24  C2  UNL     1      27.965   5.166  48.534  1.00  0.00    -0.152 C 
HETATM   25  C1  UNL     1      29.086   5.776  48.199  1.00  0.00     0.096 C 
ENDBRANCH  23  24
ENDBRANCH  21  23
ENDBRANCH   1  21
BRANCH  14  26
HETATM   26  N2  UNL     1      18.241   2.746  48.114  1.00  0.00    -0.333 N 
HETATM   27  H14 UNL     1      17.387   2.454  48.647  1.00  0.00     0.168 HD
BRANCH  26  28
HETATM   28  C16 UNL     1      17.811   3.229  46.879  1.00  0.00     0.353 C 
HETATM   29  O2  UNL     1      18.521   2.992  45.885  1.00  0.00    -0.283 OA
ENDBRANCH  26  28
ENDBRANCH  14  26
TORSDOF 5
ENDMDL
MODEL 9
REMARK VINA RESULT:      -6.6      3.780      6.348
REMARK  5 active torsions:
REMARK  status: ('A' for Active; 'I' for Inactive)
REMARK    1  A    between atoms: C2_2  and  C3_3 
REMARK    2  A    between atoms: C3_3  and  C4_4 
REMARK    3  A    between atoms: C4_4  and  C5_6 
REMARK    4  A    between atoms: C15_19  and  N2_20 
REMARK    5  A    between atoms: N2_20  and  C16_21 
ROOT
HETATM    1  C5  UNL     1      22.930   3.673  48.621  1.00  0.00     0.051 C 
HETATM    2  C6  UNL     1      22.395   2.513  47.874  1.00  0.00     0.087 C 
HETATM    3  C7  UNL     1      21.925   1.392  48.781  1.00  0.00     0.182 C 
HETATM    4  O1  UNL     1      20.909   1.868  49.608  1.00  0.00    -0.347 OA
HETATM    5  C8  UNL     1      20.118   1.058  50.449  1.00  0.00     0.117 A 
HETATM    6  C9  UNL     1      20.205   0.213  51.493  1.00  0.00     0.065 A 
HETATM    7  C10 UNL     1      18.736   0.013  51.469  1.00  0.00     0.058 A 
HETATM    8  C11 UNL     1      18.646   0.857  50.424  1.00  0.00     0.071 A 
HETATM    9 CL1  UNL     1      17.123   1.278  49.635  1.00  0.00    -0.081 Cl
HETATM   10  N1  UNL     1      21.422  -0.164  52.175  1.00  0.00    -0.384 N 
HETATM   11  C12 UNL     1      22.288   0.890  52.673  1.00  0.00     0.147 C 
HETATM   12  C13 UNL     1      23.495   0.384  53.354  1.00  0.00    -0.005 C 
HETATM   13  C14 UNL     1      24.769   0.236  53.540  1.00  0.00     0.028 C 
HETATM   14  C15 UNL     1      25.861   0.796  52.760  1.00  0.00     0.051 C 
HETATM   15  C17 UNL     1      25.576   1.556  51.725  1.00  0.00     0.147 C 
HETATM   16  N3  UNL     1      24.993   2.309  50.708  1.00  0.00    -0.254 NA
HETATM   17  C18 UNL     1      24.407   3.474  50.860  1.00  0.00     0.207 C 
HETATM   18  N4  UNL     1      24.046   3.685  49.500  1.00  0.00    -0.352 N 
HETATM   19  H9  UNL     1      21.650  -1.193  52.294  1.00  0.00     0.160 HD
HETATM   20  H18 UNL     1      24.712   3.953  48.723  1.00  0.00     0.166 HD
ENDROOT
BRANCH   1  21
HETATM   21  C4  UNL     1      22.341   4.873  48.486  1.00  0.00     0.146 C 
HETATM   22  F1  UNL     1      21.137   5.211  48.971  1.00  0.00    -0.203 F 
BRANCH  21  23
HETATM   23  C3  UNL     1      22.852   6.045  47.809  1.00  0.00     0.095 C 
BRANCH  23  24
HETATM   24  C2  UNL     1      22.586   6.234  46.544  1.00  0.00    -0.152 C 
HETATM   25  C1  UNL     1      22.263   6.161  45.267  1.00  0.00     0.096 C 
ENDBRANCH  23  24
ENDBRANCH  21  23
ENDBRANCH   1  21
BRANCH  14  26
HETATM   26  N2  UNL     1      27.176   0.501  53.146  1.00  0.00    -0.333 N 
HETATM   27  H14 UNL     1      27.857   0.107  52.455  1.00  0.00     0.168 HD
BRANCH  26  28
HETATM   28  C16 UNL     1      27.846   0.625  54.362  1.00  0.00     0.353 C 
HETATM   29  O2  UNL     1      27.922  -0.381  55.088  1.00  0.00    -0.283 OA
ENDBRANCH  26  28
ENDBRANCH  14  26
TORSDOF 5
ENDMDL
