MODEL 1
REMARK VINA RESULT:      -8.3      0.000      0.000
REMARK  1 active torsions:
REMARK  status: ('A' for Active; 'I' for Inactive)
REMARK    1  A    between atoms: O1_2  and  C2_3 
ROOT
HETATM    1  C2  UNL     1      20.515  -0.788  53.662  1.00  0.00     0.126 C 
HETATM    2  C3  UNL     1      21.245   0.226  53.259  1.00  0.00     0.198 C 
HETATM    3  O2  UNL     1      21.039   1.423  52.606  1.00  0.00    -0.352 OA
HETATM    4  C4  UNL     1      22.089   2.087  52.004  1.00  0.00     0.131 C 
HETATM    5  C5  UNL     1      23.234   2.719  51.871  1.00  0.00    -0.001 C 
HETATM    6  C6  UNL     1      24.147   3.009  53.001  1.00  0.00     0.059 C 
HETATM    7  C7  UNL     1      25.527   2.460  52.775  1.00  0.00     0.278 C 
HETATM    8  N1  UNL     1      25.482   1.052  52.597  1.00  0.00     0.111 N 
HETATM    9  C8  UNL     1      26.758   0.498  52.159  1.00  0.00     0.254 C 
HETATM   10  C9  UNL     1      27.930   1.012  53.001  1.00  0.00     0.028 C 
HETATM   11  C10 UNL     1      28.701   0.416  53.996  1.00  0.00     0.114 C 
HETATM   12  N2  UNL     1      27.651  -0.372  54.762  1.00  0.00    -0.267 NA
HETATM   13  C11 UNL     1      26.464  -0.157  54.161  1.00  0.00     0.051 C 
HETATM   14  C12 UNL     1      26.589  -0.914  52.833  1.00  0.00     0.097 C 
HETATM   15  C13 UNL     1      25.086   0.336  53.832  1.00  0.00     0.294 C 
HETATM   16  C14 UNL     1      24.159  -0.755  53.645  1.00  0.00     0.011 C 
HETATM   17  C15 UNL     1      22.908  -0.830  54.111  1.00  0.00    -0.025 C 
HETATM   18  C16 UNL     1      21.639  -1.559  54.248  1.00  0.00     0.071 C 
ENDROOT
BRANCH   1  19
HETATM   19  O1  UNL     1      19.378  -1.518  53.849  1.00  0.00    -0.379 OA
HETATM   20  C1  UNL     1      18.143  -1.230  53.214  1.00  0.00     0.202 C 
ENDBRANCH   1  19
TORSDOF 1
ENDMDL
MODEL 2
REMARK VINA RESULT:      -7.7      2.779      6.168
REMARK  1 active torsions:
REMARK  status: ('A' for Active; 'I' for Inactive)
REMARK    1  A    between atoms: O1_2  and  C2_3 
ROOT
HETATM    1  C2  UNL     1      26.278  -0.258  54.628  1.00  0.00     0.126 C 
HETATM    2  C3  UNL     1      24.983  -0.452  54.718  1.00  0.00     0.198 C 
HETATM    3  O2  UNL     1      24.129  -1.241  55.459  1.00  0.00    -0.352 OA
HETATM    4  C4  UNL     1      22.834  -1.468  55.035  1.00  0.00     0.131 C 
HETATM    5  C5  UNL     1      21.592  -1.224  54.682  1.00  0.00    -0.001 C 
HETATM    6  C6  UNL     1      20.997   0.133  54.656  1.00  0.00     0.059 C 
HETATM    7  C7  UNL     1      20.434   0.484  53.309  1.00  0.00     0.278 C 
HETATM    8  N1  UNL     1      21.445   0.430  52.314  1.00  0.00     0.111 N 
HETATM    9  C8  UNL     1      20.913   0.547  50.962  1.00  0.00     0.254 C 
HETATM   10  C9  UNL     1      19.928   1.713  50.828  1.00  0.00     0.028 C 
HETATM   11  C10 UNL     1      20.041   2.972  50.243  1.00  0.00     0.114 C 
HETATM   12  N2  UNL     1      21.457   3.363  50.635  1.00  0.00    -0.267 NA
HETATM   13  C11 UNL     1      21.972   2.348  51.358  1.00  0.00     0.051 C 
HETATM   14  C12 UNL     1      22.176   1.234  50.323  1.00  0.00     0.097 C 
HETATM   15  C13 UNL     1      22.466   1.489  52.484  1.00  0.00     0.294 C 
HETATM   16  C14 UNL     1      23.832   1.071  52.277  1.00  0.00     0.011 C 
HETATM   17  C15 UNL     1      24.808   1.046  53.191  1.00  0.00    -0.025 C 
HETATM   18  C16 UNL     1      26.203   0.769  53.561  1.00  0.00     0.071 C 
ENDROOT
BRANCH   1  19
HETATM   19  O1  UNL     1      27.596  -0.441  54.928  1.00  0.00    -0.379 OA
HETATM   20  C1  UNL     1      28.629   0.439  54.512  1.00  0.00     0.202 C 
ENDBRANCH   1  19
TORSDOF 1
ENDMDL
MODEL 3
REMARK VINA RESULT:      -7.7      3.017      6.300
REMARK  1 active torsions:
REMARK  status: ('A' for Active; 'I' for Inactive)
REMARK    1  A    between atoms: O1_2  and  C2_3 
ROOT
HETATM    1  C2  UNL     1      26.647   3.142  50.410  1.00  0.00     0.126 C 
HETATM    2  C3  UNL     1      26.647   2.198  51.322  1.00  0.00     0.198 C 
HETATM    3  O2  UNL     1      27.579   1.391  51.941  1.00  0.00    -0.352 OA
HETATM    4  C4  UNL     1      27.190   0.236  52.590  1.00  0.00     0.131 C 
HETATM    5  C5  UNL     1      26.588  -0.549  53.456  1.00  0.00    -0.001 C 
HETATM    6  C6  UNL     1      25.685  -0.055  54.521  1.00  0.00     0.059 C 
HETATM    7  C7  UNL     1      24.325  -0.690  54.457  1.00  0.00     0.278 C 
HETATM    8  N1  UNL     1      23.709  -0.429  53.205  1.00  0.00     0.111 N 
HETATM    9  C8  UNL     1      22.488  -1.199  53.006  1.00  0.00     0.254 C 
HETATM   10  C9  UNL     1      21.555  -1.127  54.218  1.00  0.00     0.028 C 
HETATM   11  C10 UNL     1      20.365  -0.439  54.446  1.00  0.00     0.114 C 
HETATM   12  N2  UNL     1      20.650   0.892  53.768  1.00  0.00    -0.267 NA
HETATM   13  C11 UNL     1      21.895   0.828  53.256  1.00  0.00     0.051 C 
HETATM   14  C12 UNL     1      21.755  -0.153  52.086  1.00  0.00     0.097 C 
HETATM   15  C13 UNL     1      23.368   1.002  53.027  1.00  0.00     0.294 C 
HETATM   16  C14 UNL     1      23.644   1.546  51.719  1.00  0.00     0.011 C 
HETATM   17  C15 UNL     1      24.526   2.507  51.423  1.00  0.00    -0.025 C 
HETATM   18  C16 UNL     1      25.183   3.376  50.436  1.00  0.00     0.071 C 
ENDROOT
BRANCH   1  19
HETATM   19  O1  UNL     1      27.181   3.997  49.492  1.00  0.00    -0.379 OA
HETATM   20  C1  UNL     1      26.502   5.134  48.983  1.00  0.00     0.202 C 
ENDBRANCH   1  19
TORSDOF 1
ENDMDL
MODEL 4
REMARK VINA RESULT:      -7.7      3.700      6.288
REMARK  1 active torsions:
REMARK  status: ('A' for Active; 'I' for Inactive)
REMARK    1  A    between atoms: O1_2  and  C2_3 
ROOT
HETATM    1  C2  UNL     1      26.148   5.902  48.887  1.00  0.00     0.126 C 
HETATM    2  C3  UNL     1      25.311   5.471  49.802  1.00  0.00     0.198 C 
HETATM    3  O2  UNL     1      24.173   5.935  50.429  1.00  0.00    -0.352 OA
HETATM    4  C4  UNL     1      23.751   5.381  51.621  1.00  0.00     0.131 C 
HETATM    5  C5  UNL     1      23.324   4.482  52.480  1.00  0.00    -0.001 C 
HETATM    6  C6  UNL     1      23.063   3.068  52.126  1.00  0.00     0.059 C 
HETATM    7  C7  UNL     1      23.843   2.111  52.982  1.00  0.00     0.278 C 
HETATM    8  N1  UNL     1      25.237   2.345  52.851  1.00  0.00     0.111 N 
HETATM    9  C8  UNL     1      26.028   1.596  53.819  1.00  0.00     0.254 C 
HETATM   10  C9  UNL     1      25.618   0.121  53.883  1.00  0.00     0.028 C 
HETATM   11  C10 UNL     1      26.217  -1.040  53.401  1.00  0.00     0.114 C 
HETATM   12  N2  UNL     1      26.744  -0.572  52.054  1.00  0.00    -0.267 NA
HETATM   13  C11 UNL     1      26.411   0.727  51.917  1.00  0.00     0.051 C 
HETATM   14  C12 UNL     1      27.316   1.441  52.928  1.00  0.00     0.097 C 
HETATM   15  C13 UNL     1      25.745   2.005  51.501  1.00  0.00     0.294 C 
HETATM   16  C14 UNL     1      26.690   2.942  50.942  1.00  0.00     0.011 C 
HETATM   17  C15 UNL     1      26.517   3.698  49.852  1.00  0.00    -0.025 C 
HETATM   18  C16 UNL     1      27.019   4.702  48.903  1.00  0.00     0.071 C 
ENDROOT
BRANCH   1  19
HETATM   19  O1  UNL     1      26.666   6.770  47.972  1.00  0.00    -0.379 OA
HETATM   20  C1  UNL     1      28.049   7.064  47.857  1.00  0.00     0.202 C 
ENDBRANCH   1  19
TORSDOF 1
ENDMDL
MODEL 5
REMARK VINA RESULT:      -7.1      2.046      3.770
REMARK  1 active torsions:
REMARK  status: ('A' for Active; 'I' for Inactive)
REMARK    1  A    between atoms: O1_2  and  C2_3 
ROOT
HETATM    1  C2  UNL     1      19.128  -0.993  53.469  1.00  0.00     0.126 C 
HETATM    2  C3  UNL     1      20.404  -1.027  53.774  1.00  0.00     0.198 C 
HETATM    3  O2  UNL     1      21.209  -1.683  54.681  1.00  0.00    -0.352 OA
HETATM    4  C4  UNL     1      22.468  -1.203  54.981  1.00  0.00     0.131 C 
HETATM    5  C5  UNL     1      23.717  -0.828  54.814  1.00  0.00    -0.001 C 
HETATM    6  C6  UNL     1      24.422  -0.877  53.512  1.00  0.00     0.059 C 
HETATM    7  C7  UNL     1      24.977   0.460  53.112  1.00  0.00     0.278 C 
HETATM    8  N1  UNL     1      23.939   1.422  53.011  1.00  0.00     0.111 N 
HETATM    9  C8  UNL     1      24.443   2.780  52.841  1.00  0.00     0.254 C 
HETATM   10  C9  UNL     1      25.518   2.864  51.752  1.00  0.00     0.028 C 
HETATM   11  C10 UNL     1      25.495   3.355  50.449  1.00  0.00     0.114 C 
HETATM   12  N2  UNL     1      24.127   2.891  49.974  1.00  0.00    -0.267 NA
HETATM   13  C11 UNL     1      23.549   2.225  50.993  1.00  0.00     0.051 C 
HETATM   14  C12 UNL     1      23.225   3.328  52.008  1.00  0.00     0.097 C 
HETATM   15  C13 UNL     1      23.014   1.146  51.887  1.00  0.00     0.294 C 
HETATM   16  C14 UNL     1      21.613   1.338  52.177  1.00  0.00     0.011 C 
HETATM   17  C15 UNL     1      20.663   0.396  52.189  1.00  0.00    -0.025 C 
HETATM   18  C16 UNL     1      19.260   0.002  52.377  1.00  0.00     0.071 C 
ENDROOT
BRANCH   1  19
HETATM   19  O1  UNL     1      17.807  -1.321  53.565  1.00  0.00    -0.379 OA
HETATM   20  C1  UNL     1      16.886  -1.208  52.492  1.00  0.00     0.202 C 
ENDBRANCH   1  19
TORSDOF 1
ENDMDL
MODEL 6
REMARK VINA RESULT:      -6.8      8.711     10.801
REMARK  1 active torsions:
REMARK  status: ('A' for Active; 'I' for Inactive)
REMARK    1  A    between atoms: O1_2  and  C2_3 
ROOT
HETATM    1  C2  UNL     1      27.566   7.196  48.467  1.00  0.00     0.126 C 
HETATM    2  C3  UNL     1      28.793   7.663  48.433  1.00  0.00     0.198 C 
HETATM    3  O2  UNL     1      29.406   8.897  48.489  1.00  0.00    -0.352 OA
HETATM    4  C4  UNL     1      30.704   9.059  48.046  1.00  0.00     0.131 C 
HETATM    5  C5  UNL     1      32.007   8.907  47.966  1.00  0.00    -0.001 C 
HETATM    6  C6  UNL     1      32.785   8.010  48.852  1.00  0.00     0.059 C 
HETATM    7  C7  UNL     1      33.588   7.002  48.081  1.00  0.00     0.278 C 
HETATM    8  N1  UNL     1      32.741   6.196  47.277  1.00  0.00     0.111 N 
HETATM    9  C8  UNL     1      33.481   5.351  46.348  1.00  0.00     0.254 C 
HETATM   10  C9  UNL     1      34.630   4.606  47.034  1.00  0.00     0.028 C 
HETATM   11  C10 UNL     1      34.785   3.277  47.422  1.00  0.00     0.114 C 
HETATM   12  N2  UNL     1      33.396   2.949  47.945  1.00  0.00    -0.267 NA
HETATM   13  C11 UNL     1      32.640   4.057  47.810  1.00  0.00     0.051 C 
HETATM   14  C12 UNL     1      32.439   4.174  46.294  1.00  0.00     0.097 C 
HETATM   15  C13 UNL     1      31.866   5.312  48.082  1.00  0.00     0.294 C 
HETATM   16  C14 UNL     1      30.501   5.208  47.623  1.00  0.00     0.011 C 
HETATM   17  C15 UNL     1      29.405   5.613  48.275  1.00  0.00    -0.025 C 
HETATM   18  C16 UNL     1      27.945   5.768  48.342  1.00  0.00     0.071 C 
ENDROOT
BRANCH   1  19
HETATM   19  O1  UNL     1      26.206   7.253  48.545  1.00  0.00    -0.379 OA
HETATM   20  C1  UNL     1      25.422   6.357  49.318  1.00  0.00     0.202 C 
ENDBRANCH   1  19
TORSDOF 1
ENDMDL
MODEL 7
REMARK VINA RESULT:      -6.8      2.403      3.171
REMARK  1 active torsions:
REMARK  status: ('A' for Active; 'I' for Inactive)
REMARK    1  A    between atoms: O1_2  and  C2_3 
ROOT
HETATM    1  C2  UNL     1      20.455   3.024  51.245  1.00  0.00     0.126 C 
HETATM    2  C3  UNL     1      21.663   3.199  50.763  1.00  0.00     0.198 C 
HETATM    3  O2  UNL     1      22.230   3.743  49.629  1.00  0.00    -0.352 OA
HETATM    4  C4  UNL     1      23.524   3.425  49.267  1.00  0.00     0.131 C 
HETATM    5  C5  UNL     1      24.832   3.319  49.335  1.00  0.00    -0.001 C 
HETATM    6  C6  UNL     1      25.637   3.803  50.480  1.00  0.00     0.059 C 
HETATM    7  C7  UNL     1      26.483   2.718  51.083  1.00  0.00     0.278 C 
HETATM    8  N1  UNL     1      25.671   1.646  51.539  1.00  0.00     0.111 N 
HETATM    9  C8  UNL     1      26.449   0.477  51.932  1.00  0.00     0.254 C 
HETATM   10  C9  UNL     1      27.620   0.844  52.849  1.00  0.00     0.028 C 
HETATM   11  C10 UNL     1      27.822   0.688  54.218  1.00  0.00     0.114 C 
HETATM   12  N2  UNL     1      26.443   1.014  54.768  1.00  0.00    -0.267 NA
HETATM   13  C11 UNL     1      25.647   1.304  53.719  1.00  0.00     0.051 C 
HETATM   14  C12 UNL     1      25.451  -0.051  53.028  1.00  0.00     0.097 C 
HETATM   15  C13 UNL     1      24.824   2.026  52.694  1.00  0.00     0.294 C 
HETATM   16  C14 UNL     1      23.467   1.535  52.655  1.00  0.00     0.011 C 
HETATM   17  C15 UNL     1      22.353   2.270  52.570  1.00  0.00    -0.025 C 
HETATM   18  C16 UNL     1      20.888   2.362  52.500  1.00  0.00     0.071 C 
ENDROOT
BRANCH   1  19
HETATM   19  O1  UNL     1      19.093   3.090  51.267  1.00  0.00    -0.379 OA
HETATM   20  C1  UNL     1      18.333   3.987  50.472  1.00  0.00     0.202 C 
ENDBRANCH   1  19
TORSDOF 1
ENDMDL
MODEL 8
REMARK VINA RESULT:      -6.6      5.093      8.127
REMARK  1 active torsions:
REMARK  status: ('A' for Active; 'I' for Inactive)
REMARK    1  A    between atoms: O1_2  and  C2_3 
ROOT
HETATM    1  C2  UNL     1      27.882   6.517  48.379  1.00  0.00     0.126 C 
HETATM    2  C3  UNL     1      26.746   6.840  48.953  1.00  0.00     0.198 C 
HETATM    3  O2  UNL     1      26.063   7.998  49.262  1.00  0.00    -0.352 OA
HETATM    4  C4  UNL     1      25.058   7.991  50.208  1.00  0.00     0.131 C 
HETATM    5  C5  UNL     1      23.925   7.689  50.801  1.00  0.00    -0.001 C 
HETATM    6  C6  UNL     1      22.928   6.751  50.235  1.00  0.00     0.059 C 
HETATM    7  C7  UNL     1      22.606   5.624  51.175  1.00  0.00     0.278 C 
HETATM    8  N1  UNL     1      23.776   4.884  51.488  1.00  0.00     0.111 N 
HETATM    9  C8  UNL     1      23.563   3.919  52.560  1.00  0.00     0.254 C 
HETATM   10  C9  UNL     1      22.301   3.081  52.340  1.00  0.00     0.028 C 
HETATM   11  C10 UNL     1      22.111   1.761  51.935  1.00  0.00     0.114 C 
HETATM   12  N2  UNL     1      23.178   1.617  50.862  1.00  0.00    -0.267 NA
HETATM   13  C11 UNL     1      23.826   2.796  50.773  1.00  0.00     0.051 C 
HETATM   14  C12 UNL     1      24.629   2.866  52.078  1.00  0.00     0.097 C 
HETATM   15  C13 UNL     1      24.308   4.142  50.320  1.00  0.00     0.294 C 
HETATM   16  C14 UNL     1      25.743   4.173  50.170  1.00  0.00     0.011 C 
HETATM   17  C15 UNL     1      26.430   4.729  49.166  1.00  0.00    -0.025 C 
HETATM   18  C16 UNL     1      27.711   5.051  48.521  1.00  0.00     0.071 C 
ENDROOT
BRANCH   1  19
HETATM   19  O1  UNL     1      29.076   6.731  47.756  1.00  0.00    -0.379 OA
HETATM   20  C1  UNL     1      30.300   6.935  48.444  1.00  0.00     0.202 C 
ENDBRANCH   1  19
TORSDOF 1
ENDMDL
MODEL 9
REMARK VINA RESULT:      -6.6      3.219      5.587
REMARK  1 active torsions:
REMARK  status: ('A' for Active; 'I' for Inactive)
REMARK    1  A    between atoms: O1_2  and  C2_3 
ROOT
HETATM    1  C2  UNL     1      23.490  -0.060  53.406  1.00  0.00     0.126 C 
HETATM    2  C3  UNL     1      24.394   0.630  52.750  1.00  0.00     0.198 C 
HETATM    3  O2  UNL     1      25.761   0.592  52.572  1.00  0.00    -0.352 OA
HETATM    4  C4  UNL     1      26.442   1.702  52.113  1.00  0.00     0.131 C 
HETATM    5  C5  UNL     1      26.810   2.681  51.316  1.00  0.00    -0.001 C 
HETATM    6  C6  UNL     1      26.218   2.917  49.979  1.00  0.00     0.059 C 
HETATM    7  C7  UNL     1      25.658   4.304  49.839  1.00  0.00     0.278 C 
HETATM    8  N1  UNL     1      24.650   4.536  50.812  1.00  0.00     0.111 N 
HETATM    9  C8  UNL     1      24.227   5.930  50.863  1.00  0.00     0.254 C 
HETATM   10  C9  UNL     1      23.932   6.496  49.471  1.00  0.00     0.028 C 
HETATM   11  C10 UNL     1      22.740   6.789  48.812  1.00  0.00     0.114 C 
HETATM   12  N2  UNL     1      21.865   5.620  49.233  1.00  0.00    -0.267 NA
HETATM   13  C11 UNL     1      22.603   4.831  50.040  1.00  0.00     0.051 C 
HETATM   14  C12 UNL     1      22.746   5.659  51.323  1.00  0.00     0.097 C 
HETATM   15  C13 UNL     1      23.440   3.711  50.584  1.00  0.00     0.294 C 
HETATM   16  C14 UNL     1      22.853   3.133  51.770  1.00  0.00     0.011 C 
HETATM   17  C15 UNL     1      22.756   1.832  52.061  1.00  0.00    -0.025 C 
HETATM   18  C16 UNL     1      22.331   0.755  52.967  1.00  0.00     0.071 C 
ENDROOT
BRANCH   1  19
HETATM   19  O1  UNL     1      23.013  -1.044  54.220  1.00  0.00    -0.379 OA
HETATM   20  C1  UNL     1      21.656  -1.145  54.624  1.00  0.00     0.202 C 
ENDBRANCH   1  19
TORSDOF 1
ENDMDL
