MODEL 1
REMARK VINA RESULT:      -7.9      0.000      0.000
REMARK  8 active torsions:
REMARK  status: ('A' for Active; 'I' for Inactive)
REMARK    1  A    between atoms: O1_2  and  C2_3 
REMARK    2  A    between atoms: C5_6  and  N1_7 
REMARK    3  A    between atoms: N1_7  and  C6_8 
REMARK    4  A    between atoms: C13_17  and  O2_18 
REMARK    5  A    between atoms: O2_18  and  C14_19 
REMARK    6  A    between atoms: C14_19  and  C15_20 
REMARK    7  A    between atoms: C15_20  and  C16_21 
REMARK    8  A    between atoms: C16_21  and  N2_22 
ROOT
HETATM    1  C2  UNL     1      22.232   0.946  51.619  1.00  0.00     0.124 C 
HETATM    2  C3  UNL     1      22.044   2.033  50.806  1.00  0.00     0.051 C 
HETATM    3  C4  UNL     1      22.525   3.423  51.274  1.00  0.00     0.120 C 
HETATM    4  C5  UNL     1      23.930   3.255  50.595  1.00  0.00     0.153 C 
HETATM    5  C12 UNL     1      24.409   2.013  51.307  1.00  0.00     0.068 C 
HETATM    6  C13 UNL     1      23.708   1.016  51.883  1.00  0.00     0.104 C 
HETATM    7  N3  UNL     1      23.636   3.085  49.202  1.00  0.00    -0.248 NA
HETATM    8  C21 UNL     1      22.524   2.634  48.678  1.00  0.00     0.204 C 
HETATM    9  N4  UNL     1      21.465   1.979  49.459  1.00  0.00    -0.352 N 
HETATM   10  H26 UNL     1      20.546   1.493  49.497  1.00  0.00     0.166 HD
ENDROOT
BRANCH   4  11
HETATM   11  N1  UNL     1      24.770   4.358  50.810  1.00  0.00    -0.358 N 
HETATM   12  H6  UNL     1      24.684   4.796  51.776  1.00  0.00     0.162 HD
BRANCH  11  13
HETATM   13  C6  UNL     1      25.705   4.973  49.957  1.00  0.00     0.032 A 
HETATM   14  C7  UNL     1      26.799   4.259  49.454  1.00  0.00     0.032 A 
HETATM   15  C8  UNL     1      27.752   4.772  48.610  1.00  0.00     0.046 A 
HETATM   16  C9  UNL     1      27.593   6.092  48.250  1.00  0.00     0.138 A 
HETATM   17  F1  UNL     1      28.527   6.615  47.416  1.00  0.00    -0.204 F 
HETATM   18  C10 UNL     1      26.545   6.894  48.690  1.00  0.00     0.074 A 
HETATM   19 CL1  UNL     1      26.389   8.571  48.201  1.00  0.00    -0.081 Cl
HETATM   20  C11 UNL     1      25.658   6.280  49.524  1.00  0.00     0.056 A 
ENDBRANCH  11  13
ENDBRANCH   4  11
BRANCH   6  21
HETATM   21  O2  UNL     1      24.037  -0.031  52.716  1.00  0.00    -0.348 OA
BRANCH  21  22
HETATM   22  C14 UNL     1      24.123   0.083  54.122  1.00  0.00     0.177 C 
BRANCH  22  23
HETATM   23  C15 UNL     1      25.318  -0.759  54.586  1.00  0.00     0.057 C 
BRANCH  23  24
HETATM   24  C16 UNL     1      26.460   0.201  54.843  1.00  0.00     0.274 C 
BRANCH  24  25
HETATM   25  N2  UNL     1      27.588  -0.058  53.981  1.00  0.00     0.092 N 
HETATM   26  C17 UNL     1      28.797   0.217  54.698  1.00  0.00     0.298 C 
HETATM   27  C18 UNL     1      29.287   1.632  54.474  1.00  0.00     0.198 C 
HETATM   28  O3  UNL     1      28.242   2.525  54.253  1.00  0.00    -0.388 OA
HETATM   29  C19 UNL     1      27.483   2.187  53.145  1.00  0.00     0.198 C 
HETATM   30  C20 UNL     1      27.560   0.734  52.783  1.00  0.00     0.298 C 
ENDBRANCH  24  25
ENDBRANCH  23  24
ENDBRANCH  22  23
ENDBRANCH  21  22
ENDBRANCH   6  21
BRANCH   1  31
HETATM   31  O1  UNL     1      21.042   0.287  51.828  1.00  0.00    -0.351 OA
HETATM   32  C1  UNL     1      20.176   0.536  52.909  1.00  0.00     0.210 C 
ENDBRANCH   1  31
TORSDOF 8
ENDMDL
MODEL 2
REMARK VINA RESULT:      -7.8      3.650      6.140
REMARK  8 active torsions:
REMARK  status: ('A' for Active; 'I' for Inactive)
REMARK    1  A    between atoms: O1_2  and  C2_3 
REMARK    2  A    between atoms: C5_6  and  N1_7 
REMARK    3  A    between atoms: N1_7  and  C6_8 
REMARK    4  A    between atoms: C13_17  and  O2_18 
REMARK    5  A    between atoms: O2_18  and  C14_19 
REMARK    6  A    between atoms: C14_19  and  C15_20 
REMARK    7  A    between atoms: C15_20  and  C16_21 
REMARK    8  A    between atoms: C16_21  and  N2_22 
ROOT
HETATM    1  C2  UNL     1      23.537   4.263  48.956  1.00  0.00     0.124 C 
HETATM    2  C3  UNL     1      24.715   4.711  49.495  1.00  0.00     0.051 C 
HETATM    3  C4  UNL     1      24.915   4.667  51.025  1.00  0.00     0.120 C 
HETATM    4  C5  UNL     1      25.566   3.240  50.981  1.00  0.00     0.153 C 
HETATM    5  C12 UNL     1      24.437   2.465  50.346  1.00  0.00     0.068 C 
HETATM    6  C13 UNL     1      23.443   2.882  49.537  1.00  0.00     0.104 C 
HETATM    7  N3  UNL     1      26.731   3.404  50.161  1.00  0.00    -0.248 NA
HETATM    8  C21 UNL     1      26.929   4.315  49.241  1.00  0.00     0.204 C 
HETATM    9  N4  UNL     1      25.865   5.183  48.716  1.00  0.00    -0.352 N 
HETATM   10  H26 UNL     1      25.555   5.927  48.058  1.00  0.00     0.166 HD
ENDROOT
BRANCH   4  11
HETATM   11  N1  UNL     1      25.901   2.759  52.255  1.00  0.00    -0.358 N 
HETATM   12  H6  UNL     1      25.385   3.234  53.056  1.00  0.00     0.162 HD
BRANCH  11  13
HETATM   13  C6  UNL     1      26.806   1.752  52.643  1.00  0.00     0.032 A 
HETATM   14  C7  UNL     1      28.008   2.073  53.284  1.00  0.00     0.032 A 
HETATM   15  C8  UNL     1      28.942   1.159  53.706  1.00  0.00     0.046 A 
HETATM   16  C9  UNL     1      28.644  -0.164  53.466  1.00  0.00     0.138 A 
HETATM   17  F1  UNL     1      29.557  -1.079  53.877  1.00  0.00    -0.204 F 
HETATM   18  C10 UNL     1      27.480  -0.594  52.837  1.00  0.00     0.074 A 
HETATM   19 CL1  UNL     1      27.150  -2.293  52.556  1.00  0.00    -0.081 Cl
HETATM   20  C11 UNL     1      26.625   0.399  52.461  1.00  0.00     0.056 A 
ENDBRANCH  11  13
ENDBRANCH   4  11
BRANCH   6  21
HETATM   21  O2  UNL     1      22.274   2.312  49.080  1.00  0.00    -0.348 OA
BRANCH  21  22
HETATM   22  C14 UNL     1      21.700   1.148  49.638  1.00  0.00     0.177 C 
BRANCH  22  23
HETATM   23  C15 UNL     1      20.858   1.576  50.846  1.00  0.00     0.057 C 
BRANCH  23  24
HETATM   24  C16 UNL     1      20.951   0.461  51.866  1.00  0.00     0.274 C 
BRANCH  24  25
HETATM   25  N2  UNL     1      21.442   0.933  53.139  1.00  0.00     0.092 N 
HETATM   26  C17 UNL     1      22.857   0.725  53.200  1.00  0.00     0.298 C 
HETATM   27  C18 UNL     1      23.214  -0.595  53.851  1.00  0.00     0.198 C 
HETATM   28  O3  UNL     1      22.249  -1.573  53.626  1.00  0.00    -0.388 OA
HETATM   29  C19 UNL     1      21.006  -1.211  54.119  1.00  0.00     0.198 C 
HETATM   30  C20 UNL     1      20.819   0.270  54.250  1.00  0.00     0.298 C 
ENDBRANCH  24  25
ENDBRANCH  23  24
ENDBRANCH  22  23
ENDBRANCH  21  22
ENDBRANCH   6  21
BRANCH   1  31
HETATM   31  O1  UNL     1      22.979   5.226  48.148  1.00  0.00    -0.351 OA
HETATM   32  C1  UNL     1      22.218   6.314  48.617  1.00  0.00     0.210 C 
ENDBRANCH   1  31
TORSDOF 8
ENDMDL
MODEL 3
REMARK VINA RESULT:      -7.8      3.690      5.535
REMARK  8 active torsions:
REMARK  status: ('A' for Active; 'I' for Inactive)
REMARK    1  A    between atoms: O1_2  and  C2_3 
REMARK    2  A    between atoms: C5_6  and  N1_7 
REMARK    3  A    between atoms: N1_7  and  C6_8 
REMARK    4  A    between atoms: C13_17  and  O2_18 
REMARK    5  A    between atoms: O2_18  and  C14_19 
REMARK    6  A    between atoms: C14_19  and  C15_20 
REMARK    7  A    between atoms: C15_20  and  C16_21 
REMARK    8  A    between atoms: C16_21  and  N2_22 
ROOT
HETATM    1  C2  UNL     1      21.767   3.754  51.005  1.00  0.00     0.124 C 
HETATM    2  C3  UNL     1      22.752   4.466  51.639  1.00  0.00     0.051 C 
HETATM    3  C4  UNL     1      24.001   3.729  52.168  1.00  0.00     0.120 C 
HETATM    4  C5  UNL     1      24.800   3.959  50.837  1.00  0.00     0.153 C 
HETATM    5  C12 UNL     1      23.874   3.269  49.863  1.00  0.00     0.068 C 
HETATM    6  C13 UNL     1      22.547   3.044  49.935  1.00  0.00     0.104 C 
HETATM    7  N3  UNL     1      24.873   5.385  50.704  1.00  0.00    -0.248 NA
HETATM    8  C21 UNL     1      24.052   6.269  51.214  1.00  0.00     0.204 C 
HETATM    9  N4  UNL     1      22.752   5.923  51.808  1.00  0.00    -0.352 N 
HETATM   10  H26 UNL     1      21.859   6.220  52.251  1.00  0.00     0.166 HD
ENDROOT
BRANCH   4  11
HETATM   11  N1  UNL     1      26.078   3.382  50.867  1.00  0.00    -0.358 N 
HETATM   12  H6  UNL     1      26.782   3.834  50.210  1.00  0.00     0.162 HD
BRANCH  11  13
HETATM   13  C6  UNL     1      26.577   2.306  51.626  1.00  0.00     0.032 A 
HETATM   14  C7  UNL     1      26.087   1.007  51.441  1.00  0.00     0.032 A 
HETATM   15  C8  UNL     1      26.520  -0.101  52.126  1.00  0.00     0.046 A 
HETATM   16  C9  UNL     1      27.512   0.113  53.058  1.00  0.00     0.138 A 
HETATM   17  F1  UNL     1      27.950  -0.972  53.743  1.00  0.00    -0.204 F 
HETATM   18  C10 UNL     1      28.069   1.360  53.322  1.00  0.00     0.074 A 
HETATM   19 CL1  UNL     1      29.330   1.578  54.521  1.00  0.00    -0.081 Cl
HETATM   20  C11 UNL     1      27.563   2.388  52.583  1.00  0.00     0.056 A 
ENDBRANCH  11  13
ENDBRANCH   4  11
BRANCH   6  21
HETATM   21  O2  UNL     1      21.665   2.266  49.218  1.00  0.00    -0.348 OA
BRANCH  21  22
HETATM   22  C14 UNL     1      20.934   1.193  49.776  1.00  0.00     0.177 C 
BRANCH  22  23
HETATM   23  C15 UNL     1      21.818   0.529  50.839  1.00  0.00     0.057 C 
BRANCH  23  24
HETATM   24  C16 UNL     1      20.927   0.222  52.024  1.00  0.00     0.274 C 
BRANCH  24  25
HETATM   25  N2  UNL     1      21.448   0.778  53.249  1.00  0.00     0.092 N 
HETATM   26  C17 UNL     1      22.862   0.557  53.298  1.00  0.00     0.298 C 
HETATM   27  C18 UNL     1      23.218  -0.717  54.035  1.00  0.00     0.198 C 
HETATM   28  O3  UNL     1      22.238  -1.697  53.901  1.00  0.00    -0.388 OA
HETATM   29  C19 UNL     1      21.009  -1.286  54.390  1.00  0.00     0.198 C 
HETATM   30  C20 UNL     1      20.841   0.204  54.417  1.00  0.00     0.298 C 
ENDBRANCH  24  25
ENDBRANCH  23  24
ENDBRANCH  22  23
ENDBRANCH  21  22
ENDBRANCH   6  21
BRANCH   1  31
HETATM   31  O1  UNL     1      20.546   3.990  51.591  1.00  0.00    -0.351 OA
HETATM   32  C1  UNL     1      19.371   4.302  50.881  1.00  0.00     0.210 C 
ENDBRANCH   1  31
TORSDOF 8
ENDMDL
MODEL 4
REMARK VINA RESULT:      -7.7      1.961      5.430
REMARK  8 active torsions:
REMARK  status: ('A' for Active; 'I' for Inactive)
REMARK    1  A    between atoms: O1_2  and  C2_3 
REMARK    2  A    between atoms: C5_6  and  N1_7 
REMARK    3  A    between atoms: N1_7  and  C6_8 
REMARK    4  A    between atoms: C13_17  and  O2_18 
REMARK    5  A    between atoms: O2_18  and  C14_19 
REMARK    6  A    between atoms: C14_19  and  C15_20 
REMARK    7  A    between atoms: C15_20  and  C16_21 
REMARK    8  A    between atoms: C16_21  and  N2_22 
ROOT
HETATM    1  C2  UNL     1      25.413  -0.071  53.727  1.00  0.00     0.124 C 
HETATM    2  C3  UNL     1      26.632   0.256  53.195  1.00  0.00     0.051 C 
HETATM    3  C4  UNL     1      26.818   0.252  51.662  1.00  0.00     0.120 C 
HETATM    4  C5  UNL     1      26.441   1.770  51.531  1.00  0.00     0.153 C 
HETATM    5  C12 UNL     1      25.052   1.738  52.123  1.00  0.00     0.068 C 
HETATM    6  C13 UNL     1      24.503   0.883  53.007  1.00  0.00     0.104 C 
HETATM    7  N3  UNL     1      27.425   2.452  52.320  1.00  0.00    -0.248 NA
HETATM    8  C21 UNL     1      28.112   1.964  53.323  1.00  0.00     0.204 C 
HETATM    9  N4  UNL     1      27.798   0.684  53.976  1.00  0.00    -0.352 N 
HETATM   10  H26 UNL     1      27.993  -0.016  54.719  1.00  0.00     0.166 HD
ENDROOT
BRANCH   4  11
HETATM   11  N1  UNL     1      26.452   2.217  50.202  1.00  0.00    -0.358 N 
HETATM   12  H6  UNL     1      26.670   1.462  49.484  1.00  0.00     0.162 HD
BRANCH  11  13
HETATM   13  C6  UNL     1      26.219   3.498  49.668  1.00  0.00     0.032 A 
HETATM   14  C7  UNL     1      24.930   4.045  49.643  1.00  0.00     0.032 A 
HETATM   15  C8  UNL     1      24.613   5.287  49.154  1.00  0.00     0.046 A 
HETATM   16  C9  UNL     1      25.662   6.027  48.655  1.00  0.00     0.138 A 
HETATM   17  F1  UNL     1      25.364   7.257  48.167  1.00  0.00    -0.204 F 
HETATM   18  C10 UNL     1      26.980   5.582  48.630  1.00  0.00     0.074 A 
HETATM   19 CL1  UNL     1      28.280   6.566  47.983  1.00  0.00    -0.081 Cl
HETATM   20  C11 UNL     1      27.179   4.335  49.142  1.00  0.00     0.056 A 
ENDBRANCH  11  13
ENDBRANCH   4  11
BRANCH   6  21
HETATM   21  O2  UNL     1      23.217   0.649  53.445  1.00  0.00    -0.348 OA
BRANCH  21  22
HETATM   22  C14 UNL     1      22.354  -0.308  52.865  1.00  0.00     0.177 C 
BRANCH  22  23
HETATM   23  C15 UNL     1      20.943  -0.054  53.410  1.00  0.00     0.057 C 
BRANCH  23  24
HETATM   24  C16 UNL     1      20.603   1.388  53.098  1.00  0.00     0.274 C 
BRANCH  24  25
HETATM   25  N2  UNL     1      20.747   1.685  51.693  1.00  0.00     0.092 N 
HETATM   26  C17 UNL     1      21.276   3.007  51.547  1.00  0.00     0.298 C 
HETATM   27  C18 UNL     1      20.186   4.046  51.385  1.00  0.00     0.198 C 
HETATM   28  O3  UNL     1      19.020   3.698  52.060  1.00  0.00    -0.388 OA
HETATM   29  C19 UNL     1      18.491   2.497  51.619  1.00  0.00     0.198 C 
HETATM   30  C20 UNL     1      19.503   1.593  50.980  1.00  0.00     0.298 C 
ENDBRANCH  24  25
ENDBRANCH  23  24
ENDBRANCH  22  23
ENDBRANCH  21  22
ENDBRANCH   6  21
BRANCH   1  31
HETATM   31  O1  UNL     1      25.543  -1.080  54.652  1.00  0.00    -0.351 OA
HETATM   32  C1  UNL     1      25.071  -1.010  55.976  1.00  0.00     0.210 C 
ENDBRANCH   1  31
TORSDOF 8
ENDMDL
MODEL 5
REMARK VINA RESULT:      -7.5      3.717      6.187
REMARK  8 active torsions:
REMARK  status: ('A' for Active; 'I' for Inactive)
REMARK    1  A    between atoms: O1_2  and  C2_3 
REMARK    2  A    between atoms: C5_6  and  N1_7 
REMARK    3  A    between atoms: N1_7  and  C6_8 
REMARK    4  A    between atoms: C13_17  and  O2_18 
REMARK    5  A    between atoms: O2_18  and  C14_19 
REMARK    6  A    between atoms: C14_19  and  C15_20 
REMARK    7  A    between atoms: C15_20  and  C16_21 
REMARK    8  A    between atoms: C16_21  and  N2_22 
ROOT
HETATM    1  C2  UNL     1      21.175   2.933  52.369  1.00  0.00     0.124 C 
HETATM    2  C3  UNL     1      21.505   1.604  52.405  1.00  0.00     0.051 C 
HETATM    3  C4  UNL     1      22.503   1.041  51.369  1.00  0.00     0.120 C 
HETATM    4  C5  UNL     1      23.739   1.295  52.303  1.00  0.00     0.153 C 
HETATM    5  C12 UNL     1      23.611   2.787  52.493  1.00  0.00     0.068 C 
HETATM    6  C13 UNL     1      22.527   3.584  52.419  1.00  0.00     0.104 C 
HETATM    7  N3  UNL     1      23.474   0.506  53.471  1.00  0.00    -0.248 NA
HETATM    8  C21 UNL     1      22.304   0.118  53.914  1.00  0.00     0.204 C 
HETATM    9  N4  UNL     1      21.029   0.650  53.413  1.00  0.00    -0.352 N 
HETATM   10  H26 UNL     1      19.990   0.684  53.457  1.00  0.00     0.166 HD
ENDROOT
BRANCH   4  11
HETATM   11  N1  UNL     1      24.954   0.929  51.703  1.00  0.00    -0.358 N 
HETATM   12  H6  UNL     1      24.935   0.920  50.639  1.00  0.00     0.162 HD
BRANCH  11  13
HETATM   13  C6  UNL     1      26.188   0.576  52.281  1.00  0.00     0.032 A 
HETATM   14  C7  UNL     1      27.022   1.548  52.846  1.00  0.00     0.032 A 
HETATM   15  C8  UNL     1      28.233   1.295  53.439  1.00  0.00     0.046 A 
HETATM   16  C9  UNL     1      28.630  -0.023  53.466  1.00  0.00     0.138 A 
HETATM   17  F1  UNL     1      29.826  -0.290  54.049  1.00  0.00    -0.204 F 
HETATM   18  C10 UNL     1      27.881  -1.068  52.935  1.00  0.00     0.074 A 
HETATM   19 CL1  UNL     1      28.433  -2.732  52.995  1.00  0.00    -0.081 Cl
HETATM   20  C11 UNL     1      26.695  -0.701  52.371  1.00  0.00     0.056 A 
ENDBRANCH  11  13
ENDBRANCH   4  11
BRANCH   6  21
HETATM   21  O2  UNL     1      22.339   4.948  52.373  1.00  0.00    -0.348 OA
BRANCH  21  22
HETATM   22  C14 UNL     1      23.397   5.885  52.369  1.00  0.00     0.177 C 
BRANCH  22  23
HETATM   23  C15 UNL     1      23.512   6.452  50.949  1.00  0.00     0.057 C 
BRANCH  23  24
HETATM   24  C16 UNL     1      24.944   6.242  50.504  1.00  0.00     0.274 C 
BRANCH  24  25
HETATM   25  N2  UNL     1      25.027   5.854  49.117  1.00  0.00     0.092 N 
HETATM   26  C17 UNL     1      23.994   4.902  48.836  1.00  0.00     0.298 C 
HETATM   27  C18 UNL     1      24.474   3.474  48.990  1.00  0.00     0.198 C 
HETATM   28  O3  UNL     1      25.462   3.351  49.963  1.00  0.00    -0.388 OA
HETATM   29  C19 UNL     1      26.581   4.117  49.680  1.00  0.00     0.198 C 
HETATM   30  C20 UNL     1      26.300   5.282  48.780  1.00  0.00     0.298 C 
ENDBRANCH  24  25
ENDBRANCH  23  24
ENDBRANCH  22  23
ENDBRANCH  21  22
ENDBRANCH   6  21
BRANCH   1  31
HETATM   31  O1  UNL     1      19.809   3.090  52.310  1.00  0.00    -0.351 OA
HETATM   32  C1  UNL     1      19.023   2.787  51.183  1.00  0.00     0.210 C 
ENDBRANCH   1  31
TORSDOF 8
ENDMDL
MODEL 6
REMARK VINA RESULT:      -7.5      3.978      6.867
REMARK  8 active torsions:
REMARK  status: ('A' for Active; 'I' for Inactive)
REMARK    1  A    between atoms: O1_2  and  C2_3 
REMARK    2  A    between atoms: C5_6  and  N1_7 
REMARK    3  A    between atoms: N1_7  and  C6_8 
REMARK    4  A    between atoms: C13_17  and  O2_18 
REMARK    5  A    between atoms: O2_18  and  C14_19 
REMARK    6  A    between atoms: C14_19  and  C15_20 
REMARK    7  A    between atoms: C15_20  and  C16_21 
REMARK    8  A    between atoms: C16_21  and  N2_22 
ROOT
HETATM    1  C2  UNL     1      21.854   2.815  51.847  1.00  0.00     0.124 C 
HETATM    2  C3  UNL     1      22.770   3.728  52.298  1.00  0.00     0.051 C 
HETATM    3  C4  UNL     1      24.151   3.241  52.788  1.00  0.00     0.120 C 
HETATM    4  C5  UNL     1      24.802   3.404  51.370  1.00  0.00     0.153 C 
HETATM    5  C12 UNL     1      23.913   2.478  50.574  1.00  0.00     0.068 C 
HETATM    6  C13 UNL     1      22.643   2.087  50.797  1.00  0.00     0.104 C 
HETATM    7  N3  UNL     1      24.656   4.799  51.068  1.00  0.00    -0.248 NA
HETATM    8  C21 UNL     1      23.757   5.622  51.548  1.00  0.00     0.204 C 
HETATM    9  N4  UNL     1      22.572   5.182  52.298  1.00  0.00    -0.352 N 
HETATM   10  H26 UNL     1      21.682   5.410  52.786  1.00  0.00     0.166 HD
ENDROOT
BRANCH   4  11
HETATM   11  N1  UNL     1      26.149   3.014  51.345  1.00  0.00    -0.358 N 
HETATM   12  H6  UNL     1      26.762   3.586  50.690  1.00  0.00     0.162 HD
BRANCH  11  13
HETATM   13  C6  UNL     1      26.816   1.992  52.046  1.00  0.00     0.032 A 
HETATM   14  C7  UNL     1      27.814   2.293  52.981  1.00  0.00     0.032 A 
HETATM   15  C8  UNL     1      28.508   1.365  53.716  1.00  0.00     0.046 A 
HETATM   16  C9  UNL     1      28.175   0.047  53.496  1.00  0.00     0.138 A 
HETATM   17  F1  UNL     1      28.852  -0.882  54.215  1.00  0.00    -0.204 F 
HETATM   18  C10 UNL     1      27.201  -0.365  52.592  1.00  0.00     0.074 A 
HETATM   19 CL1  UNL     1      26.816  -2.058  52.350  1.00  0.00    -0.081 Cl
HETATM   20  C11 UNL     1      26.576   0.641  51.917  1.00  0.00     0.056 A 
ENDBRANCH  11  13
ENDBRANCH   4  11
BRANCH   6  21
HETATM   21  O2  UNL     1      21.831   1.112  50.261  1.00  0.00    -0.348 OA
BRANCH  21  22
HETATM   22  C14 UNL     1      21.496   1.037  48.890  1.00  0.00     0.177 C 
BRANCH  22  23
HETATM   23  C15 UNL     1      20.273   1.934  48.659  1.00  0.00     0.057 C 
BRANCH  23  24
HETATM   24  C16 UNL     1      20.681   2.983  47.646  1.00  0.00     0.274 C 
BRANCH  24  25
HETATM   25  N2  UNL     1      20.320   4.313  48.073  1.00  0.00     0.092 N 
HETATM   26  C17 UNL     1      20.006   5.104  46.922  1.00  0.00     0.298 C 
HETATM   27  C18 UNL     1      21.204   5.877  46.412  1.00  0.00     0.198 C 
HETATM   28  O3  UNL     1      22.403   5.209  46.648  1.00  0.00    -0.388 OA
HETATM   29  C19 UNL     1      22.623   4.978  47.995  1.00  0.00     0.198 C 
HETATM   30  C20 UNL     1      21.368   4.957  48.815  1.00  0.00     0.298 C 
ENDBRANCH  24  25
ENDBRANCH  23  24
ENDBRANCH  22  23
ENDBRANCH  21  22
ENDBRANCH   6  21
BRANCH   1  31
HETATM   31  O1  UNL     1      20.660   2.957  52.515  1.00  0.00    -0.351 OA
HETATM   32  C1  UNL     1      19.440   3.293  51.899  1.00  0.00     0.210 C 
ENDBRANCH   1  31
TORSDOF 8
ENDMDL
MODEL 7
REMARK VINA RESULT:      -7.4      3.983      6.652
REMARK  8 active torsions:
REMARK  status: ('A' for Active; 'I' for Inactive)
REMARK    1  A    between atoms: O1_2  and  C2_3 
REMARK    2  A    between atoms: C5_6  and  N1_7 
REMARK    3  A    between atoms: N1_7  and  C6_8 
REMARK    4  A    between atoms: C13_17  and  O2_18 
REMARK    5  A    between atoms: O2_18  and  C14_19 
REMARK    6  A    between atoms: C14_19  and  C15_20 
REMARK    7  A    between atoms: C15_20  and  C16_21 
REMARK    8  A    between atoms: C16_21  and  N2_22 
ROOT
HETATM    1  C2  UNL     1      20.128   0.226  53.145  1.00  0.00     0.124 C 
HETATM    2  C3  UNL     1      21.151  -0.668  53.321  1.00  0.00     0.051 C 
HETATM    3  C4  UNL     1      22.298  -0.724  52.289  1.00  0.00     0.120 C 
HETATM    4  C5  UNL     1      23.170   0.314  53.081  1.00  0.00     0.153 C 
HETATM    5  C12 UNL     1      22.221   1.488  53.091  1.00  0.00     0.068 C 
HETATM    6  C13 UNL     1      20.876   1.520  53.004  1.00  0.00     0.104 C 
HETATM    7  N3  UNL     1      23.390  -0.304  54.356  1.00  0.00    -0.248 NA
HETATM    8  C21 UNL     1      22.642  -1.209  54.936  1.00  0.00     0.204 C 
HETATM    9  N4  UNL     1      21.291  -1.562  54.476  1.00  0.00    -0.352 N 
HETATM   10  H26 UNL     1      20.415  -2.108  54.598  1.00  0.00     0.166 HD
ENDROOT
BRANCH   4  11
HETATM   11  N1  UNL     1      24.382   0.605  52.437  1.00  0.00    -0.358 N 
HETATM   12  H6  UNL     1      24.276   1.095  51.498  1.00  0.00     0.162 HD
BRANCH  11  13
HETATM   13  C6  UNL     1      25.709   0.355  52.833  1.00  0.00     0.032 A 
HETATM   14  C7  UNL     1      26.487   1.361  53.421  1.00  0.00     0.032 A 
HETATM   15  C8  UNL     1      27.782   1.205  53.847  1.00  0.00     0.046 A 
HETATM   16  C9  UNL     1      28.331  -0.045  53.669  1.00  0.00     0.138 A 
HETATM   17  F1  UNL     1      29.610  -0.215  54.085  1.00  0.00    -0.204 F 
HETATM   18  C10 UNL     1      27.650  -1.115  53.098  1.00  0.00     0.074 A 
HETATM   19 CL1  UNL     1      28.397  -2.689  52.895  1.00  0.00    -0.081 Cl
HETATM   20  C11 UNL     1      26.370  -0.847  52.712  1.00  0.00     0.056 A 
ENDBRANCH  11  13
ENDBRANCH   4  11
BRANCH   6  21
HETATM   21  O2  UNL     1      19.951   2.521  52.803  1.00  0.00    -0.348 OA
BRANCH  21  22
HETATM   22  C14 UNL     1      20.061   3.497  51.786  1.00  0.00     0.177 C 
BRANCH  22  23
HETATM   23  C15 UNL     1      20.020   2.771  50.436  1.00  0.00     0.057 C 
BRANCH  23  24
HETATM   24  C16 UNL     1      20.648   3.698  49.417  1.00  0.00     0.274 C 
BRANCH  24  25
HETATM   25  N2  UNL     1      21.603   3.012  48.580  1.00  0.00     0.092 N 
HETATM   26  C17 UNL     1      22.440   2.191  49.402  1.00  0.00     0.298 C 
HETATM   27  C18 UNL     1      23.711   2.902  49.815  1.00  0.00     0.198 C 
HETATM   28  O3  UNL     1      23.531   4.277  49.941  1.00  0.00    -0.388 OA
HETATM   29  C19 UNL     1      23.113   4.866  48.758  1.00  0.00     0.198 C 
HETATM   30  C20 UNL     1      22.424   3.916  47.825  1.00  0.00     0.298 C 
ENDBRANCH  24  25
ENDBRANCH  23  24
ENDBRANCH  22  23
ENDBRANCH  21  22
ENDBRANCH   6  21
BRANCH   1  31
HETATM   31  O1  UNL     1      18.913  -0.418  53.176  1.00  0.00    -0.351 OA
HETATM   32  C1  UNL     1      18.008  -0.458  52.099  1.00  0.00     0.210 C 
ENDBRANCH   1  31
TORSDOF 8
ENDMDL
MODEL 8
REMARK VINA RESULT:      -7.3      4.390      7.216
REMARK  8 active torsions:
REMARK  status: ('A' for Active; 'I' for Inactive)
REMARK    1  A    between atoms: O1_2  and  C2_3 
REMARK    2  A    between atoms: C5_6  and  N1_7 
REMARK    3  A    between atoms: N1_7  and  C6_8 
REMARK    4  A    between atoms: C13_17  and  O2_18 
REMARK    5  A    between atoms: O2_18  and  C14_19 
REMARK    6  A    between atoms: C14_19  and  C15_20 
REMARK    7  A    between atoms: C15_20  and  C16_21 
REMARK    8  A    between atoms: C16_21  and  N2_22 
ROOT
HETATM    1  C2  UNL     1      24.641   4.431  49.417  1.00  0.00     0.124 C 
HETATM    2  C3  UNL     1      23.865   3.931  50.430  1.00  0.00     0.051 C 
HETATM    3  C4  UNL     1      23.812   2.405  50.664  1.00  0.00     0.120 C 
HETATM    4  C5  UNL     1      24.996   2.440  51.693  1.00  0.00     0.153 C 
HETATM    5  C12 UNL     1      26.075   3.032  50.817  1.00  0.00     0.068 C 
HETATM    6  C13 UNL     1      25.977   3.822  49.730  1.00  0.00     0.104 C 
HETATM    7  N3  UNL     1      24.530   3.294  52.747  1.00  0.00    -0.248 NA
HETATM    8  C21 UNL     1      23.623   4.235  52.660  1.00  0.00     0.204 C 
HETATM    9  N4  UNL     1      23.106   4.748  51.383  1.00  0.00    -0.352 N 
HETATM   10  H26 UNL     1      22.497   5.411  50.862  1.00  0.00     0.166 HD
ENDROOT
BRANCH   4  11
HETATM   11  N1  UNL     1      25.331   1.167  52.176  1.00  0.00    -0.358 N 
HETATM   12  H6  UNL     1      24.521   0.476  52.196  1.00  0.00     0.162 HD
BRANCH  11  13
HETATM   13  C6  UNL     1      26.560   0.657  52.634  1.00  0.00     0.032 A 
HETATM   14  C7  UNL     1      27.521   1.501  53.205  1.00  0.00     0.032 A 
HETATM   15  C8  UNL     1      28.739   1.093  53.687  1.00  0.00     0.046 A 
HETATM   16  C9  UNL     1      29.008  -0.254  53.588  1.00  0.00     0.138 A 
HETATM   17  F1  UNL     1      30.208  -0.674  54.060  1.00  0.00    -0.204 F 
HETATM   18  C10 UNL     1      28.127  -1.181  53.039  1.00  0.00     0.074 A 
HETATM   19 CL1  UNL     1      28.519  -2.887  52.936  1.00  0.00    -0.081 Cl
HETATM   20  C11 UNL     1      26.947  -0.664  52.592  1.00  0.00     0.056 A 
ENDBRANCH  11  13
ENDBRANCH   4  11
BRANCH   6  21
HETATM   21  O2  UNL     1      26.866   4.237  48.763  1.00  0.00    -0.348 OA
BRANCH  21  22
HETATM   22  C14 UNL     1      27.320   5.569  48.636  1.00  0.00     0.177 C 
BRANCH  22  23
HETATM   23  C15 UNL     1      28.805   5.522  48.254  1.00  0.00     0.057 C 
BRANCH  23  24
HETATM   24  C16 UNL     1      29.305   6.950  48.250  1.00  0.00     0.274 C 
BRANCH  24  25
HETATM   25  N2  UNL     1      30.534   7.089  47.505  1.00  0.00     0.092 N 
HETATM   26  C17 UNL     1      31.490   6.146  48.002  1.00  0.00     0.298 C 
HETATM   27  C18 UNL     1      32.380   6.741  49.072  1.00  0.00     0.198 C 
HETATM   28  O3  UNL     1      31.728   7.719  49.818  1.00  0.00    -0.388 OA
HETATM   29  C19 UNL     1      31.288   8.774  49.036  1.00  0.00     0.198 C 
HETATM   30  C20 UNL     1      31.086   8.412  47.596  1.00  0.00     0.298 C 
ENDBRANCH  24  25
ENDBRANCH  23  24
ENDBRANCH  22  23
ENDBRANCH  21  22
ENDBRANCH   6  21
BRANCH   1  31
HETATM   31  O1  UNL     1      23.896   5.242  48.592  1.00  0.00    -0.351 OA
HETATM   32  C1  UNL     1      22.827   4.795  47.794  1.00  0.00     0.210 C 
ENDBRANCH   1  31
TORSDOF 8
ENDMDL
MODEL 9
REMARK VINA RESULT:      -7.2      4.758      7.577
REMARK  8 active torsions:
REMARK  status: ('A' for Active; 'I' for Inactive)
REMARK    1  A    between atoms: O1_2  and  C2_3 
REMARK    2  A    between atoms: C5_6  and  N1_7 
REMARK    3  A    between atoms: N1_7  and  C6_8 
REMARK    4  A    between atoms: C13_17  and  O2_18 
REMARK    5  A    between atoms: O2_18  and  C14_19 
REMARK    6  A    between atoms: C14_19  and  C15_20 
REMARK    7  A    between atoms: C15_20  and  C16_21 
REMARK    8  A    between atoms: C16_21  and  N2_22 
ROOT
HETATM    1  C2  UNL     1      24.397   6.059  49.505  1.00  0.00     0.124 C 
HETATM    2  C3  UNL     1      23.506   5.481  50.370  1.00  0.00     0.051 C 
HETATM    3  C4  UNL     1      23.025   4.036  50.113  1.00  0.00     0.120 C 
HETATM    4  C5  UNL     1      24.166   3.414  50.993  1.00  0.00     0.153 C 
HETATM    5  C12 UNL     1      25.372   3.949  50.259  1.00  0.00     0.068 C 
HETATM    6  C13 UNL     1      25.507   5.047  49.491  1.00  0.00     0.104 C 
HETATM    7  N3  UNL     1      23.952   3.965  52.299  1.00  0.00    -0.248 NA
HETATM    8  C21 UNL     1      23.346   5.088  52.594  1.00  0.00     0.204 C 
HETATM    9  N4  UNL     1      23.001   6.111  51.596  1.00  0.00    -0.352 N 
HETATM   10  H26 UNL     1      22.606   7.045  51.366  1.00  0.00     0.166 HD
ENDROOT
BRANCH   4  11
HETATM   11  N1  UNL     1      24.126   2.011  51.016  1.00  0.00    -0.358 N 
HETATM   12  H6  UNL     1      23.971   1.558  50.065  1.00  0.00     0.162 HD
BRANCH  11  13
HETATM   13  C6  UNL     1      24.260   1.112  52.090  1.00  0.00     0.032 A 
HETATM   14  C7  UNL     1      25.524   0.707  52.537  1.00  0.00     0.032 A 
HETATM   15  C8  UNL     1      25.750  -0.155  53.581  1.00  0.00     0.046 A 
HETATM   16  C9  UNL     1      24.629  -0.641  54.217  1.00  0.00     0.138 A 
HETATM   17  F1  UNL     1      24.836  -1.495  55.250  1.00  0.00    -0.204 F 
HETATM   18  C10 UNL     1      23.328  -0.306  53.856  1.00  0.00     0.074 A 
HETATM   19 CL1  UNL     1      21.934  -0.955  54.700  1.00  0.00    -0.081 Cl
HETATM   20  C11 UNL     1      23.223   0.557  52.806  1.00  0.00     0.056 A 
ENDBRANCH  11  13
ENDBRANCH   4  11
BRANCH   6  21
HETATM   21  O2  UNL     1      26.482   5.505  48.632  1.00  0.00    -0.348 OA
BRANCH  21  22
HETATM   22  C14 UNL     1      27.791   4.976  48.580  1.00  0.00     0.177 C 
BRANCH  22  23
HETATM   23  C15 UNL     1      28.729   6.100  48.121  1.00  0.00     0.057 C 
BRANCH  23  24
HETATM   24  C16 UNL     1      30.115   5.499  48.008  1.00  0.00     0.274 C 
BRANCH  24  25
HETATM   25  N2  UNL     1      31.024   6.053  48.983  1.00  0.00     0.092 N 
HETATM   26  C17 UNL     1      30.968   7.482  48.913  1.00  0.00     0.298 C 
HETATM   27  C18 UNL     1      32.026   8.053  47.992  1.00  0.00     0.198 C 
HETATM   28  O3  UNL     1      32.333   7.191  46.943  1.00  0.00    -0.388 OA
HETATM   29  C19 UNL     1      32.811   5.968  47.386  1.00  0.00     0.198 C 
HETATM   30  C20 UNL     1      32.379   5.623  48.779  1.00  0.00     0.298 C 
ENDBRANCH  24  25
ENDBRANCH  23  24
ENDBRANCH  22  23
ENDBRANCH  21  22
ENDBRANCH   6  21
BRANCH   1  31
HETATM   31  O1  UNL     1      23.915   7.264  49.048  1.00  0.00    -0.351 OA
HETATM   32  C1  UNL     1      24.531   8.507  49.284  1.00  0.00     0.210 C 
ENDBRANCH   1  31
TORSDOF 8
ENDMDL
