MODEL 1
REMARK VINA RESULT:      -8.3      0.000      0.000
REMARK  5 active torsions:
REMARK  status: ('A' for Active; 'I' for Inactive)
REMARK    1  A    between atoms: O1_2  and  C2_3 
REMARK    2  A    between atoms: C5_6  and  O2_7 
REMARK    3  A    between atoms: C14_17  and  N2_18 
REMARK    4  A    between atoms: C15_20  and  N4_21 
REMARK    5  A    between atoms: N4_21  and  C16_22 
ROOT
HETATM    1  C2  UNL     1      25.833   0.612  52.460  1.00  0.00     0.077 A 
HETATM    2  C3  UNL     1      25.124  -0.049  53.446  1.00  0.00     0.040 A 
HETATM    3  C4  UNL     1      23.782   0.168  53.681  1.00  0.00     0.042 A 
HETATM    4  C5  UNL     1      23.133   1.092  52.889  1.00  0.00     0.095 A 
HETATM    5  C7  UNL     1      23.856   1.750  51.903  1.00  0.00     0.071 A 
HETATM    6  C8  UNL     1      25.197   1.554  51.643  1.00  0.00     0.008 A 
HETATM    7  C9  UNL     1      26.293   1.986  50.776  1.00  0.00     0.071 C 
HETATM    8  C10 UNL     1      26.015   3.230  50.007  1.00  0.00    -0.015 C 
HETATM    9  C11 UNL     1      24.857   3.617  49.486  1.00  0.00    -0.037 C 
HETATM   10  C12 UNL     1      23.603   2.897  49.022  1.00  0.00     0.071 C 
HETATM   11  C13 UNL     1      22.560   3.264  50.077  1.00  0.00     0.155 C 
HETATM   12  N1  UNL     1      22.869   2.589  51.321  1.00  0.00    -0.375 N 
HETATM   13  C14 UNL     1      22.595   4.724  50.355  1.00  0.00     0.118 C 
HETATM   14  N3  UNL     1      23.357   5.441  49.578  1.00  0.00    -0.245 NA
HETATM   15  C15 UNL     1      24.763   5.095  49.331  1.00  0.00     0.237 C 
HETATM   16  H15 UNL     1      22.105   2.790  52.026  1.00  0.00     0.160 HD
ENDROOT
BRANCH  15  17
HETATM   17  N4  UNL     1      25.579   5.829  50.272  1.00  0.00    -0.361 N 
HETATM   18  H19 UNL     1      25.713   5.670  51.316  1.00  0.00     0.162 HD
BRANCH  17  19
HETATM   19  C16 UNL     1      26.315   6.931  49.753  1.00  0.00     0.069 A 
HETATM   20  C17 UNL     1      26.173   8.222  50.215  1.00  0.00     0.034 A 
HETATM   21  C18 UNL     1      26.866   9.314  49.734  1.00  0.00     0.026 A 
HETATM   22  C19 UNL     1      27.773   9.124  48.719  1.00  0.00     0.037 A 
HETATM   23 CL1  UNL     1      28.702  10.446  48.044  1.00  0.00    -0.084 Cl
HETATM   24  C20 UNL     1      27.965   7.859  48.211  1.00  0.00     0.068 A 
HETATM   25  C21 UNL     1      27.241   6.821  48.736  1.00  0.00     0.144 A 
HETATM   26  F1  UNL     1      27.469   5.582  48.195  1.00  0.00    -0.204 F 
ENDBRANCH  17  19
ENDBRANCH  15  17
BRANCH  13  27
HETATM   27  N2  UNL     1      21.797   5.181  51.439  1.00  0.00    -0.386 N 
HETATM   28  H16 UNL     1      20.753   5.030  51.531  1.00  0.00     0.157 HD
HETATM   29  H17 UNL     1      22.092   5.724  52.297  1.00  0.00     0.157 HD
ENDBRANCH  13  27
BRANCH   1  30
HETATM   30  O1  UNL     1      27.178   0.347  52.276  1.00  0.00    -0.355 OA
HETATM   31  C1  UNL     1      27.795  -0.687  53.018  1.00  0.00     0.210 C 
ENDBRANCH   1  30
BRANCH   4  32
HETATM   32  O2  UNL     1      21.803   1.295  53.138  1.00  0.00    -0.354 OA
HETATM   33  C6  UNL     1      20.996   0.430  53.878  1.00  0.00     0.210 C 
ENDBRANCH   4  32
TORSDOF 5
ENDMDL
MODEL 2
REMARK VINA RESULT:      -8.2      2.188      3.051
REMARK  5 active torsions:
REMARK  status: ('A' for Active; 'I' for Inactive)
REMARK    1  A    between atoms: O1_2  and  C2_3 
REMARK    2  A    between atoms: C5_6  and  O2_7 
REMARK    3  A    between atoms: C14_17  and  N2_18 
REMARK    4  A    between atoms: C15_20  and  N4_21 
REMARK    5  A    between atoms: N4_21  and  C16_22 
ROOT
HETATM    1  C2  UNL     1      23.386  -0.520  53.833  1.00  0.00     0.077 A 
HETATM    2  C3  UNL     1      22.548  -1.245  54.660  1.00  0.00     0.040 A 
HETATM    3  C4  UNL     1      21.174  -1.224  54.544  1.00  0.00     0.042 A 
HETATM    4  C5  UNL     1      20.625  -0.438  53.553  1.00  0.00     0.095 A 
HETATM    5  C7  UNL     1      21.476   0.285  52.727  1.00  0.00     0.071 A 
HETATM    6  C8  UNL     1      22.853   0.284  52.818  1.00  0.00     0.008 A 
HETATM    7  C9  UNL     1      24.062   0.845  52.216  1.00  0.00     0.071 C 
HETATM    8  C10 UNL     1      23.819   2.004  51.313  1.00  0.00    -0.015 C 
HETATM    9  C11 UNL     1      22.789   2.193  50.499  1.00  0.00    -0.037 C 
HETATM   10  C12 UNL     1      21.803   1.275  49.796  1.00  0.00     0.071 C 
HETATM   11  C13 UNL     1      20.488   1.519  50.535  1.00  0.00     0.155 C 
HETATM   12  N1  UNL     1      20.563   0.944  51.863  1.00  0.00    -0.375 N 
HETATM   13  C14 UNL     1      20.251   2.976  50.706  1.00  0.00     0.118 C 
HETATM   14  N3  UNL     1      21.078   3.771  50.088  1.00  0.00    -0.245 NA
HETATM   15  C15 UNL     1      22.535   3.633  50.219  1.00  0.00     0.237 C 
HETATM   16  H15 UNL     1      19.625   1.052  52.343  1.00  0.00     0.160 HD
ENDROOT
BRANCH  15  17
HETATM   17  N4  UNL     1      22.978   4.515  51.274  1.00  0.00    -0.361 N 
HETATM   18  H19 UNL     1      22.866   4.416  52.328  1.00  0.00     0.162 HD
BRANCH  17  19
HETATM   19  C16 UNL     1      23.661   5.697  50.871  1.00  0.00     0.069 A 
HETATM   20  C17 UNL     1      23.070   6.943  50.843  1.00  0.00     0.034 A 
HETATM   21  C18 UNL     1      23.698   8.107  50.456  1.00  0.00     0.026 A 
HETATM   22  C19 UNL     1      25.014   8.048  50.066  1.00  0.00     0.037 A 
HETATM   23 CL1  UNL     1      25.899   9.472  49.559  1.00  0.00    -0.084 Cl
HETATM   24  C20 UNL     1      25.667   6.836  50.070  1.00  0.00     0.068 A 
HETATM   25  C21 UNL     1      24.980   5.719  50.465  1.00  0.00     0.144 A 
HETATM   26  F1  UNL     1      25.675   4.537  50.451  1.00  0.00    -0.204 F 
ENDBRANCH  17  19
ENDBRANCH  15  17
BRANCH  13  27
HETATM   27  N2  UNL     1      19.150   3.347  51.526  1.00  0.00    -0.386 N 
HETATM   28  H16 UNL     1      19.225   3.855  52.452  1.00  0.00     0.157 HD
HETATM   29  H17 UNL     1      18.119   3.186  51.362  1.00  0.00     0.157 HD
ENDBRANCH  13  27
BRANCH   1  30
HETATM   30  O1  UNL     1      24.757  -0.586  54.002  1.00  0.00    -0.355 OA
HETATM   31  C1  UNL     1      25.289  -0.892  55.275  1.00  0.00     0.210 C 
ENDBRANCH   1  30
BRANCH   4  32
HETATM   32  O2  UNL     1      19.261  -0.429  53.453  1.00  0.00    -0.354 OA
HETATM   33  C6  UNL     1      18.460  -1.572  53.458  1.00  0.00     0.210 C 
ENDBRANCH   4  32
TORSDOF 5
ENDMDL
MODEL 3
REMARK VINA RESULT:      -8.1      1.700      2.147
REMARK  5 active torsions:
REMARK  status: ('A' for Active; 'I' for Inactive)
REMARK    1  A    between atoms: O1_2  and  C2_3 
REMARK    2  A    between atoms: C5_6  and  O2_7 
REMARK    3  A    between atoms: C14_17  and  N2_18 
REMARK    4  A    between atoms: C15_20  and  N4_21 
REMARK    5  A    between atoms: N4_21  and  C16_22 
ROOT
HETATM    1  C2  UNL     1      25.391   2.006  51.611  1.00  0.00     0.077 A 
HETATM    2  C3  UNL     1      24.535   1.536  52.590  1.00  0.00     0.040 A 
HETATM    3  C4  UNL     1      23.341   2.150  52.903  1.00  0.00     0.042 A 
HETATM    4  C5  UNL     1      22.998   3.285  52.199  1.00  0.00     0.095 A 
HETATM    5  C7  UNL     1      23.866   3.749  51.219  1.00  0.00     0.071 A 
HETATM    6  C8  UNL     1      25.066   3.157  50.883  1.00  0.00     0.008 A 
HETATM    7  C9  UNL     1      26.218   3.280  49.989  1.00  0.00     0.071 C 
HETATM    8  C10 UNL     1      26.330   4.600  49.308  1.00  0.00    -0.015 C 
HETATM    9  C11 UNL     1      25.343   5.369  48.869  1.00  0.00    -0.037 C 
HETATM   10  C12 UNL     1      23.912   5.118  48.425  1.00  0.00     0.071 C 
HETATM   11  C13 UNL     1      23.070   5.720  49.550  1.00  0.00     0.155 C 
HETATM   12  N1  UNL     1      23.183   4.896  50.736  1.00  0.00    -0.375 N 
HETATM   13  C14 UNL     1      23.577   7.071  49.911  1.00  0.00     0.118 C 
HETATM   14  N3  UNL     1      24.506   7.563  49.140  1.00  0.00    -0.245 NA
HETATM   15  C15 UNL     1      25.720   6.807  48.805  1.00  0.00     0.237 C 
HETATM   16  H15 UNL     1      22.542   5.278  51.488  1.00  0.00     0.160 HD
ENDROOT
BRANCH  15  17
HETATM   17  N4  UNL     1      26.754   7.177  49.746  1.00  0.00    -0.361 N 
HETATM   18  H19 UNL     1      26.871   6.892  50.765  1.00  0.00     0.162 HD
BRANCH  17  19
HETATM   19  C16 UNL     1      27.769   8.051  49.266  1.00  0.00     0.069 A 
HETATM   20  C17 UNL     1      27.866   9.376  49.635  1.00  0.00     0.034 A 
HETATM   21  C18 UNL     1      28.833  10.252  49.188  1.00  0.00     0.026 A 
HETATM   22  C19 UNL     1      29.784   9.792  48.310  1.00  0.00     0.037 A 
HETATM   23 CL1  UNL     1      31.053  10.826  47.688  1.00  0.00    -0.084 Cl
HETATM   24  C20 UNL     1      29.747   8.478  47.899  1.00  0.00     0.068 A 
HETATM   25  C21 UNL     1      28.757   7.664  48.383  1.00  0.00     0.144 A 
HETATM   26  F1  UNL     1      28.764   6.366  47.944  1.00  0.00    -0.204 F 
ENDBRANCH  17  19
ENDBRANCH  15  17
BRANCH  13  27
HETATM   27  N2  UNL     1      22.997   7.679  51.057  1.00  0.00    -0.386 N 
HETATM   28  H16 UNL     1      23.145   8.685  51.353  1.00  0.00     0.157 HD
HETATM   29  H17 UNL     1      22.351   7.253  51.778  1.00  0.00     0.157 HD
ENDBRANCH  13  27
BRANCH   1  30
HETATM   30  O1  UNL     1      26.576   1.343  51.346  1.00  0.00    -0.355 OA
HETATM   31  C1  UNL     1      26.817   0.082  51.937  1.00  0.00     0.210 C 
ENDBRANCH   1  30
BRANCH   4  32
HETATM   32  O2  UNL     1      21.810   3.881  52.524  1.00  0.00    -0.354 OA
HETATM   33  C6  UNL     1      20.560   3.279  52.383  1.00  0.00     0.210 C 
ENDBRANCH   4  32
TORSDOF 5
ENDMDL
MODEL 4
REMARK VINA RESULT:      -7.9      5.018      8.220
REMARK  5 active torsions:
REMARK  status: ('A' for Active; 'I' for Inactive)
REMARK    1  A    between atoms: O1_2  and  C2_3 
REMARK    2  A    between atoms: C5_6  and  O2_7 
REMARK    3  A    between atoms: C14_17  and  N2_18 
REMARK    4  A    between atoms: C15_20  and  N4_21 
REMARK    5  A    between atoms: N4_21  and  C16_22 
ROOT
HETATM    1  C2  UNL     1      25.330   1.175  52.320  1.00  0.00     0.077 A 
HETATM    2  C3  UNL     1      26.453   1.509  51.587  1.00  0.00     0.040 A 
HETATM    3  C4  UNL     1      26.442   2.455  50.584  1.00  0.00     0.042 A 
HETATM    4  C5  UNL     1      25.249   3.089  50.310  1.00  0.00     0.095 A 
HETATM    5  C7  UNL     1      24.126   2.745  51.054  1.00  0.00     0.071 A 
HETATM    6  C8  UNL     1      24.106   1.803  52.062  1.00  0.00     0.008 A 
HETATM    7  C9  UNL     1      23.228   1.161  53.041  1.00  0.00     0.071 C 
HETATM    8  C10 UNL     1      21.775   1.378  52.799  1.00  0.00    -0.015 C 
HETATM    9  C11 UNL     1      21.188   2.470  52.326  1.00  0.00    -0.037 C 
HETATM   10  C12 UNL     1      21.543   3.947  52.303  1.00  0.00     0.071 C 
HETATM   11  C13 UNL     1      21.872   4.220  50.836  1.00  0.00     0.155 C 
HETATM   12  N1  UNL     1      23.130   3.587  50.494  1.00  0.00    -0.375 N 
HETATM   13  C14 UNL     1      20.834   3.627  49.953  1.00  0.00     0.118 C 
HETATM   14  N3  UNL     1      19.783   3.137  50.546  1.00  0.00    -0.245 NA
HETATM   15  C15 UNL     1      19.891   2.180  51.656  1.00  0.00     0.237 C 
HETATM   16  H15 UNL     1      23.388   3.840  49.499  1.00  0.00     0.160 HD
ENDROOT
BRANCH  15  17
HETATM   17  N4  UNL     1      19.808   0.844  51.108  1.00  0.00    -0.361 N 
HETATM   18  H19 UNL     1      20.526   0.304  50.539  1.00  0.00     0.162 HD
BRANCH  17  19
HETATM   19  C16 UNL     1      18.599   0.133  51.347  1.00  0.00     0.069 A 
HETATM   20  C17 UNL     1      17.551   0.096  50.450  1.00  0.00     0.034 A 
HETATM   21  C18 UNL     1      16.366  -0.580  50.648  1.00  0.00     0.026 A 
HETATM   22  C19 UNL     1      16.192  -1.278  51.819  1.00  0.00     0.037 A 
HETATM   23 CL1  UNL     1      14.723  -2.168  52.162  1.00  0.00    -0.084 Cl
HETATM   24  C20 UNL     1      17.199  -1.284  52.759  1.00  0.00     0.068 A 
HETATM   25  C21 UNL     1      18.350  -0.589  52.496  1.00  0.00     0.144 A 
HETATM   26  F1  UNL     1      19.320  -0.627  53.463  1.00  0.00    -0.204 F 
ENDBRANCH  17  19
ENDBRANCH  15  17
BRANCH  13  27
HETATM   27  N2  UNL     1      21.100   3.656  48.557  1.00  0.00    -0.386 N 
HETATM   28  H16 UNL     1      20.952   4.494  47.926  1.00  0.00     0.157 HD
HETATM   29  H17 UNL     1      21.471   2.884  47.936  1.00  0.00     0.157 HD
ENDBRANCH  13  27
BRANCH   1  30
HETATM   30  O1  UNL     1      25.408   0.216  53.314  1.00  0.00    -0.355 OA
HETATM   31  C1  UNL     1      26.312  -0.862  53.174  1.00  0.00     0.210 C 
ENDBRANCH   1  30
BRANCH   4  32
HETATM   32  O2  UNL     1      25.257   4.023  49.312  1.00  0.00    -0.354 OA
HETATM   33  C6  UNL     1      26.222   5.021  49.171  1.00  0.00     0.210 C 
ENDBRANCH   4  32
TORSDOF 5
ENDMDL
MODEL 5
REMARK VINA RESULT:      -7.7      3.821      5.686
REMARK  5 active torsions:
REMARK  status: ('A' for Active; 'I' for Inactive)
REMARK    1  A    between atoms: O1_2  and  C2_3 
REMARK    2  A    between atoms: C5_6  and  O2_7 
REMARK    3  A    between atoms: C14_17  and  N2_18 
REMARK    4  A    between atoms: C15_20  and  N4_21 
REMARK    5  A    between atoms: N4_21  and  C16_22 
ROOT
HETATM    1  C2  UNL     1      23.687  -0.197  53.499  1.00  0.00     0.077 A 
HETATM    2  C3  UNL     1      24.868  -0.530  54.136  1.00  0.00     0.040 A 
HETATM    3  C4  UNL     1      25.932   0.340  54.250  1.00  0.00     0.042 A 
HETATM    4  C5  UNL     1      25.797   1.596  53.697  1.00  0.00     0.095 A 
HETATM    5  C7  UNL     1      24.606   1.919  53.059  1.00  0.00     0.071 A 
HETATM    6  C8  UNL     1      23.525   1.071  52.929  1.00  0.00     0.008 A 
HETATM    7  C9  UNL     1      22.171   0.983  52.382  1.00  0.00     0.071 C 
HETATM    8  C10 UNL     1      21.824   2.066  51.422  1.00  0.00    -0.015 C 
HETATM    9  C11 UNL     1      22.204   3.337  51.464  1.00  0.00    -0.037 C 
HETATM   10  C12 UNL     1      22.643   4.282  52.569  1.00  0.00     0.071 C 
HETATM   11  C13 UNL     1      24.138   4.474  52.312  1.00  0.00     0.155 C 
HETATM   12  N1  UNL     1      24.847   3.254  52.639  1.00  0.00    -0.375 N 
HETATM   13  C14 UNL     1      24.385   4.746  50.871  1.00  0.00     0.118 C 
HETATM   14  N3  UNL     1      23.330   4.929  50.129  1.00  0.00    -0.245 NA
HETATM   15  C15 UNL     1      22.210   3.979  50.121  1.00  0.00     0.237 C 
HETATM   16  H15 UNL     1      25.888   3.415  52.528  1.00  0.00     0.160 HD
ENDROOT
BRANCH  15  17
HETATM   17  N4  UNL     1      22.417   3.048  49.035  1.00  0.00    -0.361 N 
HETATM   18  H19 UNL     1      23.068   2.208  48.982  1.00  0.00     0.162 HD
BRANCH  17  19
HETATM   19  C16 UNL     1      21.656   3.269  47.853  1.00  0.00     0.069 A 
HETATM   20  C17 UNL     1      22.198   3.758  46.683  1.00  0.00     0.034 A 
HETATM   21  C18 UNL     1      21.492   3.987  45.520  1.00  0.00     0.026 A 
HETATM   22  C19 UNL     1      20.146   3.714  45.502  1.00  0.00     0.037 A 
HETATM   23 CL1  UNL     1      19.165   3.970  44.074  1.00  0.00    -0.084 Cl
HETATM   24  C20 UNL     1      19.539   3.222  46.636  1.00  0.00     0.068 A 
HETATM   25  C21 UNL     1      20.303   3.020  47.756  1.00  0.00     0.144 A 
HETATM   26  F1  UNL     1      19.652   2.530  48.858  1.00  0.00    -0.204 F 
ENDBRANCH  17  19
ENDBRANCH  15  17
BRANCH  13  27
HETATM   27  N2  UNL     1      25.745   4.776  50.458  1.00  0.00    -0.386 N 
HETATM   28  H16 UNL     1      26.083   4.621  49.466  1.00  0.00     0.157 HD
HETATM   29  H17 UNL     1      26.611   4.948  51.039  1.00  0.00     0.157 HD
ENDBRANCH  13  27
BRANCH   1  30
HETATM   30  O1  UNL     1      22.657  -1.117  53.419  1.00  0.00    -0.355 OA
HETATM   31  C1  UNL     1      22.103  -1.649  54.605  1.00  0.00     0.210 C 
ENDBRANCH   1  30
BRANCH   4  32
HETATM   32  O2  UNL     1      26.863   2.445  53.819  1.00  0.00    -0.354 OA
HETATM   33  C6  UNL     1      28.175   2.121  53.471  1.00  0.00     0.210 C 
ENDBRANCH   4  32
TORSDOF 5
ENDMDL
MODEL 6
REMARK VINA RESULT:      -7.7      3.853      6.254
REMARK  5 active torsions:
REMARK  status: ('A' for Active; 'I' for Inactive)
REMARK    1  A    between atoms: O1_2  and  C2_3 
REMARK    2  A    between atoms: C5_6  and  O2_7 
REMARK    3  A    between atoms: C14_17  and  N2_18 
REMARK    4  A    between atoms: C15_20  and  N4_21 
REMARK    5  A    between atoms: N4_21  and  C16_22 
ROOT
HETATM    1  C2  UNL     1      20.133   2.145  51.474  1.00  0.00     0.077 A 
HETATM    2  C3  UNL     1      19.071   3.025  51.568  1.00  0.00     0.040 A 
HETATM    3  C4  UNL     1      19.165   4.357  51.228  1.00  0.00     0.042 A 
HETATM    4  C5  UNL     1      20.383   4.821  50.776  1.00  0.00     0.095 A 
HETATM    5  C7  UNL     1      21.444   3.928  50.687  1.00  0.00     0.071 A 
HETATM    6  C8  UNL     1      21.380   2.591  51.019  1.00  0.00     0.008 A 
HETATM    7  C9  UNL     1      22.177   1.365  51.083  1.00  0.00     0.071 C 
HETATM    8  C10 UNL     1      23.646   1.580  50.972  1.00  0.00    -0.015 C 
HETATM    9  C11 UNL     1      24.278   2.483  50.233  1.00  0.00    -0.037 C 
HETATM   10  C12 UNL     1      23.942   3.245  48.963  1.00  0.00     0.071 C 
HETATM   11  C13 UNL     1      23.724   4.679  49.445  1.00  0.00     0.155 C 
HETATM   12  N1  UNL     1      22.488   4.756  50.196  1.00  0.00    -0.375 N 
HETATM   13  C14 UNL     1      24.817   5.088  50.365  1.00  0.00     0.118 C 
HETATM   14  N3  UNL     1      25.817   4.260  50.478  1.00  0.00    -0.245 NA
HETATM   15  C15 UNL     1      25.617   2.836  50.778  1.00  0.00     0.237 C 
HETATM   16  H15 UNL     1      22.306   5.764  50.465  1.00  0.00     0.160 HD
ENDROOT
BRANCH  15  17
HETATM   17  N4  UNL     1      25.725   2.658  52.209  1.00  0.00    -0.361 N 
HETATM   18  H19 UNL     1      25.123   3.066  52.986  1.00  0.00     0.162 HD
BRANCH  17  19
HETATM   19  C16 UNL     1      26.784   1.826  52.669  1.00  0.00     0.069 A 
HETATM   20  C17 UNL     1      27.967   2.317  53.180  1.00  0.00     0.034 A 
HETATM   21  C18 UNL     1      29.015   1.543  53.632  1.00  0.00     0.026 A 
HETATM   22  C19 UNL     1      28.893   0.175  53.581  1.00  0.00     0.037 A 
HETATM   23 CL1  UNL     1      30.167  -0.892  54.133  1.00  0.00    -0.084 Cl
HETATM   24  C20 UNL     1      27.737  -0.384  53.083  1.00  0.00     0.068 A 
HETATM   25  C21 UNL     1      26.738   0.447  52.650  1.00  0.00     0.144 A 
HETATM   26  F1  UNL     1      25.609  -0.158  52.163  1.00  0.00    -0.204 F 
ENDBRANCH  17  19
ENDBRANCH  15  17
BRANCH  13  27
HETATM   27  N2  UNL     1      24.655   6.337  51.025  1.00  0.00    -0.386 N 
HETATM   28  H16 UNL     1      25.301   7.169  50.920  1.00  0.00     0.157 HD
HETATM   29  H17 UNL     1      23.899   6.636  51.701  1.00  0.00     0.157 HD
ENDBRANCH  13  27
BRANCH   1  30
HETATM   30  O1  UNL     1      19.972   0.819  51.832  1.00  0.00    -0.355 OA
HETATM   31  C1  UNL     1      18.707   0.205  51.684  1.00  0.00     0.210 C 
ENDBRANCH   1  30
BRANCH   4  32
HETATM   32  O2  UNL     1      20.458   6.145  50.444  1.00  0.00    -0.354 OA
HETATM   33  C6  UNL     1      19.670   6.762  49.472  1.00  0.00     0.210 C 
ENDBRANCH   4  32
TORSDOF 5
ENDMDL
MODEL 7
REMARK VINA RESULT:      -7.6      4.821      8.473
REMARK  5 active torsions:
REMARK  status: ('A' for Active; 'I' for Inactive)
REMARK    1  A    between atoms: O1_2  and  C2_3 
REMARK    2  A    between atoms: C5_6  and  O2_7 
REMARK    3  A    between atoms: C14_17  and  N2_18 
REMARK    4  A    between atoms: C15_20  and  N4_21 
REMARK    5  A    between atoms: N4_21  and  C16_22 
ROOT
HETATM    1  C2  UNL     1      22.235   4.472  47.073  1.00  0.00     0.077 A 
HETATM    2  C3  UNL     1      22.502   5.761  46.649  1.00  0.00     0.040 A 
HETATM    3  C4  UNL     1      23.245   6.657  47.387  1.00  0.00     0.042 A 
HETATM    4  C5  UNL     1      23.737   6.235  48.604  1.00  0.00     0.095 A 
HETATM    5  C7  UNL     1      23.462   4.938  49.021  1.00  0.00     0.071 A 
HETATM    6  C8  UNL     1      22.723   4.019  48.305  1.00  0.00     0.008 A 
HETATM    7  C9  UNL     1      22.213   2.648  48.342  1.00  0.00     0.071 C 
HETATM    8  C10 UNL     1      22.286   2.001  49.681  1.00  0.00    -0.015 C 
HETATM    9  C11 UNL     1      23.231   2.149  50.600  1.00  0.00    -0.037 C 
HETATM   10  C12 UNL     1      24.699   2.539  50.567  1.00  0.00     0.071 C 
HETATM   11  C13 UNL     1      24.720   3.934  51.192  1.00  0.00     0.155 C 
HETATM   12  N1  UNL     1      24.120   4.884  50.278  1.00  0.00    -0.375 N 
HETATM   13  C14 UNL     1      23.907   3.957  52.436  1.00  0.00     0.118 C 
HETATM   14  N3  UNL     1      23.466   2.806  52.858  1.00  0.00    -0.245 NA
HETATM   15  C15 UNL     1      22.738   1.881  51.979  1.00  0.00     0.237 C 
HETATM   16  H15 UNL     1      24.203   5.859  50.684  1.00  0.00     0.160 HD
ENDROOT
BRANCH  15  17
HETATM   17  N4  UNL     1      21.322   2.123  52.145  1.00  0.00    -0.361 N 
HETATM   18  H19 UNL     1      20.774   3.027  52.023  1.00  0.00     0.162 HD
BRANCH  17  19
HETATM   19  C16 UNL     1      20.527   1.008  52.531  1.00  0.00     0.069 A 
HETATM   20  C17 UNL     1      20.898   0.118  53.517  1.00  0.00     0.034 A 
HETATM   21  C18 UNL     1      20.155  -0.973  53.916  1.00  0.00     0.026 A 
HETATM   22  C19 UNL     1      18.951  -1.212  53.300  1.00  0.00     0.037 A 
HETATM   23 CL1  UNL     1      17.936  -2.571  53.737  1.00  0.00    -0.084 Cl
HETATM   24  C20 UNL     1      18.519  -0.363  52.306  1.00  0.00     0.068 A 
HETATM   25  C21 UNL     1      19.309   0.702  51.960  1.00  0.00     0.144 A 
HETATM   26  F1  UNL     1      18.834   1.517  50.965  1.00  0.00    -0.204 F 
ENDBRANCH  17  19
ENDBRANCH  15  17
BRANCH  13  27
HETATM   27  N2  UNL     1      23.697   5.230  53.031  1.00  0.00    -0.386 N 
HETATM   28  H16 UNL     1      22.813   5.806  52.941  1.00  0.00     0.157 HD
HETATM   29  H17 UNL     1      24.354   5.796  53.636  1.00  0.00     0.157 HD
ENDBRANCH  13  27
BRANCH   1  30
HETATM   30  O1  UNL     1      21.482   3.622  46.284  1.00  0.00    -0.355 OA
HETATM   31  C1  UNL     1      21.296   3.922  44.914  1.00  0.00     0.210 C 
ENDBRANCH   1  30
BRANCH   4  32
HETATM   32  O2  UNL     1      24.471   7.137  49.323  1.00  0.00    -0.354 OA
HETATM   33  C6  UNL     1      24.415   8.520  49.147  1.00  0.00     0.210 C 
ENDBRANCH   4  32
TORSDOF 5
ENDMDL
MODEL 8
REMARK VINA RESULT:      -7.6      3.716      5.290
REMARK  5 active torsions:
REMARK  status: ('A' for Active; 'I' for Inactive)
REMARK    1  A    between atoms: O1_2  and  C2_3 
REMARK    2  A    between atoms: C5_6  and  O2_7 
REMARK    3  A    between atoms: C14_17  and  N2_18 
REMARK    4  A    between atoms: C15_20  and  N4_21 
REMARK    5  A    between atoms: N4_21  and  C16_22 
ROOT
HETATM    1  C2  UNL     1      20.744  -0.070  53.342  1.00  0.00     0.077 A 
HETATM    2  C3  UNL     1      21.065  -1.188  54.089  1.00  0.00     0.040 A 
HETATM    3  C4  UNL     1      22.345  -1.464  54.519  1.00  0.00     0.042 A 
HETATM    4  C5  UNL     1      23.343  -0.574  54.180  1.00  0.00     0.095 A 
HETATM    5  C7  UNL     1      23.009   0.546  53.428  1.00  0.00     0.071 A 
HETATM    6  C8  UNL     1      21.738   0.849  52.984  1.00  0.00     0.008 A 
HETATM    7  C9  UNL     1      20.973   1.837  52.224  1.00  0.00     0.071 C 
HETATM    8  C10 UNL     1      21.805   2.778  51.425  1.00  0.00    -0.015 C 
HETATM    9  C11 UNL     1      22.988   3.285  51.747  1.00  0.00    -0.037 C 
HETATM   10  C12 UNL     1      23.712   3.553  53.055  1.00  0.00     0.071 C 
HETATM   11  C13 UNL     1      24.830   2.511  53.073  1.00  0.00     0.155 C 
HETATM   12  N1  UNL     1      24.264   1.196  53.290  1.00  0.00    -0.375 N 
HETATM   13  C14 UNL     1      25.525   2.473  51.760  1.00  0.00     0.118 C 
HETATM   14  N3  UNL     1      25.193   3.398  50.905  1.00  0.00    -0.245 NA
HETATM   15  C15 UNL     1      23.792   3.668  50.555  1.00  0.00     0.237 C 
HETATM   16  H15 UNL     1      25.048   0.489  53.375  1.00  0.00     0.160 HD
ENDROOT
BRANCH  15  17
HETATM   17  N4  UNL     1      23.470   2.906  49.369  1.00  0.00    -0.361 N 
HETATM   18  H19 UNL     1      23.567   1.861  49.192  1.00  0.00     0.162 HD
BRANCH  17  19
HETATM   19  C16 UNL     1      22.952   3.638  48.263  1.00  0.00     0.069 A 
HETATM   20  C17 UNL     1      23.034   5.011  48.158  1.00  0.00     0.034 A 
HETATM   21  C18 UNL     1      22.542   5.753  47.105  1.00  0.00     0.026 A 
HETATM   22  C19 UNL     1      21.920   5.097  46.070  1.00  0.00     0.037 A 
HETATM   23 CL1  UNL     1      21.265   5.950  44.688  1.00  0.00    -0.084 Cl
HETATM   24  C20 UNL     1      21.804   3.725  46.110  1.00  0.00     0.068 A 
HETATM   25  C21 UNL     1      22.316   3.052  47.189  1.00  0.00     0.144 A 
HETATM   26  F1  UNL     1      22.174   1.689  47.181  1.00  0.00    -0.204 F 
ENDBRANCH  17  19
ENDBRANCH  15  17
BRANCH  13  27
HETATM   27  N2  UNL     1      26.475   1.432  51.577  1.00  0.00    -0.386 N 
HETATM   28  H16 UNL     1      26.666   0.653  52.270  1.00  0.00     0.157 HD
HETATM   29  H17 UNL     1      27.124   1.262  50.760  1.00  0.00     0.157 HD
ENDBRANCH  13  27
BRANCH   1  30
HETATM   30  O1  UNL     1      19.438   0.148  52.941  1.00  0.00    -0.355 OA
HETATM   31  C1  UNL     1      18.486  -0.888  53.072  1.00  0.00     0.210 C 
ENDBRANCH   1  30
BRANCH   4  32
HETATM   32  O2  UNL     1      24.607  -0.864  54.614  1.00  0.00    -0.354 OA
HETATM   33  C6  UNL     1      24.931  -1.210  55.926  1.00  0.00     0.210 C 
ENDBRANCH   4  32
TORSDOF 5
ENDMDL
MODEL 9
REMARK VINA RESULT:      -7.5      4.867      7.014
REMARK  5 active torsions:
REMARK  status: ('A' for Active; 'I' for Inactive)
REMARK    1  A    between atoms: O1_2  and  C2_3 
REMARK    2  A    between atoms: C5_6  and  O2_7 
REMARK    3  A    between atoms: C14_17  and  N2_18 
REMARK    4  A    between atoms: C15_20  and  N4_21 
REMARK    5  A    between atoms: N4_21  and  C16_22 
ROOT
HETATM    1  C2  UNL     1      17.955   0.378  51.730  1.00  0.00     0.077 A 
HETATM    2  C3  UNL     1      16.766   1.080  51.660  1.00  0.00     0.040 A 
HETATM    3  C4  UNL     1      16.668   2.338  51.104  1.00  0.00     0.042 A 
HETATM    4  C5  UNL     1      17.818   2.910  50.600  1.00  0.00     0.095 A 
HETATM    5  C7  UNL     1      19.006   2.195  50.677  1.00  0.00     0.071 A 
HETATM    6  C8  UNL     1      19.136   0.936  51.226  1.00  0.00     0.008 A 
HETATM    7  C9  UNL     1      20.108  -0.121  51.506  1.00  0.00     0.071 C 
HETATM    8  C10 UNL     1      21.530   0.304  51.384  1.00  0.00    -0.015 C 
HETATM    9  C11 UNL     1      22.046   1.164  50.515  1.00  0.00    -0.037 C 
HETATM   10  C12 UNL     1      21.649   1.647  49.130  1.00  0.00     0.071 C 
HETATM   11  C13 UNL     1      21.193   3.086  49.363  1.00  0.00     0.155 C 
HETATM   12  N1  UNL     1      19.930   3.087  50.072  1.00  0.00    -0.375 N 
HETATM   13  C14 UNL     1      22.171   3.808  50.219  1.00  0.00     0.118 C 
HETATM   14  N3  UNL     1      23.281   3.179  50.483  1.00  0.00    -0.245 NA
HETATM   15  C15 UNL     1      23.291   1.809  51.014  1.00  0.00     0.237 C 
HETATM   16  H15 UNL     1      19.583   4.084  50.166  1.00  0.00     0.160 HD
ENDROOT
BRANCH  15  17
HETATM   17  N4  UNL     1      23.365   1.885  52.456  1.00  0.00    -0.361 N 
HETATM   18  H19 UNL     1      22.632   2.217  53.152  1.00  0.00     0.162 HD
BRANCH  17  19
HETATM   19  C16 UNL     1      24.587   1.465  53.053  1.00  0.00     0.069 A 
HETATM   20  C17 UNL     1      25.652   2.312  53.276  1.00  0.00     0.034 A 
HETATM   21  C18 UNL     1      26.850   1.940  53.849  1.00  0.00     0.026 A 
HETATM   22  C19 UNL     1      27.018   0.632  54.236  1.00  0.00     0.037 A 
HETATM   23 CL1  UNL     1      28.502   0.065  54.974  1.00  0.00    -0.084 Cl
HETATM   24  C20 UNL     1      25.994  -0.268  54.043  1.00  0.00     0.068 A 
HETATM   25  C21 UNL     1      24.832   0.171  53.467  1.00  0.00     0.144 A 
HETATM   26  F1  UNL     1      23.844  -0.763  53.297  1.00  0.00    -0.204 F 
ENDBRANCH  17  19
ENDBRANCH  15  17
BRANCH  13  27
HETATM   27  N2  UNL     1      21.791   5.105  50.658  1.00  0.00    -0.386 N 
HETATM   28  H16 UNL     1      20.964   5.655  50.289  1.00  0.00     0.157 HD
HETATM   29  H17 UNL     1      22.244   5.716  51.393  1.00  0.00     0.157 HD
ENDBRANCH  13  27
BRANCH   1  30
HETATM   30  O1  UNL     1      17.985  -0.882  52.301  1.00  0.00    -0.355 OA
HETATM   31  C1  UNL     1      16.846  -1.367  52.983  1.00  0.00     0.210 C 
ENDBRANCH   1  30
BRANCH   4  32
HETATM   32  O2  UNL     1      17.701   4.158  50.053  1.00  0.00    -0.354 OA
HETATM   33  C6  UNL     1      16.723   4.528  49.130  1.00  0.00     0.210 C 
ENDBRANCH   4  32
TORSDOF 5
ENDMDL
