MODEL 1
REMARK VINA RESULT:      -8.0      0.000      0.000
REMARK  4 active torsions:
REMARK  status: ('A' for Active; 'I' for Inactive)
REMARK    1  A    between atoms: O1_2  and  C2_3 
REMARK    2  A    between atoms: C2_3  and  C3_5 
REMARK    3  A    between atoms: C9_11  and  O3_12 
REMARK    4  A    between atoms: C11_14  and  N1_16 
ROOT
HETATM    1  C3  UNL     1      24.195   0.611  52.535  1.00  0.00     0.040 A 
HETATM    2  C4  UNL     1      23.191   0.141  53.317  1.00  0.00     0.018 A 
HETATM    3  C5  UNL     1      21.923   0.589  53.146  1.00  0.00     0.018 A 
HETATM    4  C6  UNL     1      21.711   1.500  52.192  1.00  0.00     0.041 A 
HETATM    5  C7  UNL     1      22.637   2.079  51.305  1.00  0.00    -0.008 A 
HETATM    6  C8  UNL     1      23.909   1.544  51.571  1.00  0.00     0.028 A 
HETATM    7  C9  UNL     1      22.395   3.072  50.146  1.00  0.00     0.220 C 
HETATM    8  C11 UNL     1      22.405   4.465  50.613  1.00  0.00     0.288 C 
HETATM    9  C12 UNL     1      23.369   4.489  51.775  1.00  0.00     0.085 C 
HETATM   10  O4  UNL     1      21.168   4.862  51.099  1.00  0.00    -0.350 OA
HETATM   11  C20 UNL     1      20.035   4.923  50.440  1.00  0.00     0.172 C 
HETATM   12  C21 UNL     1      19.080   3.803  50.193  1.00  0.00     0.046 C 
HETATM   13  C22 UNL     1      18.474   3.414  51.573  1.00  0.00     0.125 C 
HETATM   14  N2  UNL     1      19.664   3.233  52.384  1.00  0.00    -0.357 N 
HETATM   15  C23 UNL     1      20.433   2.154  51.916  1.00  0.00     0.252 C 
HETATM   16  O5  UNL     1      20.182   1.375  51.002  1.00  0.00    -0.268 OA
HETATM   17  H30 UNL     1      20.360   3.375  53.118  1.00  0.00     0.162 HD
ENDROOT
BRANCH   8  18
HETATM   18  N1  UNL     1      22.629   5.474  49.607  1.00  0.00     0.131 NA
HETATM   19  C13 UNL     1      23.701   5.305  48.691  1.00  0.00     0.287 C 
HETATM   20  C14 UNL     1      25.024   5.378  49.340  1.00  0.00    -0.003 C 
HETATM   21  C15 UNL     1      26.248   4.505  49.333  1.00  0.00     0.018 C 
HETATM   22  C16 UNL     1      25.161   6.470  50.079  1.00  0.00    -0.028 C 
HETATM   23  C17 UNL     1      24.122   6.976  50.677  1.00  0.00     0.066 C 
HETATM   24  C18 UNL     1      22.747   6.808  50.080  1.00  0.00     0.228 C 
HETATM   25  C19 UNL     1      21.698   7.482  50.832  1.00  0.00     0.043 C 
ENDBRANCH   8  18
BRANCH   7  26
HETATM   26  O3  UNL     1      23.584   2.753  49.386  1.00  0.00    -0.381 OA
HETATM   27  C10 UNL     1      23.042   2.156  48.212  1.00  0.00     0.202 C 
ENDBRANCH   7  26
BRANCH   1  28
HETATM   28  C2  UNL     1      25.534   0.117  52.743  1.00  0.00     0.292 C 
HETATM   29  O2  UNL     1      26.425   0.223  51.831  1.00  0.00    -0.259 OA
BRANCH  28  30
HETATM   30  O1  UNL     1      25.947  -0.491  53.901  1.00  0.00    -0.323 OA
HETATM   31  C1  UNL     1      26.593   0.233  54.958  1.00  0.00     0.213 C 
ENDBRANCH  28  30
ENDBRANCH   1  28
TORSDOF 4
ENDMDL
MODEL 2
REMARK VINA RESULT:      -7.8      1.768      4.825
REMARK  4 active torsions:
REMARK  status: ('A' for Active; 'I' for Inactive)
REMARK    1  A    between atoms: O1_2  and  C2_3 
REMARK    2  A    between atoms: C2_3  and  C3_5 
REMARK    3  A    between atoms: C9_11  and  O3_12 
REMARK    4  A    between atoms: C11_14  and  N1_16 
ROOT
HETATM    1  C3  UNL     1      26.116   2.638  50.916  1.00  0.00     0.040 A 
HETATM    2  C4  UNL     1      26.674   3.275  49.856  1.00  0.00     0.018 A 
HETATM    3  C5  UNL     1      25.942   4.148  49.120  1.00  0.00     0.018 A 
HETATM    4  C6  UNL     1      24.670   4.346  49.478  1.00  0.00     0.041 A 
HETATM    5  C7  UNL     1      23.955   3.771  50.544  1.00  0.00    -0.008 A 
HETATM    6  C8  UNL     1      24.806   2.889  51.233  1.00  0.00     0.028 A 
HETATM    7  C9  UNL     1      22.511   4.050  51.018  1.00  0.00     0.220 C 
HETATM    8  C11 UNL     1      21.532   3.228  50.293  1.00  0.00     0.288 C 
HETATM    9  C12 UNL     1      22.255   1.942  49.968  1.00  0.00     0.085 C 
HETATM   10  O4  UNL     1      21.157   3.803  49.089  1.00  0.00    -0.350 OA
HETATM   11  C20 UNL     1      20.560   4.957  48.908  1.00  0.00     0.172 C 
HETATM   12  C21 UNL     1      21.208   6.300  48.836  1.00  0.00     0.046 C 
HETATM   13  C22 UNL     1      22.056   6.322  47.532  1.00  0.00     0.125 C 
HETATM   14  N2  UNL     1      22.839   5.107  47.661  1.00  0.00    -0.357 N 
HETATM   15  C23 UNL     1      23.712   5.184  48.761  1.00  0.00     0.252 C 
HETATM   16  O5  UNL     1      23.903   6.129  49.520  1.00  0.00    -0.268 OA
HETATM   17  H30 UNL     1      23.205   4.172  47.473  1.00  0.00     0.162 HD
ENDROOT
BRANCH   8  18
HETATM   18  N1  UNL     1      20.244   3.068  50.921  1.00  0.00     0.131 NA
HETATM   19  C13 UNL     1      20.187   2.682  52.287  1.00  0.00     0.287 C 
HETATM   20  C14 UNL     1      20.688   1.312  52.515  1.00  0.00    -0.003 C 
HETATM   21  C15 UNL     1      21.689   0.703  53.456  1.00  0.00     0.018 C 
HETATM   22  C16 UNL     1      20.109   0.426  51.717  1.00  0.00    -0.028 C 
HETATM   23  C17 UNL     1      19.734   0.784  50.524  1.00  0.00     0.066 C 
HETATM   24  C18 UNL     1      19.329   2.211  50.252  1.00  0.00     0.228 C 
HETATM   25  C19 UNL     1      18.877   2.441  48.887  1.00  0.00     0.043 C 
ENDBRANCH   8  18
BRANCH   7  26
HETATM   26  O3  UNL     1      22.681   3.601  52.383  1.00  0.00    -0.381 OA
HETATM   27  C10 UNL     1      23.060   4.800  53.051  1.00  0.00     0.202 C 
ENDBRANCH   7  26
BRANCH   1  28
HETATM   28  C2  UNL     1      26.919   1.713  51.679  1.00  0.00     0.292 C 
HETATM   29  O2  UNL     1      27.898   2.123  52.393  1.00  0.00    -0.259 OA
BRANCH  28  30
HETATM   30  O1  UNL     1      26.705   0.359  51.696  1.00  0.00    -0.323 OA
HETATM   31  C1  UNL     1      26.106  -0.308  52.817  1.00  0.00     0.213 C 
ENDBRANCH  28  30
ENDBRANCH   1  28
TORSDOF 4
ENDMDL
MODEL 3
REMARK VINA RESULT:      -7.7      1.960      4.796
REMARK  4 active torsions:
REMARK  status: ('A' for Active; 'I' for Inactive)
REMARK    1  A    between atoms: O1_2  and  C2_3 
REMARK    2  A    between atoms: C2_3  and  C3_5 
REMARK    3  A    between atoms: C9_11  and  O3_12 
REMARK    4  A    between atoms: C11_14  and  N1_16 
ROOT
HETATM    1  C3  UNL     1      24.340   0.046  53.182  1.00  0.00     0.040 A 
HETATM    2  C4  UNL     1      25.599  -0.301  52.814  1.00  0.00     0.018 A 
HETATM    3  C5  UNL     1      26.330   0.517  52.017  1.00  0.00     0.018 A 
HETATM    4  C6  UNL     1      25.764   1.659  51.616  1.00  0.00     0.041 A 
HETATM    5  C7  UNL     1      24.483   2.158  51.911  1.00  0.00    -0.008 A 
HETATM    6  C8  UNL     1      23.819   1.235  52.738  1.00  0.00     0.028 A 
HETATM    7  C9  UNL     1      23.844   3.510  51.521  1.00  0.00     0.220 C 
HETATM    8  C11 UNL     1      23.202   3.448  50.201  1.00  0.00     0.288 C 
HETATM    9  C12 UNL     1      22.713   2.026  50.063  1.00  0.00     0.085 C 
HETATM   10  O4  UNL     1      24.103   3.673  49.171  1.00  0.00    -0.350 OA
HETATM   11  C20 UNL     1      24.810   4.756  48.953  1.00  0.00     0.172 C 
HETATM   12  C21 UNL     1      26.119   5.113  49.577  1.00  0.00     0.046 C 
HETATM   13  C22 UNL     1      27.166   4.095  49.043  1.00  0.00     0.125 C 
HETATM   14  N2  UNL     1      26.518   2.825  49.313  1.00  0.00    -0.357 N 
HETATM   15  C23 UNL     1      26.364   2.622  50.695  1.00  0.00     0.252 C 
HETATM   16  O5  UNL     1      26.753   3.329  51.620  1.00  0.00    -0.268 OA
HETATM   17  H30 UNL     1      26.070   1.920  49.159  1.00  0.00     0.162 HD
ENDROOT
BRANCH   8  18
HETATM   18  N1  UNL     1      22.221   4.467  49.920  1.00  0.00     0.131 NA
HETATM   19  C13 UNL     1      21.199   4.720  50.874  1.00  0.00     0.287 C 
HETATM   20  C14 UNL     1      20.267   3.586  51.027  1.00  0.00    -0.003 C 
HETATM   21  C15 UNL     1      19.738   2.811  52.202  1.00  0.00     0.018 C 
HETATM   22  C16 UNL     1      19.780   3.176  49.865  1.00  0.00    -0.028 C 
HETATM   23  C17 UNL     1      20.512   3.267  48.792  1.00  0.00     0.066 C 
HETATM   24  C18 UNL     1      21.550   4.355  48.673  1.00  0.00     0.228 C 
HETATM   25  C19 UNL     1      22.243   4.363  47.392  1.00  0.00     0.043 C 
ENDBRANCH   8  18
BRANCH   7  26
HETATM   26  O3  UNL     1      22.869   3.562  52.589  1.00  0.00    -0.381 OA
HETATM   27  C10 UNL     1      23.354   4.635  53.390  1.00  0.00     0.202 C 
ENDBRANCH   7  26
BRANCH   1  28
HETATM   28  C2  UNL     1      23.587  -0.846  54.029  1.00  0.00     0.292 C 
HETATM   29  O2  UNL     1      24.027  -1.193  55.179  1.00  0.00    -0.259 OA
BRANCH  28  30
HETATM   30  O1  UNL     1      22.374  -1.379  53.678  1.00  0.00    -0.323 OA
HETATM   31  C1  UNL     1      21.177  -1.121  54.427  1.00  0.00     0.213 C 
ENDBRANCH  28  30
ENDBRANCH   1  28
TORSDOF 4
ENDMDL
MODEL 4
REMARK VINA RESULT:      -7.4      2.288      5.249
REMARK  4 active torsions:
REMARK  status: ('A' for Active; 'I' for Inactive)
REMARK    1  A    between atoms: O1_2  and  C2_3 
REMARK    2  A    between atoms: C2_3  and  C3_5 
REMARK    3  A    between atoms: C9_11  and  O3_12 
REMARK    4  A    between atoms: C11_14  and  N1_16 
ROOT
HETATM    1  C3  UNL     1      21.305   0.364  52.845  1.00  0.00     0.040 A 
HETATM    2  C4  UNL     1      21.915  -0.809  53.148  1.00  0.00     0.018 A 
HETATM    3  C5  UNL     1      23.264  -0.869  53.268  1.00  0.00     0.018 A 
HETATM    4  C6  UNL     1      23.954   0.259  53.074  1.00  0.00     0.041 A 
HETATM    5  C7  UNL     1      23.473   1.543  52.760  1.00  0.00    -0.008 A 
HETATM    6  C8  UNL     1      22.072   1.487  52.662  1.00  0.00     0.028 A 
HETATM    7  C9  UNL     1      24.249   2.871  52.612  1.00  0.00     0.220 C 
HETATM    8  C11 UNL     1      24.772   3.046  51.250  1.00  0.00     0.288 C 
HETATM    9  C12 UNL     1      23.775   2.356  50.349  1.00  0.00     0.085 C 
HETATM   10  O4  UNL     1      25.992   2.412  51.073  1.00  0.00    -0.350 OA
HETATM   11  C20 UNL     1      27.115   2.653  51.707  1.00  0.00     0.172 C 
HETATM   12  C21 UNL     1      27.530   2.110  53.034  1.00  0.00     0.046 C 
HETATM   13  C22 UNL     1      27.745   0.580  52.849  1.00  0.00     0.125 C 
HETATM   14  N2  UNL     1      26.502   0.176  52.218  1.00  0.00    -0.357 N 
HETATM   15  C23 UNL     1      25.411   0.371  53.083  1.00  0.00     0.252 C 
HETATM   16  O5  UNL     1      25.418   0.757  54.247  1.00  0.00    -0.268 OA
HETATM   17  H30 UNL     1      25.847  -0.182  51.519  1.00  0.00     0.162 HD
ENDROOT
BRANCH   8  18
HETATM   18  N1  UNL     1      25.118   4.393  50.868  1.00  0.00     0.131 NA
HETATM   19  C13 UNL     1      24.161   5.427  51.051  1.00  0.00     0.287 C 
HETATM   20  C14 UNL     1      22.980   5.273  50.180  1.00  0.00    -0.003 C 
HETATM   21  C15 UNL     1      21.495   5.275  50.414  1.00  0.00     0.018 C 
HETATM   22  C16 UNL     1      23.311   5.114  48.907  1.00  0.00    -0.028 C 
HETATM   23  C17 UNL     1      24.419   4.503  48.602  1.00  0.00     0.066 C 
HETATM   24  C18 UNL     1      25.598   4.558  49.541  1.00  0.00     0.228 C 
HETATM   25  C19 UNL     1      26.782   3.878  49.033  1.00  0.00     0.043 C 
ENDBRANCH   8  18
BRANCH   7  26
HETATM   26  O3  UNL     1      23.138   3.759  52.878  1.00  0.00    -0.381 OA
HETATM   27  C10 UNL     1      23.670   4.619  53.879  1.00  0.00     0.202 C 
ENDBRANCH   7  26
BRANCH   1  28
HETATM   28  C2  UNL     1      19.868   0.396  52.722  1.00  0.00     0.292 C 
HETATM   29  O2  UNL     1      19.285   1.302  52.034  1.00  0.00    -0.259 OA
BRANCH  28  30
HETATM   30  O1  UNL     1      19.037  -0.518  53.317  1.00  0.00    -0.323 OA
HETATM   31  C1  UNL     1      17.843  -0.995  52.682  1.00  0.00     0.213 C 
ENDBRANCH  28  30
ENDBRANCH   1  28
TORSDOF 4
ENDMDL
MODEL 5
REMARK VINA RESULT:      -7.3      8.277     11.917
REMARK  4 active torsions:
REMARK  status: ('A' for Active; 'I' for Inactive)
REMARK    1  A    between atoms: O1_2  and  C2_3 
REMARK    2  A    between atoms: C2_3  and  C3_5 
REMARK    3  A    between atoms: C9_11  and  O3_12 
REMARK    4  A    between atoms: C11_14  and  N1_16 
ROOT
HETATM    1  C3  UNL     1      29.163   7.621  48.029  1.00  0.00     0.040 A 
HETATM    2  C4  UNL     1      28.632   6.396  48.273  1.00  0.00     0.018 A 
HETATM    3  C5  UNL     1      29.378   5.279  48.095  1.00  0.00     0.018 A 
HETATM    4  C6  UNL     1      30.636   5.434  47.672  1.00  0.00     0.041 A 
HETATM    5  C7  UNL     1      31.326   6.624  47.381  1.00  0.00    -0.008 A 
HETATM    6  C8  UNL     1      30.462   7.711  47.600  1.00  0.00     0.028 A 
HETATM    7  C9  UNL     1      32.803   6.825  46.968  1.00  0.00     0.220 C 
HETATM    8  C11 UNL     1      32.982   6.702  45.516  1.00  0.00     0.288 C 
HETATM    9  C12 UNL     1      31.691   7.199  44.910  1.00  0.00     0.085 C 
HETATM   10  O4  UNL     1      33.140   5.383  45.118  1.00  0.00    -0.350 OA
HETATM   11  C20 UNL     1      34.095   4.554  45.468  1.00  0.00     0.172 C 
HETATM   12  C21 UNL     1      34.150   3.721  46.706  1.00  0.00     0.046 C 
HETATM   13  C22 UNL     1      33.016   2.662  46.588  1.00  0.00     0.125 C 
HETATM   14  N2  UNL     1      31.863   3.488  46.280  1.00  0.00    -0.357 N 
HETATM   15  C23 UNL     1      31.560   4.349  47.349  1.00  0.00     0.252 C 
HETATM   16  O5  UNL     1      32.093   4.416  48.452  1.00  0.00    -0.268 OA
HETATM   17  H30 UNL     1      31.072   3.886  45.772  1.00  0.00     0.162 HD
ENDROOT
BRANCH   8  18
HETATM   18  N1  UNL     1      34.183   7.286  44.970  1.00  0.00     0.131 NA
HETATM   19  C13 UNL     1      34.551   8.599  45.367  1.00  0.00     0.287 C 
HETATM   20  C14 UNL     1      33.602   9.626  44.897  1.00  0.00    -0.003 C 
HETATM   21  C15 UNL     1      32.856  10.750  45.560  1.00  0.00     0.018 C 
HETATM   22  C16 UNL     1      33.374   9.540  43.594  1.00  0.00    -0.028 C 
HETATM   23  C17 UNL     1      33.405   8.378  43.011  1.00  0.00     0.066 C 
HETATM   24  C18 UNL     1      34.288   7.281  43.553  1.00  0.00     0.228 C 
HETATM   25  C19 UNL     1      34.260   6.062  42.758  1.00  0.00     0.043 C 
ENDBRANCH   8  18
BRANCH   7  26
HETATM   26  O3  UNL     1      32.926   8.198  47.409  1.00  0.00    -0.381 OA
HETATM   27  C10 UNL     1      33.684   8.064  48.607  1.00  0.00     0.202 C 
ENDBRANCH   7  26
BRANCH   1  28
HETATM   28  C2  UNL     1      28.343   8.791  48.226  1.00  0.00     0.292 C 
HETATM   29  O2  UNL     1      27.723   9.335  47.249  1.00  0.00    -0.259 OA
BRANCH  28  30
HETATM   30  O1  UNL     1      28.169   9.398  49.443  1.00  0.00    -0.323 OA
HETATM   31  C1  UNL     1      27.051   9.105  50.293  1.00  0.00     0.213 C 
ENDBRANCH  28  30
ENDBRANCH   1  28
TORSDOF 4
ENDMDL
MODEL 6
REMARK VINA RESULT:      -7.3      6.905      9.180
REMARK  4 active torsions:
REMARK  status: ('A' for Active; 'I' for Inactive)
REMARK    1  A    between atoms: O1_2  and  C2_3 
REMARK    2  A    between atoms: C2_3  and  C3_5 
REMARK    3  A    between atoms: C9_11  and  O3_12 
REMARK    4  A    between atoms: C11_14  and  N1_16 
ROOT
HETATM    1  C3  UNL     1      29.617   5.860  48.004  1.00  0.00     0.040 A 
HETATM    2  C4  UNL     1      28.460   5.309  48.450  1.00  0.00     0.018 A 
HETATM    3  C5  UNL     1      27.302   6.012  48.395  1.00  0.00     0.018 A 
HETATM    4  C6  UNL     1      27.350   7.250  47.894  1.00  0.00     0.041 A 
HETATM    5  C7  UNL     1      28.460   7.953  47.393  1.00  0.00    -0.008 A 
HETATM    6  C8  UNL     1      29.598   7.135  47.498  1.00  0.00     0.028 A 
HETATM    7  C9  UNL     1      28.518   9.352  46.737  1.00  0.00     0.220 C 
HETATM    8  C11 UNL     1      28.657  10.417  47.740  1.00  0.00     0.288 C 
HETATM    9  C12 UNL     1      29.448   9.800  48.870  1.00  0.00     0.085 C 
HETATM   10  O4  UNL     1      27.433  10.806  48.263  1.00  0.00    -0.350 OA
HETATM   11  C20 UNL     1      26.420  11.330  47.614  1.00  0.00     0.172 C 
HETATM   12  C21 UNL     1      25.361  10.595  46.860  1.00  0.00     0.046 C 
HETATM   13  C22 UNL     1      24.525   9.807  47.909  1.00  0.00     0.125 C 
HETATM   14  N2  UNL     1      25.556   9.104  48.651  1.00  0.00    -0.357 N 
HETATM   15  C23 UNL     1      26.225   8.180  47.830  1.00  0.00     0.252 C 
HETATM   16  O5  UNL     1      25.996   7.890  46.660  1.00  0.00    -0.268 OA
HETATM   17  H30 UNL     1      26.158   8.812  49.422  1.00  0.00     0.162 HD
ENDROOT
BRANCH   8  18
HETATM   18  N1  UNL     1      29.154  11.683  47.262  1.00  0.00     0.131 NA
HETATM   19  C13 UNL     1      30.320  11.703  46.451  1.00  0.00     0.287 C 
HETATM   20  C14 UNL     1      31.531  11.281  47.182  1.00  0.00    -0.003 C 
HETATM   21  C15 UNL     1      32.621  10.280  46.920  1.00  0.00     0.018 C 
HETATM   22  C16 UNL     1      31.693  11.951  48.314  1.00  0.00    -0.028 C 
HETATM   23  C17 UNL     1      30.649  12.356  48.977  1.00  0.00     0.066 C 
HETATM   24  C18 UNL     1      29.368  12.681  48.251  1.00  0.00     0.228 C 
HETATM   25  C19 UNL     1      28.312  13.178  49.122  1.00  0.00     0.043 C 
ENDBRANCH   8  18
BRANCH   7  26
HETATM   26  O3  UNL     1      29.744   9.151  45.996  1.00  0.00    -0.381 OA
HETATM   27  C10 UNL     1      29.267   8.969  44.666  1.00  0.00     0.202 C 
ENDBRANCH   7  26
BRANCH   1  28
HETATM   28  C2  UNL     1      30.834   5.089  48.077  1.00  0.00     0.292 C 
HETATM   29  O2  UNL     1      31.604   5.167  49.095  1.00  0.00    -0.259 OA
BRANCH  28  30
HETATM   30  O1  UNL     1      31.250   4.235  47.089  1.00  0.00    -0.323 OA
HETATM   31  C1  UNL     1      32.510   3.551  47.147  1.00  0.00     0.213 C 
ENDBRANCH  28  30
ENDBRANCH   1  28
TORSDOF 4
ENDMDL
MODEL 7
REMARK VINA RESULT:      -7.1      6.855     10.496
REMARK  4 active torsions:
REMARK  status: ('A' for Active; 'I' for Inactive)
REMARK    1  A    between atoms: O1_2  and  C2_3 
REMARK    2  A    between atoms: C2_3  and  C3_5 
REMARK    3  A    between atoms: C9_11  and  O3_12 
REMARK    4  A    between atoms: C11_14  and  N1_16 
ROOT
HETATM    1  C3  UNL     1      26.929   7.052  48.393  1.00  0.00     0.040 A 
HETATM    2  C4  UNL     1      27.011   5.712  48.591  1.00  0.00     0.018 A 
HETATM    3  C5  UNL     1      28.211   5.083  48.531  1.00  0.00     0.018 A 
HETATM    4  C6  UNL     1      29.289   5.829  48.269  1.00  0.00     0.041 A 
HETATM    5  C7  UNL     1      29.367   7.215  48.045  1.00  0.00    -0.008 A 
HETATM    6  C8  UNL     1      28.074   7.759  48.131  1.00  0.00     0.028 A 
HETATM    7  C9  UNL     1      30.613   8.103  47.820  1.00  0.00     0.220 C 
HETATM    8  C11 UNL     1      31.004   8.141  46.405  1.00  0.00     0.288 C 
HETATM    9  C12 UNL     1      29.715   8.000  45.630  1.00  0.00     0.085 C 
HETATM   10  O4  UNL     1      31.811   7.068  46.056  1.00  0.00    -0.350 OA
HETATM   11  C20 UNL     1      32.993   6.769  46.541  1.00  0.00     0.172 C 
HETATM   12  C21 UNL     1      33.283   6.007  47.791  1.00  0.00     0.046 C 
HETATM   13  C22 UNL     1      32.805   4.546  47.550  1.00  0.00     0.125 C 
HETATM   14  N2  UNL     1      31.446   4.748  47.081  1.00  0.00    -0.357 N 
HETATM   15  C23 UNL     1      30.646   5.318  48.087  1.00  0.00     0.252 C 
HETATM   16  O5  UNL     1      30.947   5.580  49.247  1.00  0.00    -0.268 OA
HETATM   17  H30 UNL     1      30.628   4.750  46.469  1.00  0.00     0.162 HD
ENDROOT
BRANCH   8  18
HETATM   18  N1  UNL     1      31.845   9.243  46.005  1.00  0.00     0.131 NA
HETATM   19  C13 UNL     1      31.518  10.553  46.446  1.00  0.00     0.287 C 
HETATM   20  C14 UNL     1      30.254  11.051  45.868  1.00  0.00    -0.003 C 
HETATM   21  C15 UNL     1      29.007  11.665  46.441  1.00  0.00     0.018 C 
HETATM   22  C16 UNL     1      30.228  10.943  44.548  1.00  0.00    -0.028 C 
HETATM   23  C17 UNL     1      30.857   9.961  43.971  1.00  0.00     0.066 C 
HETATM   24  C18 UNL     1      32.086   9.366  44.611  1.00  0.00     0.228 C 
HETATM   25  C19 UNL     1      32.711   8.319  43.815  1.00  0.00     0.043 C 
ENDBRANCH   8  18
BRANCH   7  26
HETATM   26  O3  UNL     1      30.022   9.352  48.247  1.00  0.00    -0.381 OA
HETATM   27  C10 UNL     1      30.612   9.545  49.528  1.00  0.00     0.202 C 
ENDBRANCH   7  26
BRANCH   1  28
HETATM   28  C2  UNL     1      25.638   7.691  48.462  1.00  0.00     0.292 C 
HETATM   29  O2  UNL     1      24.766   7.518  47.543  1.00  0.00    -0.259 OA
BRANCH  28  30
HETATM   30  O1  UNL     1      25.254   8.514  49.489  1.00  0.00    -0.323 OA
HETATM   31  C1  UNL     1      24.257   8.131  50.447  1.00  0.00     0.213 C 
ENDBRANCH  28  30
ENDBRANCH   1  28
TORSDOF 4
ENDMDL
MODEL 8
REMARK VINA RESULT:      -7.0      2.192      6.721
REMARK  4 active torsions:
REMARK  status: ('A' for Active; 'I' for Inactive)
REMARK    1  A    between atoms: O1_2  and  C2_3 
REMARK    2  A    between atoms: C2_3  and  C3_5 
REMARK    3  A    between atoms: C9_11  and  O3_12 
REMARK    4  A    between atoms: C11_14  and  N1_16 
ROOT
HETATM    1  C3  UNL     1      21.675   5.968  50.534  1.00  0.00     0.040 A 
HETATM    2  C4  UNL     1      22.748   6.624  51.042  1.00  0.00     0.018 A 
HETATM    3  C5  UNL     1      23.826   5.933  51.487  1.00  0.00     0.018 A 
HETATM    4  C6  UNL     1      23.784   4.600  51.407  1.00  0.00     0.041 A 
HETATM    5  C7  UNL     1      22.756   3.780  50.907  1.00  0.00    -0.008 A 
HETATM    6  C8  UNL     1      21.697   4.597  50.476  1.00  0.00     0.028 A 
HETATM    7  C9  UNL     1      22.725   2.244  50.734  1.00  0.00     0.220 C 
HETATM    8  C11 UNL     1      22.278   1.568  51.959  1.00  0.00     0.288 C 
HETATM    9  C12 UNL     1      21.314   2.528  52.615  1.00  0.00     0.085 C 
HETATM   10  O4  UNL     1      23.320   1.361  52.851  1.00  0.00    -0.350 OA
HETATM   11  C20 UNL     1      24.403   0.645  52.660  1.00  0.00     0.172 C 
HETATM   12  C21 UNL     1      25.660   1.083  51.984  1.00  0.00     0.046 C 
HETATM   13  C22 UNL     1      26.309   2.164  52.896  1.00  0.00     0.125 C 
HETATM   14  N2  UNL     1      25.203   3.080  53.112  1.00  0.00    -0.357 N 
HETATM   15  C23 UNL     1      24.812   3.690  51.907  1.00  0.00     0.252 C 
HETATM   16  O5  UNL     1      25.318   3.579  50.795  1.00  0.00    -0.268 OA
HETATM   17  H30 UNL     1      24.473   3.614  53.586  1.00  0.00     0.162 HD
ENDROOT
BRANCH   8  18
HETATM   18  N1  UNL     1      21.794   0.219  51.803  1.00  0.00     0.131 NA
HETATM   19  C13 UNL     1      20.892  -0.070  50.744  1.00  0.00     0.287 C 
HETATM   20  C14 UNL     1      19.583   0.591  50.912  1.00  0.00    -0.003 C 
HETATM   21  C15 UNL     1      18.719   1.449  50.031  1.00  0.00     0.018 C 
HETATM   22  C16 UNL     1      19.052   0.357  52.103  1.00  0.00    -0.028 C 
HETATM   23  C17 UNL     1      19.829   0.198  53.134  1.00  0.00     0.066 C 
HETATM   24  C18 UNL     1      21.215  -0.371  52.959  1.00  0.00     0.228 C 
HETATM   25  C19 UNL     1      21.938  -0.545  54.211  1.00  0.00     0.043 C 
ENDBRANCH   8  18
BRANCH   7  26
HETATM   26  O3  UNL     1      21.714   2.202  49.700  1.00  0.00    -0.381 OA
HETATM   27  C10 UNL     1      22.498   2.146  48.512  1.00  0.00     0.202 C 
ENDBRANCH   7  26
BRANCH   1  28
HETATM   28  C2  UNL     1      20.543   6.731  50.070  1.00  0.00     0.292 C 
HETATM   29  O2  UNL     1      19.471   6.151  49.681  1.00  0.00    -0.259 OA
BRANCH  28  30
HETATM   30  O1  UNL     1      20.525   8.100  50.010  1.00  0.00    -0.323 OA
HETATM   31  C1  UNL     1      20.722   8.816  48.782  1.00  0.00     0.213 C 
ENDBRANCH  28  30
ENDBRANCH   1  28
TORSDOF 4
ENDMDL
MODEL 9
REMARK VINA RESULT:      -6.8      2.464      5.623
REMARK  4 active torsions:
REMARK  status: ('A' for Active; 'I' for Inactive)
REMARK    1  A    between atoms: O1_2  and  C2_3 
REMARK    2  A    between atoms: C2_3  and  C3_5 
REMARK    3  A    between atoms: C9_11  and  O3_12 
REMARK    4  A    between atoms: C11_14  and  N1_16 
ROOT
HETATM    1  C3  UNL     1      26.059   5.369  48.959  1.00  0.00     0.040 A 
HETATM    2  C4  UNL     1      26.101   6.543  48.281  1.00  0.00     0.018 A 
HETATM    3  C5  UNL     1      24.985   7.304  48.160  1.00  0.00     0.018 A 
HETATM    4  C6  UNL     1      23.862   6.851  48.726  1.00  0.00     0.041 A 
HETATM    5  C7  UNL     1      23.660   5.668  49.458  1.00  0.00    -0.008 A 
HETATM    6  C8  UNL     1      24.875   4.964  49.520  1.00  0.00     0.028 A 
HETATM    7  C9  UNL     1      22.390   5.171  50.185  1.00  0.00     0.220 C 
HETATM    8  C11 UNL     1      21.503   4.425  49.282  1.00  0.00     0.288 C 
HETATM    9  C12 UNL     1      22.420   3.756  48.286  1.00  0.00     0.085 C 
HETATM   10  O4  UNL     1      20.662   5.263  48.566  1.00  0.00    -0.350 OA
HETATM   11  C20 UNL     1      19.752   6.078  49.044  1.00  0.00     0.172 C 
HETATM   12  C21 UNL     1      19.969   7.465  49.552  1.00  0.00     0.046 C 
HETATM   13  C22 UNL     1      20.375   8.335  48.328  1.00  0.00     0.125 C 
HETATM   14  N2  UNL     1      21.458   7.559  47.752  1.00  0.00    -0.357 N 
HETATM   15  C23 UNL     1      22.552   7.491  48.632  1.00  0.00     0.252 C 
HETATM   16  O5  UNL     1      22.691   8.035  49.723  1.00  0.00    -0.268 OA
HETATM   17  H30 UNL     1      21.991   6.994  47.089  1.00  0.00     0.162 HD
ENDROOT
BRANCH   8  18
HETATM   18  N1  UNL     1      20.538   3.557  49.909  1.00  0.00     0.131 NA
HETATM   19  C13 UNL     1      20.931   2.795  51.042  1.00  0.00     0.287 C 
HETATM   20  C14 UNL     1      21.938   1.766  50.716  1.00  0.00    -0.003 C 
HETATM   21  C15 UNL     1      23.275   1.386  51.289  1.00  0.00     0.018 C 
HETATM   22  C16 UNL     1      21.565   1.001  49.700  1.00  0.00    -0.028 C 
HETATM   23  C17 UNL     1      20.830   1.505  48.752  1.00  0.00     0.066 C 
HETATM   24  C18 UNL     1      19.878   2.637  49.050  1.00  0.00     0.228 C 
HETATM   25  C19 UNL     1      19.084   3.050  47.902  1.00  0.00     0.043 C 
ENDBRANCH   8  18
BRANCH   7  26
HETATM   26  O3  UNL     1      23.054   4.296  51.127  1.00  0.00    -0.381 OA
HETATM   27  C10 UNL     1      23.061   5.080  52.316  1.00  0.00     0.202 C 
ENDBRANCH   7  26
BRANCH   1  28
HETATM   28  C2  UNL     1      27.262   4.581  49.070  1.00  0.00     0.292 C 
HETATM   29  O2  UNL     1      27.382   3.682  49.972  1.00  0.00    -0.259 OA
BRANCH  28  30
HETATM   30  O1  UNL     1      28.344   4.729  48.241  1.00  0.00    -0.323 OA
HETATM   31  C1  UNL     1      29.342   5.737  48.455  1.00  0.00     0.213 C 
ENDBRANCH  28  30
ENDBRANCH   1  28
TORSDOF 4
ENDMDL
