MODEL 1
REMARK VINA RESULT:      -7.7      0.000      0.000
REMARK  1 active torsions:
REMARK  status: ('A' for Active; 'I' for Inactive)
REMARK    1  A    between atoms: N2_3  and  C2_4 
ROOT
HETATM    1  C1  UNL     1      31.002   8.672  49.305  1.00  0.00     0.140 C 
HETATM    2  N1  UNL     1      31.271   8.296  47.960  1.00  0.00    -0.190 NA
HETATM    3  N2  UNL     1      30.403   7.386  47.383  1.00  0.00    -0.287 N 
HETATM    4  C7  UNL     1      31.101   6.847  46.248  1.00  0.00     0.126 C 
HETATM    5  C8  UNL     1      32.368   7.119  46.420  1.00  0.00     0.055 C 
HETATM    6  C9  UNL     1      33.430   6.795  45.565  1.00  0.00     0.137 C 
HETATM    7  N3  UNL     1      33.875   7.954  45.124  1.00  0.00    -0.224 NA
HETATM    8  C10 UNL     1      33.863   9.050  46.102  1.00  0.00     0.232 C 
HETATM    9  N4  UNL     1      33.445   8.951  47.365  1.00  0.00    -0.245 NA
HETATM   10  C11 UNL     1      32.622   7.861  47.720  1.00  0.00     0.177 C 
HETATM   11  C12 UNL     1      33.099   6.812  48.615  1.00  0.00     0.026 C 
HETATM   12  C13 UNL     1      33.679   5.651  49.000  1.00  0.00    -0.017 C 
HETATM   13  C14 UNL     1      34.205   4.879  47.806  1.00  0.00     0.042 C 
HETATM   14  C15 UNL     1      34.818   3.650  47.717  1.00  0.00    -0.017 C 
HETATM   15  C16 UNL     1      35.162   3.336  46.303  1.00  0.00    -0.006 C 
HETATM   16  C17 UNL     1      35.117   3.862  45.058  1.00  0.00    -0.008 C 
HETATM   17  C18 UNL     1      34.773   4.992  44.139  1.00  0.00     0.148 C 
HETATM   18  N5  UNL     1      34.312   6.041  44.857  1.00  0.00    -0.371 N 
HETATM   19  H19 UNL     1      35.375   6.241  44.774  1.00  0.00     0.161 HD
ENDROOT
BRANCH   3  20
HETATM   20  C2  UNL     1      29.068   7.039  47.751  1.00  0.00     0.032 A 
HETATM   21  C3  UNL     1      28.691   5.876  48.256  1.00  0.00     0.026 A 
HETATM   22  C4  UNL     1      27.282   5.770  48.542  1.00  0.00    -0.002 A 
HETATM   23  C5  UNL     1      26.768   6.926  48.189  1.00  0.00    -0.021 A 
HETATM   24  C6  UNL     1      27.823   7.836  47.658  1.00  0.00     0.086 A 
ENDBRANCH   3  20
TORSDOF 1
ENDMDL
MODEL 2
REMARK VINA RESULT:      -7.5      7.897     11.541
REMARK  1 active torsions:
REMARK  status: ('A' for Active; 'I' for Inactive)
REMARK    1  A    between atoms: N2_3  and  C2_4 
ROOT
HETATM    1  C1  UNL     1      26.558   3.695  49.880  1.00  0.00     0.140 C 
HETATM    2  N1  UNL     1      25.497   3.858  50.812  1.00  0.00    -0.190 NA
HETATM    3  N2  UNL     1      25.330   2.851  51.748  1.00  0.00    -0.287 N 
HETATM    4  C7  UNL     1      23.996   3.009  52.257  1.00  0.00     0.126 C 
HETATM    5  C8  UNL     1      23.350   3.758  51.401  1.00  0.00     0.055 C 
HETATM    6  C9  UNL     1      22.019   4.185  51.480  1.00  0.00     0.137 C 
HETATM    7  N3  UNL     1      22.091   5.492  51.631  1.00  0.00    -0.224 NA
HETATM    8  C10 UNL     1      23.163   6.157  50.878  1.00  0.00     0.232 C 
HETATM    9  N4  UNL     1      24.039   5.544  50.079  1.00  0.00    -0.245 NA
HETATM   10  C11 UNL     1      24.219   4.152  50.219  1.00  0.00     0.177 C 
HETATM   11  C12 UNL     1      23.798   3.225  49.173  1.00  0.00     0.026 C 
HETATM   12  C13 UNL     1      22.990   2.387  48.482  1.00  0.00    -0.017 C 
HETATM   13  C14 UNL     1      21.623   2.285  49.129  1.00  0.00     0.042 C 
HETATM   14  C15 UNL     1      20.517   1.533  48.804  1.00  0.00    -0.017 C 
HETATM   15  C16 UNL     1      19.403   1.801  49.753  1.00  0.00    -0.006 C 
HETATM   16  C17 UNL     1      19.077   2.568  50.819  1.00  0.00    -0.008 C 
HETATM   17  C18 UNL     1      19.436   3.630  51.811  1.00  0.00     0.148 C 
HETATM   18  N5  UNL     1      20.662   4.126  51.527  1.00  0.00    -0.371 N 
HETATM   19  H19 UNL     1      19.991   4.791  50.994  1.00  0.00     0.161 HD
ENDROOT
BRANCH   3  20
HETATM   20  C2  UNL     1      26.256   1.862  52.197  1.00  0.00     0.032 A 
HETATM   21  C3  UNL     1      26.151   0.561  51.982  1.00  0.00     0.026 A 
HETATM   22  C4  UNL     1      27.216  -0.232  52.544  1.00  0.00    -0.002 A 
HETATM   23  C5  UNL     1      28.011   0.627  53.139  1.00  0.00    -0.021 A 
HETATM   24  C6  UNL     1      27.498   2.019  52.988  1.00  0.00     0.086 A 
ENDBRANCH   3  20
TORSDOF 1
ENDMDL
MODEL 3
REMARK VINA RESULT:      -7.4      5.878     10.552
REMARK  1 active torsions:
REMARK  status: ('A' for Active; 'I' for Inactive)
REMARK    1  A    between atoms: N2_3  and  C2_4 
ROOT
HETATM    1  C1  UNL     1      24.261   7.253  47.548  1.00  0.00     0.140 C 
HETATM    2  N1  UNL     1      24.133   6.683  48.845  1.00  0.00    -0.190 NA
HETATM    3  N2  UNL     1      25.208   5.944  49.308  1.00  0.00    -0.287 N 
HETATM    4  C7  UNL     1      24.694   5.139  50.382  1.00  0.00     0.126 C 
HETATM    5  C8  UNL     1      23.392   5.125  50.255  1.00  0.00     0.055 C 
HETATM    6  C9  UNL     1      22.464   4.474  51.078  1.00  0.00     0.137 C 
HETATM    7  N3  UNL     1      21.781   5.444  51.651  1.00  0.00    -0.224 NA
HETATM    8  C10 UNL     1      21.505   6.610  50.802  1.00  0.00     0.232 C 
HETATM    9  N4  UNL     1      21.890   6.747  49.531  1.00  0.00    -0.245 NA
HETATM   10  C11 UNL     1      22.928   5.923  49.048  1.00  0.00     0.177 C 
HETATM   11  C12 UNL     1      22.674   4.892  48.046  1.00  0.00     0.026 C 
HETATM   12  C13 UNL     1      22.363   3.676  47.540  1.00  0.00    -0.017 C 
HETATM   13  C14 UNL     1      22.072   2.680  48.644  1.00  0.00     0.042 C 
HETATM   14  C15 UNL     1      21.762   1.340  48.602  1.00  0.00    -0.017 C 
HETATM   15  C16 UNL     1      21.551   0.806  49.974  1.00  0.00    -0.006 C 
HETATM   16  C17 UNL     1      21.518   1.191  51.270  1.00  0.00    -0.008 C 
HETATM   17  C18 UNL     1      21.624   2.266  52.307  1.00  0.00     0.148 C 
HETATM   18  N5  UNL     1      21.806   3.464  51.706  1.00  0.00    -0.371 N 
HETATM   19  H19 UNL     1      20.729   3.401  51.822  1.00  0.00     0.161 HD
ENDROOT
BRANCH   3  20
HETATM   20  C2  UNL     1      26.573   5.959  48.890  1.00  0.00     0.032 A 
HETATM   21  C3  UNL     1      27.328   4.889  48.703  1.00  0.00     0.026 A 
HETATM   22  C4  UNL     1      28.678   5.168  48.283  1.00  0.00    -0.002 A 
HETATM   23  C5  UNL     1      28.756   6.477  48.214  1.00  0.00    -0.021 A 
HETATM   24  C6  UNL     1      27.457   7.107  48.586  1.00  0.00     0.086 A 
ENDBRANCH   3  20
TORSDOF 1
ENDMDL
MODEL 4
REMARK VINA RESULT:      -7.2      8.404     10.658
REMARK  1 active torsions:
REMARK  status: ('A' for Active; 'I' for Inactive)
REMARK    1  A    between atoms: N2_3  and  C2_4 
ROOT
HETATM    1  C1  UNL     1      24.119   0.789  53.242  1.00  0.00     0.140 C 
HETATM    2  N1  UNL     1      24.458   1.271  51.947  1.00  0.00    -0.190 NA
HETATM    3  N2  UNL     1      25.778   1.637  51.746  1.00  0.00    -0.287 N 
HETATM    4  C7  UNL     1      25.777   2.470  50.575  1.00  0.00     0.126 C 
HETATM    5  C8  UNL     1      24.544   2.862  50.391  1.00  0.00     0.055 C 
HETATM    6  C9  UNL     1      24.057   3.685  49.367  1.00  0.00     0.137 C 
HETATM    7  N3  UNL     1      23.265   2.908  48.656  1.00  0.00    -0.224 NA
HETATM    8  C10 UNL     1      22.476   1.937  49.424  1.00  0.00     0.232 C 
HETATM    9  N4  UNL     1      22.509   1.794  50.751  1.00  0.00    -0.245 NA
HETATM   10  C11 UNL     1      23.608   2.324  51.460  1.00  0.00     0.177 C 
HETATM   11  C12 UNL     1      23.451   3.458  52.365  1.00  0.00     0.026 C 
HETATM   12  C13 UNL     1      23.406   4.747  52.775  1.00  0.00    -0.017 C 
HETATM   13  C14 UNL     1      23.675   5.697  51.625  1.00  0.00     0.042 C 
HETATM   14  C15 UNL     1      23.771   7.069  51.582  1.00  0.00    -0.017 C 
HETATM   15  C16 UNL     1      24.039   7.535  50.195  1.00  0.00    -0.006 C 
HETATM   16  C17 UNL     1      24.185   7.076  48.931  1.00  0.00    -0.008 C 
HETATM   17  C18 UNL     1      24.201   5.939  47.957  1.00  0.00     0.148 C 
HETATM   18  N5  UNL     1      23.883   4.789  48.593  1.00  0.00    -0.371 N 
HETATM   19  H19 UNL     1      22.927   5.146  48.226  1.00  0.00     0.161 HD
ENDROOT
BRANCH   3  20
HETATM   20  C2  UNL     1      26.949   1.267  52.476  1.00  0.00     0.032 A 
HETATM   21  C3  UNL     1      27.762   2.107  53.094  1.00  0.00     0.026 A 
HETATM   22  C4  UNL     1      28.880   1.486  53.758  1.00  0.00    -0.002 A 
HETATM   23  C5  UNL     1      28.748   0.199  53.530  1.00  0.00    -0.021 A 
HETATM   24  C6  UNL     1      27.535  -0.072  52.707  1.00  0.00     0.086 A 
ENDBRANCH   3  20
TORSDOF 1
ENDMDL
MODEL 5
REMARK VINA RESULT:      -7.2      1.992      6.326
REMARK  1 active torsions:
REMARK  status: ('A' for Active; 'I' for Inactive)
REMARK    1  A    between atoms: N2_3  and  C2_4 
ROOT
HETATM    1  C1  UNL     1      32.887   7.658  45.877  1.00  0.00     0.140 C 
HETATM    2  N1  UNL     1      32.340   7.842  47.177  1.00  0.00    -0.190 NA
HETATM    3  N2  UNL     1      32.090   6.698  47.914  1.00  0.00    -0.287 N 
HETATM    4  C7  UNL     1      31.171   7.092  48.946  1.00  0.00     0.126 C 
HETATM    5  C8  UNL     1      30.646   8.229  48.571  1.00  0.00     0.055 C 
HETATM    6  C9  UNL     1      29.701   8.998  49.261  1.00  0.00     0.137 C 
HETATM    7  N3  UNL     1      30.337  10.105  49.586  1.00  0.00    -0.224 NA
HETATM    8  C10 UNL     1      31.284  10.608  48.582  1.00  0.00     0.232 C 
HETATM    9  N4  UNL     1      31.534  10.034  47.403  1.00  0.00    -0.245 NA
HETATM   10  C11 UNL     1      31.173   8.683  47.220  1.00  0.00     0.177 C 
HETATM   11  C12 UNL     1      30.105   8.302  46.302  1.00  0.00     0.026 C 
HETATM   12  C13 UNL     1      28.854   8.011  45.874  1.00  0.00    -0.017 C 
HETATM   13  C14 UNL     1      27.846   8.138  46.999  1.00  0.00     0.042 C 
HETATM   14  C15 UNL     1      26.491   7.902  47.038  1.00  0.00    -0.017 C 
HETATM   15  C16 UNL     1      25.945   8.191  48.391  1.00  0.00    -0.006 C 
HETATM   16  C17 UNL     1      26.314   8.651  49.609  1.00  0.00    -0.008 C 
HETATM   17  C18 UNL     1      27.366   9.189  50.528  1.00  0.00     0.148 C 
HETATM   18  N5  UNL     1      28.527   9.347  49.852  1.00  0.00    -0.371 N 
HETATM   19  H19 UNL     1      28.049  10.316  49.762  1.00  0.00     0.161 HD
ENDROOT
BRANCH   3  20
HETATM   20  C2  UNL     1      32.630   5.383  47.769  1.00  0.00     0.032 A 
HETATM   21  C3  UNL     1      31.956   4.320  47.365  1.00  0.00     0.026 A 
HETATM   22  C4  UNL     1      32.727   3.103  47.306  1.00  0.00    -0.002 A 
HETATM   23  C5  UNL     1      33.934   3.438  47.700  1.00  0.00    -0.021 A 
HETATM   24  C6  UNL     1      34.001   4.890  48.031  1.00  0.00     0.086 A 
ENDBRANCH   3  20
TORSDOF 1
ENDMDL
MODEL 6
REMARK VINA RESULT:      -6.9     10.510     12.214
REMARK  1 active torsions:
REMARK  status: ('A' for Active; 'I' for Inactive)
REMARK    1  A    between atoms: N2_3  and  C2_4 
ROOT
HETATM    1  C1  UNL     1      20.837   5.683  50.206  1.00  0.00     0.140 C 
HETATM    2  N1  UNL     1      21.927   4.793  50.414  1.00  0.00    -0.190 NA
HETATM    3  N2  UNL     1      22.166   3.861  49.419  1.00  0.00    -0.287 N 
HETATM    4  C7  UNL     1      22.978   2.843  50.027  1.00  0.00     0.126 C 
HETATM    5  C8  UNL     1      22.854   2.983  51.321  1.00  0.00     0.055 C 
HETATM    6  C9  UNL     1      23.468   2.218  52.322  1.00  0.00     0.137 C 
HETATM    7  N3  UNL     1      24.287   3.051  52.930  1.00  0.00    -0.224 NA
HETATM    8  C10 UNL     1      23.793   4.426  53.083  1.00  0.00     0.232 C 
HETATM    9  N4  UNL     1      22.608   4.871  52.658  1.00  0.00    -0.245 NA
HETATM   10  C11 UNL     1      21.915   4.119  51.685  1.00  0.00     0.177 C 
HETATM   11  C12 UNL     1      20.669   3.431  52.005  1.00  0.00     0.026 C 
HETATM   12  C13 UNL     1      19.847   2.434  52.410  1.00  0.00    -0.017 C 
HETATM   13  C14 UNL     1      20.635   1.204  52.814  1.00  0.00     0.042 C 
HETATM   14  C15 UNL     1      20.226  -0.039  53.240  1.00  0.00    -0.017 C 
HETATM   15  C16 UNL     1      21.399  -0.908  53.529  1.00  0.00    -0.006 C 
HETATM   16  C17 UNL     1      22.751  -0.891  53.558  1.00  0.00    -0.008 C 
HETATM   17  C18 UNL     1      24.044  -0.156  53.381  1.00  0.00     0.148 C 
HETATM   18  N5  UNL     1      23.796   1.139  53.081  1.00  0.00    -0.371 N 
HETATM   19  H19 UNL     1      23.891   1.145  54.161  1.00  0.00     0.161 HD
ENDROOT
BRANCH   3  20
HETATM   20  C2  UNL     1      21.766   3.866  48.049  1.00  0.00     0.032 A 
HETATM   21  C3  UNL     1      22.408   4.475  47.066  1.00  0.00     0.026 A 
HETATM   22  C4  UNL     1      21.798   4.334  45.768  1.00  0.00    -0.002 A 
HETATM   23  C5  UNL     1      20.723   3.606  45.966  1.00  0.00    -0.021 A 
HETATM   24  C6  UNL     1      20.588   3.240  47.405  1.00  0.00     0.086 A 
ENDBRANCH   3  20
TORSDOF 1
ENDMDL
MODEL 7
REMARK VINA RESULT:      -6.9      8.520     12.337
REMARK  1 active torsions:
REMARK  status: ('A' for Active; 'I' for Inactive)
REMARK    1  A    between atoms: N2_3  and  C2_4 
ROOT
HETATM    1  C1  UNL     1      19.629   0.501  50.859  1.00  0.00     0.140 C 
HETATM    2  N1  UNL     1      20.964   0.847  50.510  1.00  0.00    -0.190 NA
HETATM    3  N2  UNL     1      21.906   0.792  51.522  1.00  0.00    -0.287 N 
HETATM    4  C7  UNL     1      23.018   1.577  51.063  1.00  0.00     0.126 C 
HETATM    5  C8  UNL     1      22.575   2.326  50.088  1.00  0.00     0.055 C 
HETATM    6  C9  UNL     1      23.303   3.251  49.328  1.00  0.00     0.137 C 
HETATM    7  N3  UNL     1      23.322   2.749  48.110  1.00  0.00    -0.224 NA
HETATM    8  C10 UNL     1      22.091   2.070  47.686  1.00  0.00     0.232 C 
HETATM    9  N4  UNL     1      20.991   1.933  48.430  1.00  0.00    -0.245 NA
HETATM   10  C11 UNL     1      21.095   2.107  49.826  1.00  0.00     0.177 C 
HETATM   11  C12 UNL     1      20.467   3.240  50.497  1.00  0.00     0.026 C 
HETATM   12  C13 UNL     1      20.336   4.484  51.014  1.00  0.00    -0.017 C 
HETATM   13  C14 UNL     1      21.597   5.299  50.808  1.00  0.00     0.042 C 
HETATM   14  C15 UNL     1      21.929   6.576  51.200  1.00  0.00    -0.017 C 
HETATM   15  C16 UNL     1      23.298   6.929  50.737  1.00  0.00    -0.006 C 
HETATM   16  C17 UNL     1      24.336   6.439  50.021  1.00  0.00    -0.008 C 
HETATM   17  C18 UNL     1      24.943   5.345  49.199  1.00  0.00     0.148 C 
HETATM   18  N5  UNL     1      24.043   4.351  49.025  1.00  0.00    -0.371 N 
HETATM   19  H19 UNL     1      23.894   4.981  48.155  1.00  0.00     0.161 HD
ENDROOT
BRANCH   3  20
HETATM   20  C2  UNL     1      21.870   0.087  52.764  1.00  0.00     0.032 A 
HETATM   21  C3  UNL     1      21.368   0.555  53.895  1.00  0.00     0.026 A 
HETATM   22  C4  UNL     1      21.455  -0.350  55.014  1.00  0.00    -0.002 A 
HETATM   23  C5  UNL     1      22.046  -1.425  54.545  1.00  0.00    -0.021 A 
HETATM   24  C6  UNL     1      22.368  -1.266  53.098  1.00  0.00     0.086 A 
ENDBRANCH   3  20
TORSDOF 1
ENDMDL
MODEL 8
REMARK VINA RESULT:      -6.8      9.233     11.339
REMARK  1 active torsions:
REMARK  status: ('A' for Active; 'I' for Inactive)
REMARK    1  A    between atoms: N2_3  and  C2_4 
ROOT
HETATM    1  C1  UNL     1      22.476   0.856  52.009  1.00  0.00     0.140 C 
HETATM    2  N1  UNL     1      23.052   1.524  50.894  1.00  0.00    -0.190 NA
HETATM    3  N2  UNL     1      24.321   2.050  51.071  1.00  0.00    -0.287 N 
HETATM    4  C7  UNL     1      24.493   3.014  50.020  1.00  0.00     0.126 C 
HETATM    5  C8  UNL     1      23.301   3.293  49.563  1.00  0.00     0.055 C 
HETATM    6  C9  UNL     1      22.972   4.178  48.528  1.00  0.00     0.137 C 
HETATM    7  N3  UNL     1      22.487   3.415  47.570  1.00  0.00    -0.224 NA
HETATM    8  C10 UNL     1      21.671   2.279  48.020  1.00  0.00     0.232 C 
HETATM    9  N4  UNL     1      21.399   1.980  49.292  1.00  0.00    -0.245 NA
HETATM   10  C11 UNL     1      22.214   2.533  50.303  1.00  0.00     0.177 C 
HETATM   11  C12 UNL     1      21.692   3.525  51.238  1.00  0.00     0.026 C 
HETATM   12  C13 UNL     1      21.378   4.743  51.738  1.00  0.00    -0.017 C 
HETATM   13  C14 UNL     1      21.789   5.849  50.787  1.00  0.00     0.042 C 
HETATM   14  C15 UNL     1      21.710   7.219  50.896  1.00  0.00    -0.017 C 
HETATM   15  C16 UNL     1      22.242   7.875  49.672  1.00  0.00    -0.006 C 
HETATM   16  C17 UNL     1      22.750   7.592  48.451  1.00  0.00    -0.008 C 
HETATM   17  C18 UNL     1      23.152   6.590  47.413  1.00  0.00     0.148 C 
HETATM   18  N5  UNL     1      22.845   5.343  47.839  1.00  0.00    -0.371 N 
HETATM   19  H19 UNL     1      21.968   5.640  47.274  1.00  0.00     0.161 HD
ENDROOT
BRANCH   3  20
HETATM   20  C2  UNL     1      25.318   1.720  52.039  1.00  0.00     0.032 A 
HETATM   21  C3  UNL     1      26.299   0.851  51.860  1.00  0.00     0.026 A 
HETATM   22  C4  UNL     1      27.176   0.690  52.993  1.00  0.00    -0.002 A 
HETATM   23  C5  UNL     1      26.704   1.498  53.914  1.00  0.00    -0.021 A 
HETATM   24  C6  UNL     1      25.498   2.222  53.420  1.00  0.00     0.086 A 
ENDBRANCH   3  20
TORSDOF 1
ENDMDL
MODEL 9
REMARK VINA RESULT:      -6.8      7.773     10.915
REMARK  1 active torsions:
REMARK  status: ('A' for Active; 'I' for Inactive)
REMARK    1  A    between atoms: N2_3  and  C2_4 
ROOT
HETATM    1  C1  UNL     1      26.275   2.842  50.216  1.00  0.00     0.140 C 
HETATM    2  N1  UNL     1      25.500   3.817  50.902  1.00  0.00    -0.190 NA
HETATM    3  N2  UNL     1      24.555   3.343  51.796  1.00  0.00    -0.287 N 
HETATM    4  C7  UNL     1      23.642   4.432  52.010  1.00  0.00     0.126 C 
HETATM    5  C8  UNL     1      23.820   5.275  51.027  1.00  0.00     0.055 C 
HETATM    6  C9  UNL     1      23.156   6.490  50.818  1.00  0.00     0.137 C 
HETATM    7  N3  UNL     1      24.085   7.413  50.961  1.00  0.00    -0.224 NA
HETATM    8  C10 UNL     1      25.413   7.060  50.441  1.00  0.00     0.232 C 
HETATM    9  N4  UNL     1      25.728   5.904  49.853  1.00  0.00    -0.245 NA
HETATM   10  C11 UNL     1      24.878   4.794  50.048  1.00  0.00     0.177 C 
HETATM   11  C12 UNL     1      24.090   4.242  48.952  1.00  0.00     0.026 C 
HETATM   12  C13 UNL     1      23.037   4.069  48.118  1.00  0.00    -0.017 C 
HETATM   13  C14 UNL     1      21.903   5.012  48.464  1.00  0.00     0.042 C 
HETATM   14  C15 UNL     1      20.645   5.158  47.926  1.00  0.00    -0.017 C 
HETATM   15  C16 UNL     1      19.901   6.247  48.614  1.00  0.00    -0.006 C 
HETATM   16  C17 UNL     1      20.045   7.187  49.576  1.00  0.00    -0.008 C 
HETATM   17  C18 UNL     1      20.889   7.871  50.606  1.00  0.00     0.148 C 
HETATM   18  N5  UNL     1      22.143   7.364  50.579  1.00  0.00    -0.371 N 
HETATM   19  H19 UNL     1      22.200   8.214  49.907  1.00  0.00     0.161 HD
ENDROOT
BRANCH   3  20
HETATM   20  C2  UNL     1      24.469   2.074  52.445  1.00  0.00     0.032 A 
HETATM   21  C3  UNL     1      23.491   1.199  52.286  1.00  0.00     0.026 A 
HETATM   22  C4  UNL     1      23.632  -0.011  53.058  1.00  0.00    -0.002 A 
HETATM   23  C5  UNL     1      24.751   0.135  53.729  1.00  0.00    -0.021 A 
HETATM   24  C6  UNL     1      25.389   1.447  53.421  1.00  0.00     0.086 A 
ENDBRANCH   3  20
TORSDOF 1
ENDMDL
