MODEL 1
REMARK VINA RESULT:      -8.0      0.000      0.000
REMARK  5 active torsions:
REMARK  status: ('A' for Active; 'I' for Inactive)
REMARK    1  A    between atoms: C2_3  and  C9_12 
REMARK    2  A    between atoms: C3_4  and  C4_5 
REMARK    3  A    between atoms: C7_9  and  O2_10 
REMARK       I    between atoms: C9_12  and  N2_14 
REMARK    4  A    between atoms: N2_14  and  C10_15 
REMARK    5  A    between atoms: C10_15  and  C11_16 
ROOT
HETATM    1  N1  UNL     1      24.019   1.630  51.392  1.00  0.00    -0.191 NA
HETATM    2  C1  UNL     1      23.846   0.844  52.248  1.00  0.00     0.105 C 
HETATM    3  C2  UNL     1      23.630  -0.097  53.309  1.00  0.00     0.109 C 
HETATM    4  C3  UNL     1      24.723  -0.704  53.742  1.00  0.00     0.014 C 
ENDROOT
BRANCH   3   5
HETATM    5  C9  UNL     1      22.321  -0.378  53.881  1.00  0.00     0.262 C 
HETATM    6  O3  UNL     1      22.270  -0.820  55.045  1.00  0.00    -0.267 OA
HETATM    7  N2  UNL     1      21.149  -0.145  53.115  1.00  0.00    -0.352 N 
HETATM    8  H7  UNL     1      21.303   0.234  52.133  1.00  0.00     0.163 HD
BRANCH   7   9
HETATM    9  C10 UNL     1      19.783  -0.381  53.568  1.00  0.00     0.161 C 
BRANCH   9  10
HETATM   10  C11 UNL     1      18.882  -0.244  52.414  1.00  0.00    -0.041 A 
HETATM   11  C12 UNL     1      17.601  -0.723  52.251  1.00  0.00     0.009 A 
HETATM   12  C13 UNL     1      16.899  -0.488  51.085  1.00  0.00     0.001 A 
HETATM   13  C14 UNL     1      17.435   0.229  50.031  1.00  0.00     0.000 A 
HETATM   14  C15 UNL     1      18.716   0.716  50.177  1.00  0.00     0.001 A 
HETATM   15  C16 UNL     1      19.386   0.473  51.334  1.00  0.00     0.009 A 
ENDBRANCH   9  10
ENDBRANCH   7   9
ENDBRANCH   3   5
BRANCH   4  16
HETATM   16  C4  UNL     1      26.036  -0.413  53.159  1.00  0.00     0.061 A 
HETATM   17  C5  UNL     1      26.863   0.456  54.057  1.00  0.00     0.010 A 
HETATM   18  C6  UNL     1      28.086   0.068  54.429  1.00  0.00     0.142 A 
HETATM   19  O1  UNL     1      28.753  -1.121  54.076  1.00  0.00    -0.301 OA
HETATM   20  C7  UNL     1      28.051  -2.004  53.232  1.00  0.00     0.179 A 
HETATM   21  C8  UNL     1      26.845  -1.603  52.874  1.00  0.00     0.049 A 
BRANCH  20  22
HETATM   22  O2  UNL     1      28.477  -3.232  52.739  1.00  0.00    -0.341 OA
HETATM   23  H5  UNL     1      28.302  -4.033  53.362  1.00  0.00     0.220 HD
ENDBRANCH  20  22
ENDBRANCH   4  16
TORSDOF 5
ENDMDL
MODEL 2
REMARK VINA RESULT:      -8.0      3.673      6.135
REMARK  5 active torsions:
REMARK  status: ('A' for Active; 'I' for Inactive)
REMARK    1  A    between atoms: C2_3  and  C9_12 
REMARK    2  A    between atoms: C3_4  and  C4_5 
REMARK    3  A    between atoms: C7_9  and  O2_10 
REMARK       I    between atoms: C9_12  and  N2_14 
REMARK    4  A    between atoms: N2_14  and  C10_15 
REMARK    5  A    between atoms: C10_15  and  C11_16 
ROOT
HETATM    1  N1  UNL     1      22.799  -0.407  53.976  1.00  0.00    -0.191 NA
HETATM    2  C1  UNL     1      23.453   0.175  53.192  1.00  0.00     0.105 C 
HETATM    3  C2  UNL     1      24.243   0.872  52.218  1.00  0.00     0.109 C 
HETATM    4  C3  UNL     1      25.548   0.679  52.322  1.00  0.00     0.014 C 
ENDROOT
BRANCH   3   5
HETATM    5  C9  UNL     1      23.676   1.729  51.186  1.00  0.00     0.262 C 
HETATM    6  O3  UNL     1      22.667   1.327  50.576  1.00  0.00    -0.267 OA
HETATM    7  N2  UNL     1      24.274   2.985  50.902  1.00  0.00    -0.352 N 
HETATM    8  H7  UNL     1      25.132   3.234  51.481  1.00  0.00     0.163 HD
BRANCH   7   9
HETATM    9  C10 UNL     1      23.806   3.935  49.900  1.00  0.00     0.161 C 
BRANCH   9  10
HETATM   10  C11 UNL     1      24.969   4.672  49.381  1.00  0.00    -0.041 A 
HETATM   11  C12 UNL     1      25.040   5.965  48.913  1.00  0.00     0.009 A 
HETATM   12  C13 UNL     1      26.235   6.492  48.465  1.00  0.00     0.001 A 
HETATM   13  C14 UNL     1      27.410   5.763  48.460  1.00  0.00     0.000 A 
HETATM   14  C15 UNL     1      27.357   4.467  48.925  1.00  0.00     0.001 A 
HETATM   15  C16 UNL     1      26.171   3.970  49.362  1.00  0.00     0.009 A 
ENDBRANCH   9  10
ENDBRANCH   7   9
ENDBRANCH   3   5
BRANCH   4  16
HETATM   16  C4  UNL     1      26.107  -0.186  53.365  1.00  0.00     0.061 A 
HETATM   17  C5  UNL     1      26.782  -1.392  52.784  1.00  0.00     0.010 A 
HETATM   18  C6  UNL     1      28.050  -1.669  53.096  1.00  0.00     0.142 A 
HETATM   19  O1  UNL     1      28.903  -0.940  53.949  1.00  0.00    -0.301 OA
HETATM   20  C7  UNL     1      28.354   0.213  54.542  1.00  0.00     0.179 A 
HETATM   21  C8  UNL     1      27.099   0.470  54.223  1.00  0.00     0.049 A 
BRANCH  20  22
HETATM   22  O2  UNL     1      28.975   1.101  55.415  1.00  0.00    -0.341 OA
HETATM   23  H5  UNL     1      28.829   0.899  56.414  1.00  0.00     0.220 HD
ENDBRANCH  20  22
ENDBRANCH   4  16
TORSDOF 5
ENDMDL
MODEL 3
REMARK VINA RESULT:      -7.7      6.562      9.322
REMARK  5 active torsions:
REMARK  status: ('A' for Active; 'I' for Inactive)
REMARK    1  A    between atoms: C2_3  and  C9_12 
REMARK    2  A    between atoms: C3_4  and  C4_5 
REMARK    3  A    between atoms: C7_9  and  O2_10 
REMARK       I    between atoms: C9_12  and  N2_14 
REMARK    4  A    between atoms: N2_14  and  C10_15 
REMARK    5  A    between atoms: C10_15  and  C11_16 
ROOT
HETATM    1  N1  UNL     1      28.612   4.844  48.396  1.00  0.00    -0.191 NA
HETATM    2  C1  UNL     1      27.502   4.858  48.784  1.00  0.00     0.105 C 
HETATM    3  C2  UNL     1      26.142   4.862  49.237  1.00  0.00     0.109 C 
HETATM    4  C3  UNL     1      25.540   6.039  49.171  1.00  0.00     0.014 C 
ENDROOT
BRANCH   3   5
HETATM    5  C9  UNL     1      25.455   3.678  49.734  1.00  0.00     0.262 C 
HETATM    6  O3  UNL     1      24.396   3.333  49.174  1.00  0.00    -0.267 OA
HETATM    7  N2  UNL     1      25.997   2.951  50.827  1.00  0.00    -0.352 N 
HETATM    8  H7  UNL     1      26.906   3.330  51.232  1.00  0.00     0.163 HD
BRANCH   7   9
HETATM    9  C10 UNL     1      25.414   1.753  51.416  1.00  0.00     0.161 C 
BRANCH   9  10
HETATM   10  C11 UNL     1      26.478   1.014  52.114  1.00  0.00    -0.041 A 
HETATM   11  C12 UNL     1      26.641  -0.346  52.255  1.00  0.00     0.009 A 
HETATM   12  C13 UNL     1      27.718  -0.862  52.948  1.00  0.00     0.001 A 
HETATM   13  C14 UNL     1      28.679  -0.055  53.532  1.00  0.00     0.000 A 
HETATM   14  C15 UNL     1      28.531   1.309  53.399  1.00  0.00     0.001 A 
HETATM   15  C16 UNL     1      27.464   1.793  52.711  1.00  0.00     0.009 A 
ENDBRANCH   9  10
ENDBRANCH   7   9
ENDBRANCH   3   5
BRANCH   4  16
HETATM   16  C4  UNL     1      26.240   7.224  48.669  1.00  0.00     0.061 A 
HETATM   17  C5  UNL     1      25.304   8.177  47.989  1.00  0.00     0.010 A 
HETATM   18  C6  UNL     1      25.243   9.453  48.379  1.00  0.00     0.142 A 
HETATM   19  O1  UNL     1      25.982  10.073  49.406  1.00  0.00    -0.301 OA
HETATM   20  C7  UNL     1      26.890   9.253  50.103  1.00  0.00     0.179 A 
HETATM   21  C8  UNL     1      26.936   7.995  49.704  1.00  0.00     0.049 A 
BRANCH  20  22
HETATM   22  O2  UNL     1      27.732   9.611  51.150  1.00  0.00    -0.341 OA
HETATM   23  H5  UNL     1      28.725   9.380  51.005  1.00  0.00     0.220 HD
ENDBRANCH  20  22
ENDBRANCH   4  16
TORSDOF 5
ENDMDL
MODEL 4
REMARK VINA RESULT:      -7.6      2.037      2.863
REMARK  5 active torsions:
REMARK  status: ('A' for Active; 'I' for Inactive)
REMARK    1  A    between atoms: C2_3  and  C9_12 
REMARK    2  A    between atoms: C3_4  and  C4_5 
REMARK    3  A    between atoms: C7_9  and  O2_10 
REMARK       I    between atoms: C9_12  and  N2_14 
REMARK    4  A    between atoms: N2_14  and  C10_15 
REMARK    5  A    between atoms: C10_15  and  C11_16 
ROOT
HETATM    1  N1  UNL     1      26.830   3.321  50.174  1.00  0.00    -0.191 NA
HETATM    2  C1  UNL     1      25.950   2.736  50.687  1.00  0.00     0.105 C 
HETATM    3  C2  UNL     1      24.871   2.042  51.328  1.00  0.00     0.109 C 
HETATM    4  C3  UNL     1      25.242   1.032  52.098  1.00  0.00     0.014 C 
ENDROOT
BRANCH   3   5
HETATM    5  C9  UNL     1      23.470   2.402  51.161  1.00  0.00     0.262 C 
HETATM    6  O3  UNL     1      23.178   3.611  51.082  1.00  0.00    -0.267 OA
HETATM    7  N2  UNL     1      22.481   1.385  51.091  1.00  0.00    -0.352 N 
HETATM    8  H7  UNL     1      22.836   0.384  51.168  1.00  0.00     0.163 HD
BRANCH   7   9
HETATM    9  C10 UNL     1      21.050   1.609  50.922  1.00  0.00     0.161 C 
BRANCH   9  10
HETATM   10  C11 UNL     1      20.328   0.654  51.778  1.00  0.00    -0.041 A 
HETATM   11  C12 UNL     1      19.038   0.186  51.660  1.00  0.00     0.009 A 
HETATM   12  C13 UNL     1      18.528  -0.722  52.566  1.00  0.00     0.001 A 
HETATM   13  C14 UNL     1      19.272  -1.206  53.628  1.00  0.00     0.000 A 
HETATM   14  C15 UNL     1      20.565  -0.748  53.760  1.00  0.00     0.001 A 
HETATM   15  C16 UNL     1      21.045   0.144  52.855  1.00  0.00     0.009 A 
ENDBRANCH   9  10
ENDBRANCH   7   9
ENDBRANCH   3   5
BRANCH   4  16
HETATM   16  C4  UNL     1      26.656   0.679  52.260  1.00  0.00     0.061 A 
HETATM   17  C5  UNL     1      27.209   1.181  53.559  1.00  0.00     0.010 A 
HETATM   18  C6  UNL     1      27.804   0.339  54.407  1.00  0.00     0.142 A 
HETATM   19  O1  UNL     1      27.996  -1.048  54.246  1.00  0.00    -0.301 OA
HETATM   20  C7  UNL     1      27.506  -1.611  53.052  1.00  0.00     0.179 A 
HETATM   21  C8  UNL     1      26.923  -0.763  52.225  1.00  0.00     0.049 A 
BRANCH  20  22
HETATM   22  O2  UNL     1      27.566  -2.940  52.648  1.00  0.00    -0.341 OA
HETATM   23  H5  UNL     1      28.358  -3.170  52.032  1.00  0.00     0.220 HD
ENDBRANCH  20  22
ENDBRANCH   4  16
TORSDOF 5
ENDMDL
MODEL 5
REMARK VINA RESULT:      -7.4      2.712      7.809
REMARK  5 active torsions:
REMARK  status: ('A' for Active; 'I' for Inactive)
REMARK    1  A    between atoms: C2_3  and  C9_12 
REMARK    2  A    between atoms: C3_4  and  C4_5 
REMARK    3  A    between atoms: C7_9  and  O2_10 
REMARK       I    between atoms: C9_12  and  N2_14 
REMARK    4  A    between atoms: N2_14  and  C10_15 
REMARK    5  A    between atoms: C10_15  and  C11_16 
ROOT
HETATM    1  N1  UNL     1      20.968  -1.659  54.745  1.00  0.00    -0.191 NA
HETATM    2  C1  UNL     1      21.878  -1.148  54.206  1.00  0.00     0.105 C 
HETATM    3  C2  UNL     1      22.994  -0.512  53.568  1.00  0.00     0.109 C 
HETATM    4  C3  UNL     1      22.671   0.374  52.640  1.00  0.00     0.014 C 
ENDROOT
BRANCH   3   5
HETATM    5  C9  UNL     1      24.383  -0.801  53.900  1.00  0.00     0.262 C 
HETATM    6  O3  UNL     1      24.680  -0.964  55.099  1.00  0.00    -0.267 OA
HETATM    7  N2  UNL     1      25.353  -0.891  52.867  1.00  0.00    -0.352 N 
HETATM    8  H7  UNL     1      24.995  -0.736  51.877  1.00  0.00     0.163 HD
BRANCH   7   9
HETATM    9  C10 UNL     1      26.769  -1.176  53.062  1.00  0.00     0.161 C 
BRANCH   9  10
HETATM   10  C11 UNL     1      27.479   0.101  53.241  1.00  0.00    -0.041 A 
HETATM   11  C12 UNL     1      27.240   1.318  52.643  1.00  0.00     0.009 A 
HETATM   12  C13 UNL     1      28.017   2.419  52.942  1.00  0.00     0.001 A 
HETATM   13  C14 UNL     1      29.064   2.363  53.845  1.00  0.00     0.000 A 
HETATM   14  C15 UNL     1      29.316   1.153  54.453  1.00  0.00     0.001 A 
HETATM   15  C16 UNL     1      28.538   0.083  54.143  1.00  0.00     0.009 A 
ENDBRANCH   9  10
ENDBRANCH   7   9
ENDBRANCH   3   5
BRANCH   4  16
HETATM   16  C4  UNL     1      21.270   0.657  52.314  1.00  0.00     0.061 A 
HETATM   17  C5  UNL     1      20.831   1.985  52.854  1.00  0.00     0.010 A 
HETATM   18  C6  UNL     1      20.295   2.897  52.039  1.00  0.00     0.142 A 
HETATM   19  O1  UNL     1      20.069   2.783  50.654  1.00  0.00    -0.301 OA
HETATM   20  C7  UNL     1      20.451   1.567  50.057  1.00  0.00     0.179 A 
HETATM   21  C8  UNL     1      20.979   0.677  50.877  1.00  0.00     0.049 A 
BRANCH  20  22
HETATM   22  O2  UNL     1      20.339   1.199  48.720  1.00  0.00    -0.341 OA
HETATM   23  H5  UNL     1      21.150   1.442  48.135  1.00  0.00     0.220 HD
ENDBRANCH  20  22
ENDBRANCH   4  16
TORSDOF 5
ENDMDL
MODEL 6
REMARK VINA RESULT:      -7.4      4.920      8.310
REMARK  5 active torsions:
REMARK  status: ('A' for Active; 'I' for Inactive)
REMARK    1  A    between atoms: C2_3  and  C9_12 
REMARK    2  A    between atoms: C3_4  and  C4_5 
REMARK    3  A    between atoms: C7_9  and  O2_10 
REMARK       I    between atoms: C9_12  and  N2_14 
REMARK    4  A    between atoms: N2_14  and  C10_15 
REMARK    5  A    between atoms: C10_15  and  C11_16 
ROOT
HETATM    1  N1  UNL     1      22.934   3.639  48.797  1.00  0.00    -0.191 NA
HETATM    2  C1  UNL     1      23.826   3.406  49.527  1.00  0.00     0.105 C 
HETATM    3  C2  UNL     1      24.901   3.133  50.436  1.00  0.00     0.109 C 
HETATM    4  C3  UNL     1      25.984   3.869  50.250  1.00  0.00     0.014 C 
ENDROOT
BRANCH   3   5
HETATM    5  C9  UNL     1      24.829   2.129  51.489  1.00  0.00     0.262 C 
HETATM    6  O3  UNL     1      23.801   2.086  52.192  1.00  0.00    -0.267 OA
HETATM    7  N2  UNL     1      25.912   1.233  51.689  1.00  0.00    -0.352 N 
HETATM    8  H7  UNL     1      26.743   1.354  51.034  1.00  0.00     0.163 HD
BRANCH   7   9
HETATM    9  C10 UNL     1      25.966   0.185  52.701  1.00  0.00     0.161 C 
BRANCH   9  10
HETATM   10  C11 UNL     1      27.376  -0.059  53.041  1.00  0.00    -0.041 A 
HETATM   11  C12 UNL     1      28.349   0.843  53.412  1.00  0.00     0.009 A 
HETATM   12  C13 UNL     1      29.632   0.423  53.701  1.00  0.00     0.001 A 
HETATM   13  C14 UNL     1      30.008  -0.907  53.635  1.00  0.00     0.000 A 
HETATM   14  C15 UNL     1      29.047  -1.823  53.266  1.00  0.00     0.001 A 
HETATM   15  C16 UNL     1      27.791  -1.386  52.987  1.00  0.00     0.009 A 
ENDBRANCH   9  10
ENDBRANCH   7   9
ENDBRANCH   3   5
BRANCH   4  16
HETATM   16  C4  UNL     1      26.046   4.876  49.187  1.00  0.00     0.061 A 
HETATM   17  C5  UNL     1      25.646   6.233  49.683  1.00  0.00     0.010 A 
HETATM   18  C6  UNL     1      26.463   7.276  49.521  1.00  0.00     0.142 A 
HETATM   19  O1  UNL     1      27.733   7.285  48.909  1.00  0.00    -0.301 OA
HETATM   20  C7  UNL     1      28.194   6.051  48.412  1.00  0.00     0.179 A 
HETATM   21  C8  UNL     1      27.372   5.031  48.581  1.00  0.00     0.049 A 
BRANCH  20  22
HETATM   22  O2  UNL     1      29.399   5.786  47.771  1.00  0.00    -0.341 OA
HETATM   23  H5  UNL     1      30.056   6.578  47.740  1.00  0.00     0.220 HD
ENDBRANCH  20  22
ENDBRANCH   4  16
TORSDOF 5
ENDMDL
MODEL 7
REMARK VINA RESULT:      -7.2      4.594      6.941
REMARK  5 active torsions:
REMARK  status: ('A' for Active; 'I' for Inactive)
REMARK    1  A    between atoms: C2_3  and  C9_12 
REMARK    2  A    between atoms: C3_4  and  C4_5 
REMARK    3  A    between atoms: C7_9  and  O2_10 
REMARK       I    between atoms: C9_12  and  N2_14 
REMARK    4  A    between atoms: N2_14  and  C10_15 
REMARK    5  A    between atoms: C10_15  and  C11_16 
ROOT
HETATM    1  N1  UNL     1      21.955   0.635  51.151  1.00  0.00    -0.191 NA
HETATM    2  C1  UNL     1      22.749   1.446  51.456  1.00  0.00     0.105 C 
HETATM    3  C2  UNL     1      23.722   2.441  51.805  1.00  0.00     0.109 C 
HETATM    4  C3  UNL     1      24.851   1.961  52.300  1.00  0.00     0.014 C 
ENDROOT
BRANCH   3   5
HETATM    5  C9  UNL     1      23.507   3.871  51.637  1.00  0.00     0.262 C 
HETATM    6  O3  UNL     1      22.377   4.331  51.893  1.00  0.00    -0.267 OA
HETATM    7  N2  UNL     1      24.571   4.700  51.194  1.00  0.00    -0.352 N 
HETATM    8  H7  UNL     1      25.496   4.208  51.004  1.00  0.00     0.163 HD
BRANCH   7   9
HETATM    9  C10 UNL     1      24.490   6.141  50.988  1.00  0.00     0.161 C 
BRANCH   9  10
HETATM   10  C11 UNL     1      25.596   6.546  50.107  1.00  0.00    -0.041 A 
HETATM   11  C12 UNL     1      26.137   7.797  49.912  1.00  0.00     0.009 A 
HETATM   12  C13 UNL     1      27.188   7.986  49.036  1.00  0.00     0.001 A 
HETATM   13  C14 UNL     1      27.747   6.946  48.316  1.00  0.00     0.000 A 
HETATM   14  C15 UNL     1      27.218   5.688  48.499  1.00  0.00     0.001 A 
HETATM   15  C16 UNL     1      26.185   5.526  49.366  1.00  0.00     0.009 A 
ENDBRANCH   9  10
ENDBRANCH   7   9
ENDBRANCH   3   5
BRANCH   4  16
HETATM   16  C4  UNL     1      25.057   0.519  52.465  1.00  0.00     0.061 A 
HETATM   17  C5  UNL     1      26.395   0.085  51.946  1.00  0.00     0.010 A 
HETATM   18  C6  UNL     1      27.236  -0.588  52.735  1.00  0.00     0.142 A 
HETATM   19  O1  UNL     1      27.032  -0.975  54.074  1.00  0.00    -0.301 OA
HETATM   20  C7  UNL     1      25.800  -0.609  54.649  1.00  0.00     0.179 A 
HETATM   21  C8  UNL     1      24.982   0.055  53.854  1.00  0.00     0.049 A 
BRANCH  20  22
HETATM   22  O2  UNL     1      25.351  -0.865  55.940  1.00  0.00    -0.341 OA
HETATM   23  H5  UNL     1      24.987  -1.817  56.091  1.00  0.00     0.220 HD
ENDBRANCH  20  22
ENDBRANCH   4  16
TORSDOF 5
ENDMDL
MODEL 8
REMARK VINA RESULT:      -7.1      3.631      8.212
REMARK  5 active torsions:
REMARK  status: ('A' for Active; 'I' for Inactive)
REMARK    1  A    between atoms: C2_3  and  C9_12 
REMARK    2  A    between atoms: C3_4  and  C4_5 
REMARK    3  A    between atoms: C7_9  and  O2_10 
REMARK       I    between atoms: C9_12  and  N2_14 
REMARK    4  A    between atoms: N2_14  and  C10_15 
REMARK    5  A    between atoms: C10_15  and  C11_16 
ROOT
HETATM    1  N1  UNL     1      24.250   5.551  49.733  1.00  0.00    -0.191 NA
HETATM    2  C1  UNL     1      24.541   4.513  50.202  1.00  0.00     0.105 C 
HETATM    3  C2  UNL     1      24.910   3.243  50.754  1.00  0.00     0.109 C 
HETATM    4  C3  UNL     1      23.940   2.344  50.772  1.00  0.00     0.014 C 
ENDROOT
BRANCH   3   5
HETATM    5  C9  UNL     1      26.242   2.942  51.262  1.00  0.00     0.262 C 
HETATM    6  O3  UNL     1      27.213   3.104  50.498  1.00  0.00    -0.267 OA
HETATM    7  N2  UNL     1      26.404   2.480  52.595  1.00  0.00    -0.352 N 
HETATM    8  H7  UNL     1      25.509   2.377  53.164  1.00  0.00     0.163 HD
BRANCH   7   9
HETATM    9  C10 UNL     1      27.676   2.148  53.224  1.00  0.00     0.161 C 
BRANCH   9  10
HETATM   10  C11 UNL     1      27.870   0.692  53.136  1.00  0.00    -0.041 A 
HETATM   11  C12 UNL     1      26.988  -0.277  52.714  1.00  0.00     0.009 A 
HETATM   12  C13 UNL     1      27.354  -1.609  52.695  1.00  0.00     0.001 A 
HETATM   13  C14 UNL     1      28.609  -2.037  53.093  1.00  0.00     0.000 A 
HETATM   14  C15 UNL     1      29.504  -1.079  53.518  1.00  0.00     0.001 A 
HETATM   15  C16 UNL     1      29.121   0.224  53.526  1.00  0.00     0.009 A 
ENDBRANCH   9  10
ENDBRANCH   7   9
ENDBRANCH   3   5
BRANCH   4  16
HETATM   16  C4  UNL     1      22.603   2.657  50.258  1.00  0.00     0.061 A 
HETATM   17  C5  UNL     1      22.033   1.521  49.463  1.00  0.00     0.010 A 
HETATM   18  C6  UNL     1      20.839   1.013  49.778  1.00  0.00     0.142 A 
HETATM   19  O1  UNL     1      19.982   1.417  50.821  1.00  0.00    -0.301 OA
HETATM   20  C7  UNL     1      20.436   2.481  51.624  1.00  0.00     0.179 A 
HETATM   21  C8  UNL     1      21.618   2.971  51.297  1.00  0.00     0.049 A 
BRANCH  20  22
HETATM   22  O2  UNL     1      19.791   3.068  52.707  1.00  0.00    -0.341 OA
HETATM   23  H5  UNL     1      20.390   3.239  53.527  1.00  0.00     0.220 HD
ENDBRANCH  20  22
ENDBRANCH   4  16
TORSDOF 5
ENDMDL
MODEL 9
REMARK VINA RESULT:      -7.0      5.982      8.914
REMARK  5 active torsions:
REMARK  status: ('A' for Active; 'I' for Inactive)
REMARK    1  A    between atoms: C2_3  and  C9_12 
REMARK    2  A    between atoms: C3_4  and  C4_5 
REMARK    3  A    between atoms: C7_9  and  O2_10 
REMARK       I    between atoms: C9_12  and  N2_14 
REMARK    4  A    between atoms: N2_14  and  C10_15 
REMARK    5  A    between atoms: C10_15  and  C11_16 
ROOT
HETATM    1  N1  UNL     1      23.560   3.690  52.433  1.00  0.00    -0.191 NA
HETATM    2  C1  UNL     1      24.500   3.672  51.727  1.00  0.00     0.105 C 
HETATM    3  C2  UNL     1      25.632   3.640  50.849  1.00  0.00     0.109 C 
HETATM    4  C3  UNL     1      26.555   2.747  51.167  1.00  0.00     0.014 C 
ENDROOT
BRANCH   3   5
HETATM    5  C9  UNL     1      25.778   4.512  49.691  1.00  0.00     0.262 C 
HETATM    6  O3  UNL     1      24.780   4.705  48.971  1.00  0.00    -0.267 OA
HETATM    7  N2  UNL     1      27.033   5.115  49.412  1.00  0.00    -0.352 N 
HETATM    8  H7  UNL     1      27.821   4.885  50.090  1.00  0.00     0.163 HD
BRANCH   7   9
HETATM    9  C10 UNL     1      27.311   6.006  48.292  1.00  0.00     0.161 C 
BRANCH   9  10
HETATM   10  C11 UNL     1      28.750   6.311  48.289  1.00  0.00    -0.041 A 
HETATM   11  C12 UNL     1      29.816   5.466  48.071  1.00  0.00     0.009 A 
HETATM   12  C13 UNL     1      31.113   5.938  48.103  1.00  0.00     0.001 A 
HETATM   13  C14 UNL     1      31.411   7.266  48.351  1.00  0.00     0.000 A 
HETATM   14  C15 UNL     1      30.356   8.125  48.570  1.00  0.00     0.001 A 
HETATM   15  C16 UNL     1      29.088   7.638  48.533  1.00  0.00     0.009 A 
ENDBRANCH   9  10
ENDBRANCH   7   9
ENDBRANCH   3   5
BRANCH   4  16
HETATM   16  C4  UNL     1      26.399   1.874  52.334  1.00  0.00     0.061 A 
HETATM   17  C5  UNL     1      26.396   0.426  51.949  1.00  0.00     0.010 A 
HETATM   18  C6  UNL     1      27.253  -0.423  52.521  1.00  0.00     0.142 A 
HETATM   19  O1  UNL     1      28.225  -0.133  53.500  1.00  0.00    -0.301 OA
HETATM   20  C7  UNL     1      28.301   1.208  53.924  1.00  0.00     0.179 A 
HETATM   21  C8  UNL     1      27.446   2.032  53.348  1.00  0.00     0.049 A 
BRANCH  20  22
HETATM   22  O2  UNL     1      29.162   1.756  54.868  1.00  0.00    -0.341 OA
HETATM   23  H5  UNL     1      28.897   2.693  55.204  1.00  0.00     0.220 HD
ENDBRANCH  20  22
ENDBRANCH   4  16
TORSDOF 5
ENDMDL
