MODEL 1
REMARK VINA RESULT:      -9.6      0.000      0.000
REMARK  3 active torsions:
REMARK  status: ('A' for Active; 'I' for Inactive)
REMARK    1  A    between atoms: N1_1  and  C1_2 
REMARK    2  A    between atoms: C6_9  and  N4_10 
REMARK    3  A    between atoms: N4_10  and  C7_11 
ROOT
HETATM    1  C1  UNL     1      22.996  -0.315  54.211  1.00  0.00     0.212 C 
HETATM    2  C2  UNL     1      22.665   0.596  53.268  1.00  0.00     0.172 C 
HETATM    3  C3  UNL     1      23.652   1.446  52.695  1.00  0.00     0.026 A 
HETATM    4  C4  UNL     1      23.128   1.653  51.327  1.00  0.00     0.085 A 
HETATM    5  N2  UNL     1      23.367   2.215  50.221  1.00  0.00    -0.240 NA
HETATM    6  C5  UNL     1      24.584   2.921  50.295  1.00  0.00     0.236 A 
HETATM    7  N3  UNL     1      25.301   2.943  51.412  1.00  0.00    -0.224 NA
HETATM    8  C6  UNL     1      24.801   2.228  52.490  1.00  0.00     0.138 A 
HETATM    9  C13 UNL     1      21.762   1.030  51.032  1.00  0.00     0.142 C 
HETATM   10  N5  UNL     1      20.697   1.670  50.785  1.00  0.00    -0.299 NA
HETATM   11  C14 UNL     1      19.373   1.477  50.537  1.00  0.00     0.149 C 
HETATM   12  C15 UNL     1      18.488   0.984  51.544  1.00  0.00     0.034 C 
HETATM   13  C16 UNL     1      18.401  -0.297  52.246  1.00  0.00     0.096 C 
HETATM   14  C17 UNL     1      19.572  -0.553  53.017  1.00  0.00    -0.098 C 
HETATM   15  C18 UNL     1      20.488  -0.743  53.599  1.00  0.00    -0.027 C 
HETATM   16  C19 UNL     1      21.649  -0.995  54.307  1.00  0.00     0.236 C 
HETATM   17  O1  UNL     1      21.163  -1.927  54.963  1.00  0.00    -0.281 OA
ENDROOT
BRANCH   8  18
HETATM   18  N4  UNL     1      25.389   2.131  53.820  1.00  0.00    -0.340 N 
HETATM   19  H5  UNL     1      24.964   2.491  54.685  1.00  0.00     0.167 HD
BRANCH  18  20
HETATM   20  C7  UNL     1      26.646   1.437  53.651  1.00  0.00     0.035 A 
HETATM   21  C8  UNL     1      27.919   1.962  53.737  1.00  0.00     0.032 A 
HETATM   22  C9  UNL     1      28.995   1.169  53.518  1.00  0.00     0.046 A 
HETATM   23  C10 UNL     1      28.805  -0.156  53.207  1.00  0.00     0.138 A 
HETATM   24  F1  UNL     1      29.895  -0.946  52.977  1.00  0.00    -0.204 F 
HETATM   25  C11 UNL     1      27.543  -0.763  53.102  1.00  0.00     0.074 A 
HETATM   26 CL1  UNL     1      27.458  -2.467  52.698  1.00  0.00    -0.081 Cl
HETATM   27  C12 UNL     1      26.477   0.118  53.343  1.00  0.00     0.056 A 
ENDBRANCH  18  20
ENDBRANCH   8  18
BRANCH   1  28
HETATM   28  N1  UNL     1      23.562  -1.222  55.204  1.00  0.00     0.092 NA
HETATM   29  H1  UNL     1      23.823  -0.650  56.019  1.00  0.00     0.313 HD
HETATM   30  H2  UNL     1      23.881  -0.773  56.109  1.00  0.00     0.313 HD
ENDBRANCH   1  28
TORSDOF 3
ENDMDL
MODEL 2
REMARK VINA RESULT:      -9.5      1.330      1.624
REMARK  3 active torsions:
REMARK  status: ('A' for Active; 'I' for Inactive)
REMARK    1  A    between atoms: N1_1  and  C1_2 
REMARK    2  A    between atoms: C6_9  and  N4_10 
REMARK    3  A    between atoms: N4_10  and  C7_11 
ROOT
HETATM    1  C1  UNL     1      22.501  -0.246  53.925  1.00  0.00     0.212 C 
HETATM    2  C2  UNL     1      22.014   0.529  52.929  1.00  0.00     0.172 C 
HETATM    3  C3  UNL     1      22.867   1.408  52.205  1.00  0.00     0.026 A 
HETATM    4  C4  UNL     1      22.234   1.424  50.868  1.00  0.00     0.085 A 
HETATM    5  N2  UNL     1      22.339   1.892  49.698  1.00  0.00    -0.240 NA
HETATM    6  C5  UNL     1      23.478   2.716  49.612  1.00  0.00     0.236 A 
HETATM    7  N3  UNL     1      24.262   2.920  50.664  1.00  0.00    -0.224 NA
HETATM    8  C6  UNL     1      23.912   2.273  51.839  1.00  0.00     0.138 A 
HETATM    9  C13 UNL     1      20.924   0.645  50.738  1.00  0.00     0.142 C 
HETATM   10  N5  UNL     1      19.784   1.151  50.515  1.00  0.00    -0.299 NA
HETATM   11  C14 UNL     1      18.473   0.806  50.388  1.00  0.00     0.149 C 
HETATM   12  C15 UNL     1      17.713   0.334  51.502  1.00  0.00     0.034 C 
HETATM   13  C16 UNL     1      17.807  -0.872  52.326  1.00  0.00     0.096 C 
HETATM   14  C17 UNL     1      19.047  -0.934  53.026  1.00  0.00    -0.098 C 
HETATM   15  C18 UNL     1      20.016  -0.975  53.551  1.00  0.00    -0.027 C 
HETATM   16  C19 UNL     1      21.241  -1.040  54.188  1.00  0.00     0.236 C 
HETATM   17  O1  UNL     1      20.900  -1.943  54.963  1.00  0.00    -0.281 OA
ENDROOT
BRANCH   8  18
HETATM   18  N4  UNL     1      24.595   2.368  53.123  1.00  0.00    -0.340 N 
HETATM   19  H5  UNL     1      24.283   2.938  53.921  1.00  0.00     0.167 HD
BRANCH  18  20
HETATM   20  C7  UNL     1      25.755   1.512  53.024  1.00  0.00     0.035 A 
HETATM   21  C8  UNL     1      25.848   0.285  52.401  1.00  0.00     0.032 A 
HETATM   22  C9  UNL     1      27.014  -0.404  52.431  1.00  0.00     0.046 A 
HETATM   23  C10 UNL     1      28.096   0.129  53.089  1.00  0.00     0.138 A 
HETATM   24  F1  UNL     1      29.265  -0.577  53.123  1.00  0.00    -0.204 F 
HETATM   25  C11 UNL     1      28.081   1.370  53.746  1.00  0.00     0.074 A 
HETATM   26 CL1  UNL     1      29.542   1.921  54.543  1.00  0.00    -0.081 Cl
HETATM   27  C12 UNL     1      26.842   2.026  53.672  1.00  0.00     0.056 A 
ENDBRANCH  18  20
ENDBRANCH   8  18
BRANCH   1  28
HETATM   28  N1  UNL     1      23.223  -0.989  54.952  1.00  0.00     0.092 NA
HETATM   29  H1  UNL     1      22.656  -1.819  55.177  1.00  0.00     0.313 HD
HETATM   30  H2  UNL     1      22.758  -1.879  55.289  1.00  0.00     0.313 HD
ENDBRANCH   1  28
TORSDOF 3
ENDMDL
MODEL 3
REMARK VINA RESULT:      -9.3      2.060      3.715
REMARK  3 active torsions:
REMARK  status: ('A' for Active; 'I' for Inactive)
REMARK    1  A    between atoms: N1_1  and  C1_2 
REMARK    2  A    between atoms: C6_9  and  N4_10 
REMARK    3  A    between atoms: N4_10  and  C7_11 
ROOT
HETATM    1  C1  UNL     1      22.530   1.362  51.066  1.00  0.00     0.212 C 
HETATM    2  C2  UNL     1      22.129   0.412  51.940  1.00  0.00     0.172 C 
HETATM    3  C3  UNL     1      23.038  -0.143  52.883  1.00  0.00     0.026 A 
HETATM    4  C4  UNL     1      22.150  -0.456  54.025  1.00  0.00     0.085 A 
HETATM    5  N2  UNL     1      22.130  -0.918  55.201  1.00  0.00    -0.240 NA
HETATM    6  C5  UNL     1      23.433  -1.286  55.594  1.00  0.00     0.236 A 
HETATM    7  N3  UNL     1      24.466  -1.140  54.774  1.00  0.00    -0.224 NA
HETATM    8  C6  UNL     1      24.202  -0.598  53.526  1.00  0.00     0.138 A 
HETATM    9  C13 UNL     1      20.658  -0.204  53.800  1.00  0.00     0.142 C 
HETATM   10  N5  UNL     1      19.757  -1.094  53.757  1.00  0.00    -0.299 NA
HETATM   11  C14 UNL     1      18.421  -1.247  53.546  1.00  0.00     0.149 C 
HETATM   12  C15 UNL     1      17.836  -1.018  52.264  1.00  0.00     0.034 C 
HETATM   13  C16 UNL     1      17.688   0.185  51.443  1.00  0.00     0.096 C 
HETATM   14  C17 UNL     1      18.952   0.724  51.067  1.00  0.00    -0.098 C 
HETATM   15  C18 UNL     1      19.937   1.136  50.793  1.00  0.00    -0.027 C 
HETATM   16  C19 UNL     1      21.173   1.668  50.473  1.00  0.00     0.236 C 
HETATM   17  O1  UNL     1      20.728   2.431  49.605  1.00  0.00    -0.281 OA
ENDROOT
BRANCH   8  18
HETATM   18  N4  UNL     1      25.163  -0.373  52.452  1.00  0.00    -0.340 N 
HETATM   19  H5  UNL     1      25.037  -0.662  51.473  1.00  0.00     0.167 HD
BRANCH  18  20
HETATM   20  C7  UNL     1      26.277   0.325  53.052  1.00  0.00     0.035 A 
HETATM   21  C8  UNL     1      26.316   1.629  53.498  1.00  0.00     0.032 A 
HETATM   22  C9  UNL     1      27.464   2.136  54.009  1.00  0.00     0.046 A 
HETATM   23  C10 UNL     1      28.583   1.342  54.074  1.00  0.00     0.138 A 
HETATM   24  F1  UNL     1      29.739   1.865  54.582  1.00  0.00    -0.204 F 
HETATM   25  C11 UNL     1      28.623   0.007  53.641  1.00  0.00     0.074 A 
HETATM   26 CL1  UNL     1      30.126  -0.883  53.788  1.00  0.00    -0.081 Cl
HETATM   27  C12 UNL     1      27.400  -0.450  53.125  1.00  0.00     0.056 A 
ENDBRANCH  18  20
ENDBRANCH   8  18
BRANCH   1  28
HETATM   28  N1  UNL     1      23.163   2.369  50.219  1.00  0.00     0.092 NA
HETATM   29  H1  UNL     1      22.968   3.285  50.647  1.00  0.00     0.313 HD
HETATM   30  H2  UNL     1      23.047   3.374  50.535  1.00  0.00     0.313 HD
ENDBRANCH   1  28
TORSDOF 3
ENDMDL
MODEL 4
REMARK VINA RESULT:      -9.1      1.754      2.293
REMARK  3 active torsions:
REMARK  status: ('A' for Active; 'I' for Inactive)
REMARK    1  A    between atoms: N1_1  and  C1_2 
REMARK    2  A    between atoms: C6_9  and  N4_10 
REMARK    3  A    between atoms: N4_10  and  C7_11 
ROOT
HETATM    1  C1  UNL     1      22.732   0.625  53.436  1.00  0.00     0.212 C 
HETATM    2  C2  UNL     1      22.959   1.700  52.648  1.00  0.00     0.172 C 
HETATM    3  C3  UNL     1      24.278   2.036  52.235  1.00  0.00     0.026 A 
HETATM    4  C4  UNL     1      24.042   2.652  50.910  1.00  0.00     0.085 A 
HETATM    5  N2  UNL     1      24.618   3.171  49.912  1.00  0.00    -0.240 NA
HETATM    6  C5  UNL     1      26.012   3.186  50.117  1.00  0.00     0.236 A 
HETATM    7  N3  UNL     1      26.549   2.709  51.234  1.00  0.00    -0.224 NA
HETATM    8  C6  UNL     1      25.674   2.187  52.175  1.00  0.00     0.138 A 
HETATM    9  C13 UNL     1      22.577   2.811  50.498  1.00  0.00     0.142 C 
HETATM   10  N5  UNL     1      21.970   3.912  50.342  1.00  0.00    -0.299 NA
HETATM   11  C14 UNL     1      20.741   4.417  50.046  1.00  0.00     0.149 C 
HETATM   12  C15 UNL     1      19.641   4.282  50.947  1.00  0.00     0.034 C 
HETATM   13  C16 UNL     1      18.894   3.121  51.432  1.00  0.00     0.096 C 
HETATM   14  C17 UNL     1      19.728   2.231  52.169  1.00  0.00    -0.098 C 
HETATM   15  C18 UNL     1      20.388   1.546  52.726  1.00  0.00    -0.027 C 
HETATM   16  C19 UNL     1      21.221   0.673  53.402  1.00  0.00     0.236 C 
HETATM   17  O1  UNL     1      20.295   0.013  53.891  1.00  0.00    -0.281 OA
ENDROOT
BRANCH   8  18
HETATM   18  N4  UNL     1      26.023   1.640  53.480  1.00  0.00    -0.340 N 
HETATM   19  H5  UNL     1      25.852   2.104  54.383  1.00  0.00     0.167 HD
BRANCH  18  20
HETATM   20  C7  UNL     1      26.629   0.353  53.226  1.00  0.00     0.035 A 
HETATM   21  C8  UNL     1      26.031  -0.773  52.700  1.00  0.00     0.032 A 
HETATM   22  C9  UNL     1      26.745  -1.915  52.557  1.00  0.00     0.046 A 
HETATM   23  C10 UNL     1      28.063  -1.940  52.944  1.00  0.00     0.138 A 
HETATM   24  F1  UNL     1      28.772  -3.100  52.806  1.00  0.00    -0.204 F 
HETATM   25  C11 UNL     1      28.742  -0.837  53.487  1.00  0.00     0.074 A 
HETATM   26 CL1  UNL     1      30.427  -1.021  53.934  1.00  0.00    -0.081 Cl
HETATM   27  C12 UNL     1      27.940   0.309  53.604  1.00  0.00     0.056 A 
ENDBRANCH  18  20
ENDBRANCH   8  18
BRANCH   1  28
HETATM   28  N1  UNL     1      22.708  -0.567  54.278  1.00  0.00     0.092 NA
HETATM   29  H1  UNL     1      23.688  -0.835  54.447  1.00  0.00     0.313 HD
HETATM   30  H2  UNL     1      23.655  -0.965  54.539  1.00  0.00     0.313 HD
ENDBRANCH   1  28
TORSDOF 3
ENDMDL
MODEL 5
REMARK VINA RESULT:      -9.1      4.211      5.784
REMARK  3 active torsions:
REMARK  status: ('A' for Active; 'I' for Inactive)
REMARK    1  A    between atoms: N1_1  and  C1_2 
REMARK    2  A    between atoms: C6_9  and  N4_10 
REMARK    3  A    between atoms: N4_10  and  C7_11 
ROOT
HETATM    1  C1  UNL     1      25.185   2.470  52.517  1.00  0.00     0.212 C 
HETATM    2  C2  UNL     1      23.851   2.626  52.668  1.00  0.00     0.172 C 
HETATM    3  C3  UNL     1      23.191   3.786  52.176  1.00  0.00     0.026 A 
HETATM    4  C4  UNL     1      21.852   3.259  51.828  1.00  0.00     0.085 A 
HETATM    5  N2  UNL     1      20.729   3.576  51.344  1.00  0.00    -0.240 NA
HETATM    6  C5  UNL     1      20.722   4.943  51.003  1.00  0.00     0.236 A 
HETATM    7  N3  UNL     1      21.787   5.709  51.208  1.00  0.00    -0.224 NA
HETATM    8  C6  UNL     1      22.902   5.096  51.757  1.00  0.00     0.138 A 
HETATM    9  C13 UNL     1      21.599   1.792  52.180  1.00  0.00     0.142 C 
HETATM   10  N5  UNL     1      20.772   1.372  53.043  1.00  0.00    -0.299 NA
HETATM   11  C14 UNL     1      20.331   0.223  53.624  1.00  0.00     0.149 C 
HETATM   12  C15 UNL     1      21.167  -0.544  54.492  1.00  0.00     0.034 C 
HETATM   13  C16 UNL     1      22.404  -1.295  54.267  1.00  0.00     0.096 C 
HETATM   14  C17 UNL     1      23.465  -0.444  53.842  1.00  0.00    -0.098 C 
HETATM   15  C18 UNL     1      24.273   0.224  53.503  1.00  0.00    -0.027 C 
HETATM   16  C19 UNL     1      25.279   1.058  53.051  1.00  0.00     0.236 C 
HETATM   17  O1  UNL     1      26.182   0.230  53.234  1.00  0.00    -0.281 OA
ENDROOT
BRANCH   8  18
HETATM   18  N4  UNL     1      24.168   5.734  52.100  1.00  0.00    -0.340 N 
HETATM   19  H5  UNL     1      24.497   5.923  53.056  1.00  0.00     0.167 HD
BRANCH  18  20
HETATM   20  C7  UNL     1      24.825   6.019  50.845  1.00  0.00     0.035 A 
HETATM   21  C8  UNL     1      25.377   5.120  49.957  1.00  0.00     0.032 A 
HETATM   22  C9  UNL     1      25.988   5.565  48.833  1.00  0.00     0.046 A 
HETATM   23  C10 UNL     1      26.055   6.917  48.592  1.00  0.00     0.138 A 
HETATM   24  F1  UNL     1      26.682   7.358  47.461  1.00  0.00    -0.204 F 
HETATM   25  C11 UNL     1      25.517   7.893  49.446  1.00  0.00     0.074 A 
HETATM   26 CL1  UNL     1      25.679   9.582  49.004  1.00  0.00    -0.081 Cl
HETATM   27  C12 UNL     1      24.900   7.358  50.588  1.00  0.00     0.056 A 
ENDBRANCH  18  20
ENDBRANCH   8  18
BRANCH   1  28
HETATM   28  N1  UNL     1      26.620   2.499  52.250  1.00  0.00     0.092 NA
HETATM   29  H1  UNL     1      26.827   1.703  51.631  1.00  0.00     0.313 HD
HETATM   30  H2  UNL     1      26.987   1.730  51.620  1.00  0.00     0.313 HD
ENDBRANCH   1  28
TORSDOF 3
ENDMDL
MODEL 6
REMARK VINA RESULT:      -9.0      3.969      5.729
REMARK  3 active torsions:
REMARK  status: ('A' for Active; 'I' for Inactive)
REMARK    1  A    between atoms: N1_1  and  C1_2 
REMARK    2  A    between atoms: C6_9  and  N4_10 
REMARK    3  A    between atoms: N4_10  and  C7_11 
ROOT
HETATM    1  C1  UNL     1      22.028   3.649  51.337  1.00  0.00     0.212 C 
HETATM    2  C2  UNL     1      22.907   2.665  51.631  1.00  0.00     0.172 C 
HETATM    3  C3  UNL     1      24.280   2.783  51.278  1.00  0.00     0.026 A 
HETATM    4  C4  UNL     1      24.946   2.022  52.359  1.00  0.00     0.085 A 
HETATM    5  N2  UNL     1      26.072   1.662  52.805  1.00  0.00    -0.240 NA
HETATM    6  C5  UNL     1      27.097   2.155  51.973  1.00  0.00     0.236 A 
HETATM    7  N3  UNL     1      26.820   2.876  50.893  1.00  0.00    -0.224 NA
HETATM    8  C6  UNL     1      25.481   3.128  50.636  1.00  0.00     0.138 A 
HETATM    9  C13 UNL     1      24.017   1.326  53.357  1.00  0.00     0.142 C 
HETATM   10  N5  UNL     1      23.896   0.073  53.501  1.00  0.00    -0.299 NA
HETATM   11  C14 UNL     1      23.188  -0.853  54.204  1.00  0.00     0.149 C 
HETATM   12  C15 UNL     1      21.789  -1.044  53.990  1.00  0.00     0.034 C 
HETATM   13  C16 UNL     1      20.626  -0.186  54.218  1.00  0.00     0.096 C 
HETATM   14  C17 UNL     1      20.681   0.996  53.423  1.00  0.00    -0.098 C 
HETATM   15  C18 UNL     1      20.743   1.910  52.811  1.00  0.00    -0.027 C 
HETATM   16  C19 UNL     1      20.835   3.070  52.064  1.00  0.00     0.236 C 
HETATM   17  O1  UNL     1      19.655   3.398  52.248  1.00  0.00    -0.281 OA
ENDROOT
BRANCH   8  18
HETATM   18  N4  UNL     1      24.935   3.863  49.501  1.00  0.00    -0.340 N 
HETATM   19  H5  UNL     1      24.287   3.478  48.801  1.00  0.00     0.167 HD
BRANCH  18  20
HETATM   20  C7  UNL     1      25.482   5.198  49.588  1.00  0.00     0.035 A 
HETATM   21  C8  UNL     1      25.061   6.233  50.397  1.00  0.00     0.032 A 
HETATM   22  C9  UNL     1      25.672   7.440  50.327  1.00  0.00     0.046 A 
HETATM   23  C10 UNL     1      26.709   7.621  49.443  1.00  0.00     0.138 A 
HETATM   24  F1  UNL     1      27.313   8.844  49.373  1.00  0.00    -0.204 F 
HETATM   25  C11 UNL     1      27.195   6.618  48.589  1.00  0.00     0.074 A 
HETATM   26 CL1  UNL     1      28.527   6.998  47.515  1.00  0.00    -0.081 Cl
HETATM   27  C12 UNL     1      26.515   5.397  48.717  1.00  0.00     0.056 A 
ENDBRANCH  18  20
ENDBRANCH   8  18
BRANCH   1  28
HETATM   28  N1  UNL     1      21.254   4.818  50.930  1.00  0.00     0.092 NA
HETATM   29  H1  UNL     1      20.299   4.491  50.731  1.00  0.00     0.313 HD
HETATM   30  H2  UNL     1      20.238   4.636  50.689  1.00  0.00     0.313 HD
ENDBRANCH   1  28
TORSDOF 3
ENDMDL
MODEL 7
REMARK VINA RESULT:      -8.8      3.582      4.609
REMARK  3 active torsions:
REMARK  status: ('A' for Active; 'I' for Inactive)
REMARK    1  A    between atoms: N1_1  and  C1_2 
REMARK    2  A    between atoms: C6_9  and  N4_10 
REMARK    3  A    between atoms: N4_10  and  C7_11 
ROOT
HETATM    1  C1  UNL     1      24.299   0.708  52.977  1.00  0.00     0.212 C 
HETATM    2  C2  UNL     1      23.234   1.091  52.237  1.00  0.00     0.172 C 
HETATM    3  C3  UNL     1      23.396   1.948  51.114  1.00  0.00     0.026 A 
HETATM    4  C4  UNL     1      22.305   1.500  50.220  1.00  0.00     0.085 A 
HETATM    5  N2  UNL     1      21.774   1.690  49.089  1.00  0.00    -0.240 NA
HETATM    6  C5  UNL     1      22.457   2.714  48.404  1.00  0.00     0.236 A 
HETATM    7  N3  UNL     1      23.492   3.338  48.953  1.00  0.00    -0.224 NA
HETATM    8  C6  UNL     1      23.872   2.923  50.220  1.00  0.00     0.138 A 
HETATM    9  C13 UNL     1      21.373   0.427  50.788  1.00  0.00     0.142 C 
HETATM   10  N5  UNL     1      20.145   0.584  51.057  1.00  0.00    -0.299 NA
HETATM   11  C14 UNL     1      19.077  -0.078  51.581  1.00  0.00     0.149 C 
HETATM   12  C15 UNL     1      19.026  -0.438  52.962  1.00  0.00     0.034 C 
HETATM   13  C16 UNL     1      19.821  -1.359  53.776  1.00  0.00     0.096 C 
HETATM   14  C17 UNL     1      21.188  -0.962  53.834  1.00  0.00    -0.098 C 
HETATM   15  C18 UNL     1      22.245  -0.650  53.860  1.00  0.00    -0.027 C 
HETATM   16  C19 UNL     1      23.575  -0.273  53.870  1.00  0.00     0.236 C 
HETATM   17  O1  UNL     1      23.881  -1.023  54.808  1.00  0.00    -0.281 OA
ENDROOT
BRANCH   8  18
HETATM   18  N4  UNL     1      24.949   3.476  51.032  1.00  0.00    -0.340 N 
HETATM   19  H5  UNL     1      25.074   3.316  52.040  1.00  0.00     0.167 HD
BRANCH  18  20
HETATM   20  C7  UNL     1      25.766   4.259  50.133  1.00  0.00     0.035 A 
HETATM   21  C8  UNL     1      26.864   3.842  49.410  1.00  0.00     0.032 A 
HETATM   22  C9  UNL     1      27.539   4.724  48.633  1.00  0.00     0.046 A 
HETATM   23  C10 UNL     1      27.121   6.032  48.578  1.00  0.00     0.138 A 
HETATM   24  F1  UNL     1      27.813   6.916  47.800  1.00  0.00    -0.204 F 
HETATM   25  C11 UNL     1      26.014   6.532  49.283  1.00  0.00     0.074 A 
HETATM   26 CL1  UNL     1      25.601   8.226  49.112  1.00  0.00    -0.081 Cl
HETATM   27  C12 UNL     1      25.365   5.562  50.064  1.00  0.00     0.056 A 
ENDBRANCH  18  20
ENDBRANCH   8  18
BRANCH   1  28
HETATM   28  N1  UNL     1      25.570   0.419  53.634  1.00  0.00     0.092 NA
HETATM   29  H1  UNL     1      25.443  -0.457  54.160  1.00  0.00     0.313 HD
HETATM   30  H2  UNL     1      25.594  -0.463  54.221  1.00  0.00     0.313 HD
ENDBRANCH   1  28
TORSDOF 3
ENDMDL
MODEL 8
REMARK VINA RESULT:      -8.5      4.153      7.434
REMARK  3 active torsions:
REMARK  status: ('A' for Active; 'I' for Inactive)
REMARK    1  A    between atoms: N1_1  and  C1_2 
REMARK    2  A    between atoms: C6_9  and  N4_10 
REMARK    3  A    between atoms: N4_10  and  C7_11 
ROOT
HETATM    1  C1  UNL     1      22.799  -0.545  54.310  1.00  0.00     0.212 C 
HETATM    2  C2  UNL     1      22.803   0.402  53.344  1.00  0.00     0.172 C 
HETATM    3  C3  UNL     1      21.605   1.076  52.978  1.00  0.00     0.026 A 
HETATM    4  C4  UNL     1      22.108   2.408  52.576  1.00  0.00     0.085 A 
HETATM    5  N2  UNL     1      21.751   3.548  52.164  1.00  0.00    -0.240 NA
HETATM    6  C5  UNL     1      20.350   3.590  52.023  1.00  0.00     0.236 A 
HETATM    7  N3  UNL     1      19.598   2.531  52.297  1.00  0.00    -0.224 NA
HETATM    8  C6  UNL     1      20.257   1.395  52.740  1.00  0.00     0.138 A 
HETATM    9  C13 UNL     1      23.629   2.578  52.580  1.00  0.00     0.142 C 
HETATM   10  N5  UNL     1      24.353   2.768  51.558  1.00  0.00    -0.299 NA
HETATM   11  C14 UNL     1      25.655   2.910  51.187  1.00  0.00     0.149 C 
HETATM   12  C15 UNL     1      26.578   1.823  51.270  1.00  0.00     0.034 C 
HETATM   13  C16 UNL     1      27.125   1.071  52.400  1.00  0.00     0.096 C 
HETATM   14  C17 UNL     1      26.104   0.381  53.115  1.00  0.00    -0.098 C 
HETATM   15  C18 UNL     1      25.303  -0.138  53.666  1.00  0.00    -0.027 C 
HETATM   16  C19 UNL     1      24.294  -0.765  54.373  1.00  0.00     0.236 C 
HETATM   17  O1  UNL     1      25.064  -1.488  55.021  1.00  0.00    -0.281 OA
ENDROOT
BRANCH   8  18
HETATM   18  N4  UNL     1      19.653   0.109  53.070  1.00  0.00    -0.340 N 
HETATM   19  H5  UNL     1      19.938  -0.497  53.850  1.00  0.00     0.167 HD
BRANCH  18  20
HETATM   20  C7  UNL     1      18.605  -0.102  52.097  1.00  0.00     0.035 A 
HETATM   21  C8  UNL     1      18.586   0.295  50.777  1.00  0.00     0.032 A 
HETATM   22  C9  UNL     1      17.499   0.040  50.008  1.00  0.00     0.046 A 
HETATM   23  C10 UNL     1      16.422  -0.612  50.558  1.00  0.00     0.138 A 
HETATM   24  F1  UNL     1      15.327  -0.856  49.778  1.00  0.00    -0.204 F 
HETATM   25  C11 UNL     1      16.366  -1.048  51.891  1.00  0.00     0.074 A 
HETATM   26 CL1  UNL     1      14.922  -1.869  52.451  1.00  0.00    -0.081 Cl
HETATM   27  C12 UNL     1      17.526  -0.750  52.625  1.00  0.00     0.056 A 
ENDBRANCH  18  20
ENDBRANCH   8  18
BRANCH   1  28
HETATM   28  N1  UNL     1      22.576  -1.524  55.369  1.00  0.00     0.092 NA
HETATM   29  H1  UNL     1      23.331  -1.398  56.057  1.00  0.00     0.313 HD
HETATM   30  H2  UNL     1      23.282  -1.516  56.159  1.00  0.00     0.313 HD
ENDBRANCH   1  28
TORSDOF 3
ENDMDL
MODEL 9
REMARK VINA RESULT:      -8.5      5.104      6.620
REMARK  3 active torsions:
REMARK  status: ('A' for Active; 'I' for Inactive)
REMARK    1  A    between atoms: N1_1  and  C1_2 
REMARK    2  A    between atoms: C6_9  and  N4_10 
REMARK    3  A    between atoms: N4_10  and  C7_11 
ROOT
HETATM    1  C1  UNL     1      25.501   3.498  51.272  1.00  0.00     0.212 C 
HETATM    2  C2  UNL     1      24.252   3.931  51.558  1.00  0.00     0.172 C 
HETATM    3  C3  UNL     1      23.862   5.270  51.280  1.00  0.00     0.026 A 
HETATM    4  C4  UNL     1      22.420   5.120  50.986  1.00  0.00     0.085 A 
HETATM    5  N2  UNL     1      21.379   5.752  50.647  1.00  0.00    -0.240 NA
HETATM    6  C5  UNL     1      21.680   7.120  50.488  1.00  0.00     0.236 A 
HETATM    7  N3  UNL     1      22.906   7.584  50.696  1.00  0.00    -0.224 NA
HETATM    8  C6  UNL     1      23.871   6.659  51.062  1.00  0.00     0.138 A 
HETATM    9  C13 UNL     1      21.843   3.714  51.166  1.00  0.00     0.142 C 
HETATM   10  N5  UNL     1      20.989   3.373  52.037  1.00  0.00    -0.299 NA
HETATM   11  C14 UNL     1      20.319   2.282  52.500  1.00  0.00     0.149 C 
HETATM   12  C15 UNL     1      20.995   1.225  53.184  1.00  0.00     0.034 C 
HETATM   13  C16 UNL     1      22.002   0.254  52.757  1.00  0.00     0.096 C 
HETATM   14  C17 UNL     1      23.211   0.892  52.355  1.00  0.00    -0.098 C 
HETATM   15  C18 UNL     1      24.135   1.401  52.035  1.00  0.00    -0.027 C 
HETATM   16  C19 UNL     1      25.284   2.040  51.609  1.00  0.00     0.236 C 
HETATM   17  O1  UNL     1      25.972   1.010  51.603  1.00  0.00    -0.281 OA
ENDROOT
BRANCH   8  18
HETATM   18  N4  UNL     1      25.269   6.933  51.373  1.00  0.00    -0.340 N 
HETATM   19  H5  UNL     1      25.693   6.868  52.308  1.00  0.00     0.167 HD
BRANCH  18  20
HETATM   20  C7  UNL     1      25.894   7.294  50.120  1.00  0.00     0.035 A 
HETATM   21  C8  UNL     1      26.045   6.511  48.995  1.00  0.00     0.032 A 
HETATM   22  C9  UNL     1      26.690   7.003  47.910  1.00  0.00     0.046 A 
HETATM   23  C10 UNL     1      27.192   8.282  47.944  1.00  0.00     0.138 A 
HETATM   24  F1  UNL     1      27.849   8.765  46.848  1.00  0.00    -0.204 F 
HETATM   25  C11 UNL     1      27.077   9.139  49.050  1.00  0.00     0.074 A 
HETATM   26 CL1  UNL     1      27.767  10.747  48.945  1.00  0.00    -0.081 Cl
HETATM   27  C12 UNL     1      26.397   8.564  50.135  1.00  0.00     0.056 A 
ENDBRANCH  18  20
ENDBRANCH   8  18
BRANCH   1  28
HETATM   28  N1  UNL     1      26.884   3.238  50.887  1.00  0.00     0.092 NA
HETATM   29  H1  UNL     1      26.909   2.295  50.475  1.00  0.00     0.313 HD
HETATM   30  H2  UNL     1      27.069   2.294  50.444  1.00  0.00     0.313 HD
ENDBRANCH   1  28
TORSDOF 3
ENDMDL
