MODEL 1
REMARK VINA RESULT:      -9.3      0.000      0.000
REMARK  3 active torsions:
REMARK  status: ('A' for Active; 'I' for Inactive)
REMARK    1  A    between atoms: C4_7  and  C5_8 
REMARK    2  A    between atoms: C10_16  and  N6_17 
REMARK    3  A    between atoms: N6_17  and  C11_18 
ROOT
HETATM    1  C5  UNL     1      26.136   2.321  51.339  1.00  0.00     0.131 A 
HETATM    2  N3  UNL     1      26.734   3.271  50.612  1.00  0.00    -0.058 NA
HETATM    3  C6  UNL     1      25.867   4.080  50.003  1.00  0.00     0.735 A 
HETATM    4  N4  UNL     1      26.121   5.132  49.206  1.00  0.00    -0.074 NA
HETATM    5  C7  UNL     1      25.113   5.856  48.667  1.00  0.00     0.138 A 
HETATM    6  C8  UNL     1      23.839   5.443  48.988  1.00  0.00     0.038 A 
HETATM    7  C9  UNL     1      23.684   4.358  49.810  1.00  0.00     0.118 A 
HETATM    8  N5  UNL     1      24.660   3.619  50.361  1.00  0.00    -0.137 N 
HETATM    9  C10 UNL     1      24.795   2.553  51.168  1.00  0.00     0.155 A 
ENDROOT
BRANCH   1  10
HETATM   10  C4  UNL     1      26.941   1.358  52.045  1.00  0.00    -0.001 C 
HETATM   11  C3  UNL     1      27.807   1.793  52.938  1.00  0.00     0.020 C 
HETATM   12  C2  UNL     1      28.699   0.938  53.731  1.00  0.00     0.046 C 
HETATM   13  S1  UNL     1      28.323  -0.522  54.013  1.00  0.00    -0.114 SA
HETATM   14  N2  UNL     1      29.607  -1.527  53.429  1.00  0.00    -0.057 NA
HETATM   15  C18 UNL     1      27.313  -1.043  52.533  1.00  0.00     0.019 C 
HETATM   16  H2  UNL     1      27.988  -0.971  55.064  1.00  0.00     0.109 HD
HETATM   17  N1  UNL     1      28.686  -2.787  53.327  1.00  0.00    -0.182 NA
HETATM   18  C1  UNL     1      27.585  -2.416  52.867  1.00  0.00     0.153 C 
HETATM   19  C17 UNL     1      26.776  -0.048  51.922  1.00  0.00     0.033 C 
ENDBRANCH   1  10
BRANCH   9  20
HETATM   20  N6  UNL     1      23.724   1.779  51.666  1.00  0.00    -0.369 N 
HETATM   21  H8  UNL     1      23.154   1.372  50.916  1.00  0.00     0.161 HD
BRANCH  20  22
HETATM   22  C11 UNL     1      23.000   1.312  52.806  1.00  0.00     0.083 C 
HETATM   23  C12 UNL     1      23.698   0.218  53.517  1.00  0.00     0.025 C 
HETATM   24  C13 UNL     1      22.854  -0.885  54.067  1.00  0.00     0.002 C 
HETATM   25  C14 UNL     1      21.522  -0.455  54.589  1.00  0.00     0.000 C 
HETATM   26  C15 UNL     1      20.884   0.636  53.771  1.00  0.00     0.002 C 
HETATM   27  C16 UNL     1      21.604   0.826  52.447  1.00  0.00     0.025 C 
ENDBRANCH  20  22
ENDBRANCH   9  20
TORSDOF 3
ENDMDL
MODEL 2
REMARK VINA RESULT:      -8.9      2.326      4.748
REMARK  3 active torsions:
REMARK  status: ('A' for Active; 'I' for Inactive)
REMARK    1  A    between atoms: C4_7  and  C5_8 
REMARK    2  A    between atoms: C10_16  and  N6_17 
REMARK    3  A    between atoms: N6_17  and  C11_18 
ROOT
HETATM    1  C5  UNL     1      23.855   2.446  51.383  1.00  0.00     0.131 A 
HETATM    2  N3  UNL     1      23.092   3.153  50.541  1.00  0.00    -0.058 NA
HETATM    3  C6  UNL     1      23.772   4.106  49.903  1.00  0.00     0.735 A 
HETATM    4  N4  UNL     1      23.323   4.989  48.993  1.00  0.00    -0.074 NA
HETATM    5  C7  UNL     1      24.156   5.897  48.435  1.00  0.00     0.138 A 
HETATM    6  C8  UNL     1      25.465   5.851  48.859  1.00  0.00     0.038 A 
HETATM    7  C9  UNL     1      25.825   4.914  49.791  1.00  0.00     0.118 A 
HETATM    8  N5  UNL     1      25.027   3.999  50.364  1.00  0.00    -0.137 N 
HETATM    9  C10 UNL     1      25.103   3.003  51.264  1.00  0.00     0.155 A 
ENDROOT
BRANCH   1  10
HETATM   10  C4  UNL     1      23.260   1.389  52.159  1.00  0.00    -0.001 C 
HETATM   11  C3  UNL     1      22.107   0.889  51.764  1.00  0.00     0.020 C 
HETATM   12  C2  UNL     1      21.376  -0.183  52.450  1.00  0.00     0.046 C 
HETATM   13  S1  UNL     1      22.126  -1.190  53.333  1.00  0.00    -0.114 SA
HETATM   14  N2  UNL     1      21.426  -1.137  54.916  1.00  0.00    -0.057 NA
HETATM   15  C18 UNL     1      23.584  -0.235  54.002  1.00  0.00     0.019 C 
HETATM   16  H2  UNL     1      22.318  -2.338  53.082  1.00  0.00     0.109 HD
HETATM   17  N1  UNL     1      22.703  -1.737  55.591  1.00  0.00    -0.182 NA
HETATM   18  C1  UNL     1      23.700  -1.208  55.055  1.00  0.00     0.153 C 
HETATM   19  C17 UNL     1      23.899   0.769  53.266  1.00  0.00     0.033 C 
ENDBRANCH   1  10
BRANCH   9  20
HETATM   20  N6  UNL     1      26.261   2.671  52.000  1.00  0.00    -0.369 N 
HETATM   21  H8  UNL     1      26.568   3.435  52.612  1.00  0.00     0.161 HD
BRANCH  20  22
HETATM   22  C11 UNL     1      27.289   1.715  52.264  1.00  0.00     0.083 C 
HETATM   23  C12 UNL     1      26.889   0.333  51.918  1.00  0.00     0.025 C 
HETATM   24  C13 UNL     1      27.343  -0.758  52.829  1.00  0.00     0.002 C 
HETATM   25  C14 UNL     1      28.700  -0.556  53.421  1.00  0.00     0.000 C 
HETATM   26  C15 UNL     1      28.991   0.878  53.772  1.00  0.00     0.002 C 
HETATM   27  C16 UNL     1      27.731   1.726  53.720  1.00  0.00     0.025 C 
ENDBRANCH  20  22
ENDBRANCH   9  20
TORSDOF 3
ENDMDL
MODEL 3
REMARK VINA RESULT:      -8.9      2.632      6.937
REMARK  3 active torsions:
REMARK  status: ('A' for Active; 'I' for Inactive)
REMARK    1  A    between atoms: C4_7  and  C5_8 
REMARK    2  A    between atoms: C10_16  and  N6_17 
REMARK    3  A    between atoms: N6_17  and  C11_18 
ROOT
HETATM    1  C5  UNL     1      24.688   0.640  53.189  1.00  0.00     0.131 A 
HETATM    2  N3  UNL     1      25.333  -0.025  54.154  1.00  0.00    -0.058 NA
HETATM    3  C6  UNL     1      26.649   0.188  54.139  1.00  0.00     0.735 A 
HETATM    4  N4  UNL     1      27.588  -0.314  54.960  1.00  0.00    -0.074 NA
HETATM    5  C7  UNL     1      28.892   0.011  54.806  1.00  0.00     0.138 A 
HETATM    6  C8  UNL     1      29.178   0.874  53.770  1.00  0.00     0.038 A 
HETATM    7  C9  UNL     1      28.150   1.330  52.989  1.00  0.00     0.118 A 
HETATM    8  N5  UNL     1      26.848   1.029  53.114  1.00  0.00    -0.137 N 
HETATM    9  C10 UNL     1      25.676   1.317  52.520  1.00  0.00     0.155 A 
ENDROOT
BRANCH   1  10
HETATM   10  C4  UNL     1      23.260   0.499  53.065  1.00  0.00    -0.001 C 
HETATM   11  C3  UNL     1      22.688  -0.583  53.555  1.00  0.00     0.020 C 
HETATM   12  C2  UNL     1      21.250  -0.872  53.500  1.00  0.00     0.046 C 
HETATM   13  S1  UNL     1      20.234   0.271  53.390  1.00  0.00    -0.114 SA
HETATM   14  N2  UNL     1      19.271  -0.002  51.977  1.00  0.00    -0.057 NA
HETATM   15  C18 UNL     1      21.132   1.613  52.454  1.00  0.00     0.019 C 
HETATM   16  H2  UNL     1      19.490   0.634  54.247  1.00  0.00     0.109 HD
HETATM   17  N1  UNL     1      18.851   1.500  51.870  1.00  0.00    -0.182 NA
HETATM   18  C1  UNL     1      19.859   2.194  52.124  1.00  0.00     0.153 C 
HETATM   19  C17 UNL     1      22.410   1.513  52.547  1.00  0.00     0.033 C 
ENDBRANCH   1  10
BRANCH   9  20
HETATM   20  N6  UNL     1      25.534   2.111  51.362  1.00  0.00    -0.369 N 
HETATM   21  H8  UNL     1      25.231   1.565  50.548  1.00  0.00     0.161 HD
BRANCH  20  22
HETATM   22  C11 UNL     1      25.672   3.398  50.757  1.00  0.00     0.083 C 
HETATM   23  C12 UNL     1      24.369   4.014  50.419  1.00  0.00     0.025 C 
HETATM   24  C13 UNL     1      24.289   4.783  49.142  1.00  0.00     0.002 C 
HETATM   25  C14 UNL     1      25.528   5.539  48.787  1.00  0.00     0.000 C 
HETATM   26  C15 UNL     1      26.796   4.808  49.138  1.00  0.00     0.002 C 
HETATM   27  C16 UNL     1      26.516   3.357  49.492  1.00  0.00     0.025 C 
ENDBRANCH  20  22
ENDBRANCH   9  20
TORSDOF 3
ENDMDL
MODEL 4
REMARK VINA RESULT:      -8.7      2.013      5.305
REMARK  3 active torsions:
REMARK  status: ('A' for Active; 'I' for Inactive)
REMARK    1  A    between atoms: C4_7  and  C5_8 
REMARK    2  A    between atoms: C10_16  and  N6_17 
REMARK    3  A    between atoms: N6_17  and  C11_18 
ROOT
HETATM    1  C5  UNL     1      23.626   0.370  52.789  1.00  0.00     0.131 A 
HETATM    2  N3  UNL     1      22.772  -0.314  53.560  1.00  0.00    -0.058 NA
HETATM    3  C6  UNL     1      21.509  -0.217  53.145  1.00  0.00     0.735 A 
HETATM    4  N4  UNL     1      20.408  -0.775  53.678  1.00  0.00    -0.074 NA
HETATM    5  C7  UNL     1      19.190  -0.575  53.124  1.00  0.00     0.138 A 
HETATM    6  C8  UNL     1      19.164   0.222  52.001  1.00  0.00     0.038 A 
HETATM    7  C9  UNL     1      20.342   0.744  51.535  1.00  0.00     0.118 A 
HETATM    8  N5  UNL     1      21.565   0.567  52.058  1.00  0.00    -0.137 N 
HETATM    9  C10 UNL     1      22.835   0.938  51.823  1.00  0.00     0.155 A 
ENDROOT
BRANCH   1  10
HETATM   10  C4  UNL     1      25.028   0.376  53.119  1.00  0.00    -0.001 C 
HETATM   11  C3  UNL     1      25.678  -0.770  53.130  1.00  0.00     0.020 C 
HETATM   12  C2  UNL     1      27.102  -0.925  53.451  1.00  0.00     0.046 C 
HETATM   13  S1  UNL     1      28.075   0.244  53.246  1.00  0.00    -0.114 SA
HETATM   14  N2  UNL     1      28.851   0.565  54.760  1.00  0.00    -0.057 NA
HETATM   15  C18 UNL     1      27.037   1.772  53.513  1.00  0.00     0.019 C 
HETATM   16  H2  UNL     1      28.916   0.318  52.407  1.00  0.00     0.109 HD
HETATM   17  N1  UNL     1      29.225   2.028  54.353  1.00  0.00    -0.182 NA
HETATM   18  C1  UNL     1      28.246   2.516  53.749  1.00  0.00     0.153 C 
HETATM   19  C17 UNL     1      25.784   1.562  53.320  1.00  0.00     0.033 C 
ENDBRANCH   1  10
BRANCH   9  20
HETATM   20  N6  UNL     1      23.239   1.826  50.802  1.00  0.00    -0.369 N 
HETATM   21  H8  UNL     1      23.387   1.350  49.906  1.00  0.00     0.161 HD
BRANCH  20  22
HETATM   22  C11 UNL     1      23.602   3.158  50.437  1.00  0.00     0.083 C 
HETATM   23  C12 UNL     1      24.844   3.212  49.633  1.00  0.00     0.025 C 
HETATM   24  C13 UNL     1      25.781   4.344  49.899  1.00  0.00     0.002 C 
HETATM   25  C14 UNL     1      25.119   5.638  50.242  1.00  0.00     0.000 C 
HETATM   26  C15 UNL     1      23.888   5.473  51.093  1.00  0.00     0.002 C 
HETATM   27  C16 UNL     1      23.786   4.062  51.647  1.00  0.00     0.025 C 
ENDBRANCH  20  22
ENDBRANCH   9  20
TORSDOF 3
ENDMDL
MODEL 5
REMARK VINA RESULT:      -8.5      2.659      6.013
REMARK  3 active torsions:
REMARK  status: ('A' for Active; 'I' for Inactive)
REMARK    1  A    between atoms: C4_7  and  C5_8 
REMARK    2  A    between atoms: C10_16  and  N6_17 
REMARK    3  A    between atoms: N6_17  and  C11_18 
ROOT
HETATM    1  C5  UNL     1      25.417   2.090  52.010  1.00  0.00     0.131 A 
HETATM    2  N3  UNL     1      26.692   2.490  52.076  1.00  0.00    -0.058 NA
HETATM    3  C6  UNL     1      27.453   1.676  52.808  1.00  0.00     0.735 A 
HETATM    4  N4  UNL     1      28.766   1.775  53.078  1.00  0.00    -0.074 NA
HETATM    5  C7  UNL     1      29.390   0.851  53.844  1.00  0.00     0.138 A 
HETATM    6  C8  UNL     1      28.598  -0.173  54.315  1.00  0.00     0.038 A 
HETATM    7  C9  UNL     1      27.269  -0.184  53.985  1.00  0.00     0.118 A 
HETATM    8  N5  UNL     1      26.619   0.714  53.228  1.00  0.00    -0.137 N 
HETATM    9  C10 UNL     1      25.379   0.942  52.761  1.00  0.00     0.155 A 
ENDROOT
BRANCH   1  10
HETATM   10  C4  UNL     1      24.466   2.876  51.267  1.00  0.00    -0.001 C 
HETATM   11  C3  UNL     1      24.626   2.993  49.964  1.00  0.00     0.020 C 
HETATM   12  C2  UNL     1      23.747   3.762  49.075  1.00  0.00     0.046 C 
HETATM   13  S1  UNL     1      22.285   4.019  49.463  1.00  0.00    -0.114 SA
HETATM   14  N2  UNL     1      22.025   5.730  49.467  1.00  0.00    -0.057 NA
HETATM   15  C18 UNL     1      22.295   4.069  51.329  1.00  0.00     0.019 C 
HETATM   16  H2  UNL     1      21.326   3.528  48.955  1.00  0.00     0.109 HD
HETATM   17  N1  UNL     1      20.782   5.624  50.409  1.00  0.00    -0.182 NA
HETATM   18  C1  UNL     1      21.043   4.775  51.288  1.00  0.00     0.153 C 
HETATM   19  C17 UNL     1      23.294   3.440  51.837  1.00  0.00     0.033 C 
ENDBRANCH   1  10
BRANCH   9  20
HETATM   20  N6  UNL     1      24.244   0.165  53.076  1.00  0.00    -0.369 N 
HETATM   21  H8  UNL     1      24.417  -0.841  52.972  1.00  0.00     0.161 HD
BRANCH  20  22
HETATM   22  C11 UNL     1      22.866   0.140  53.452  1.00  0.00     0.083 C 
HETATM   23  C12 UNL     1      22.556  -0.938  54.417  1.00  0.00     0.025 C 
HETATM   24  C13 UNL     1      21.253  -1.648  54.252  1.00  0.00     0.002 C 
HETATM   25  C14 UNL     1      20.124  -0.787  53.786  1.00  0.00     0.000 C 
HETATM   26  C15 UNL     1      20.541   0.250  52.778  1.00  0.00     0.002 C 
HETATM   27  C16 UNL     1      21.941  -0.021  52.254  1.00  0.00     0.025 C 
ENDBRANCH  20  22
ENDBRANCH   9  20
TORSDOF 3
ENDMDL
MODEL 6
REMARK VINA RESULT:      -8.1      2.810      7.065
REMARK  3 active torsions:
REMARK  status: ('A' for Active; 'I' for Inactive)
REMARK    1  A    between atoms: C4_7  and  C5_8 
REMARK    2  A    between atoms: C10_16  and  N6_17 
REMARK    3  A    between atoms: N6_17  and  C11_18 
ROOT
HETATM    1  C5  UNL     1      24.847   1.751  52.251  1.00  0.00     0.131 A 
HETATM    2  N3  UNL     1      25.040   1.002  53.342  1.00  0.00    -0.058 NA
HETATM    3  C6  UNL     1      26.327   0.885  53.670  1.00  0.00     0.735 A 
HETATM    4  N4  UNL     1      26.872   0.215  54.700  1.00  0.00    -0.074 NA
HETATM    5  C7  UNL     1      28.211   0.202  54.891  1.00  0.00     0.138 A 
HETATM    6  C8  UNL     1      28.955   0.910  53.973  1.00  0.00     0.038 A 
HETATM    7  C9  UNL     1      28.306   1.560  52.958  1.00  0.00     0.118 A 
HETATM    8  N5  UNL     1      26.983   1.594  52.739  1.00  0.00    -0.137 N 
HETATM    9  C10 UNL     1      26.110   2.127  51.866  1.00  0.00     0.155 A 
ENDROOT
BRANCH   1  10
HETATM   10  C4  UNL     1      23.509   1.957  51.761  1.00  0.00    -0.001 C 
HETATM   11  C3  UNL     1      22.616   2.489  52.571  1.00  0.00     0.020 C 
HETATM   12  C2  UNL     1      21.215   2.754  52.220  1.00  0.00     0.046 C 
HETATM   13  S1  UNL     1      20.811   2.971  50.756  1.00  0.00    -0.114 SA
HETATM   14  N2  UNL     1      19.589   1.809  50.362  1.00  0.00    -0.057 NA
HETATM   15  C18 UNL     1      22.026   1.948  49.775  1.00  0.00     0.019 C 
HETATM   16  H2  UNL     1      20.474   4.002  50.265  1.00  0.00     0.109 HD
HETATM   17  N1  UNL     1      19.868   1.912  48.827  1.00  0.00    -0.182 NA
HETATM   18  C1  UNL     1      21.107   1.970  48.669  1.00  0.00     0.153 C 
HETATM   19  C17 UNL     1      23.119   1.729  50.414  1.00  0.00     0.033 C 
ENDBRANCH   1  10
BRANCH   9  20
HETATM   20  N6  UNL     1      26.468   2.867  50.719  1.00  0.00    -0.369 N 
HETATM   21  H8  UNL     1      27.450   2.730  50.457  1.00  0.00     0.161 HD
BRANCH  20  22
HETATM   22  C11 UNL     1      26.076   3.813  49.722  1.00  0.00     0.083 C 
HETATM   23  C12 UNL     1      27.231   4.412  49.018  1.00  0.00     0.025 C 
HETATM   24  C13 UNL     1      27.143   5.862  48.672  1.00  0.00     0.002 C 
HETATM   25  C14 UNL     1      25.776   6.333  48.292  1.00  0.00     0.000 C 
HETATM   26  C15 UNL     1      24.678   5.689  49.095  1.00  0.00     0.002 C 
HETATM   27  C16 UNL     1      25.236   4.944  50.296  1.00  0.00     0.025 C 
ENDBRANCH  20  22
ENDBRANCH   9  20
TORSDOF 3
ENDMDL
MODEL 7
REMARK VINA RESULT:      -7.7      6.723     10.687
REMARK  3 active torsions:
REMARK  status: ('A' for Active; 'I' for Inactive)
REMARK    1  A    between atoms: C4_7  and  C5_8 
REMARK    2  A    between atoms: C10_16  and  N6_17 
REMARK    3  A    between atoms: N6_17  and  C11_18 
ROOT
HETATM    1  C5  UNL     1      30.418   5.619  48.053  1.00  0.00     0.131 A 
HETATM    2  N3  UNL     1      30.731   4.448  47.489  1.00  0.00    -0.058 NA
HETATM    3  C6  UNL     1      32.040   4.197  47.507  1.00  0.00     0.735 A 
HETATM    4  N4  UNL     1      32.693   3.121  47.035  1.00  0.00    -0.074 NA
HETATM    5  C7  UNL     1      34.038   3.023  47.140  1.00  0.00     0.138 A 
HETATM    6  C8  UNL     1      34.672   4.083  47.751  1.00  0.00     0.038 A 
HETATM    7  C9  UNL     1      33.917   5.134  48.199  1.00  0.00     0.118 A 
HETATM    8  N5  UNL     1      32.584   5.263  48.112  1.00  0.00    -0.137 N 
HETATM    9  C10 UNL     1      31.623   6.141  48.450  1.00  0.00     0.155 A 
ENDROOT
BRANCH   1  10
HETATM   10  C4  UNL     1      29.041   6.041  48.094  1.00  0.00    -0.001 C 
HETATM   11  C3  UNL     1      28.145   5.215  48.596  1.00  0.00     0.020 C 
HETATM   12  C2  UNL     1      26.708   5.498  48.701  1.00  0.00     0.046 C 
HETATM   13  S1  UNL     1      26.206   6.945  48.771  1.00  0.00    -0.114 SA
HETATM   14  N2  UNL     1      25.086   7.187  47.473  1.00  0.00    -0.057 NA
HETATM   15  C18 UNL     1      27.462   7.927  47.800  1.00  0.00     0.019 C 
HETATM   16  H2  UNL     1      25.742   7.482  49.728  1.00  0.00     0.109 HD
HETATM   17  N1  UNL     1      25.271   8.739  47.491  1.00  0.00    -0.182 NA
HETATM   18  C1  UNL     1      26.487   8.975  47.655  1.00  0.00     0.153 C 
HETATM   19  C17 UNL     1      28.604   7.343  47.733  1.00  0.00     0.033 C 
ENDBRANCH   1  10
BRANCH   9  20
HETATM   20  N6  UNL     1      31.857   7.405  49.034  1.00  0.00    -0.369 N 
HETATM   21  H8  UNL     1      32.025   7.344  50.044  1.00  0.00     0.161 HD
BRANCH  20  22
HETATM   22  C11 UNL     1      31.923   8.821  48.857  1.00  0.00     0.083 C 
HETATM   23  C12 UNL     1      30.833   9.536  49.558  1.00  0.00     0.025 C 
HETATM   24  C13 UNL     1      30.232  10.714  48.865  1.00  0.00     0.002 C 
HETATM   25  C14 UNL     1      31.197  11.529  48.066  1.00  0.00     0.000 C 
HETATM   26  C15 UNL     1      32.240  10.702  47.363  1.00  0.00     0.002 C 
HETATM   27  C16 UNL     1      31.884   9.225  47.391  1.00  0.00     0.025 C 
ENDBRANCH  20  22
ENDBRANCH   9  20
TORSDOF 3
ENDMDL
MODEL 8
REMARK VINA RESULT:      -7.6      6.425      9.843
REMARK  3 active torsions:
REMARK  status: ('A' for Active; 'I' for Inactive)
REMARK    1  A    between atoms: C4_7  and  C5_8 
REMARK    2  A    between atoms: C10_16  and  N6_17 
REMARK    3  A    between atoms: N6_17  and  C11_18 
ROOT
HETATM    1  C5  UNL     1      29.625   6.035  48.092  1.00  0.00     0.131 A 
HETATM    2  N3  UNL     1      28.835   5.096  48.626  1.00  0.00    -0.058 NA
HETATM    3  C6  UNL     1      27.548   5.444  48.630  1.00  0.00     0.735 A 
HETATM    4  N4  UNL     1      26.493   4.745  49.084  1.00  0.00    -0.074 NA
HETATM    5  C7  UNL     1      25.240   5.249  49.008  1.00  0.00     0.138 A 
HETATM    6  C8  UNL     1      25.129   6.502  48.448  1.00  0.00     0.038 A 
HETATM    7  C9  UNL     1      26.265   7.135  48.016  1.00  0.00     0.118 A 
HETATM    8  N5  UNL     1      27.521   6.664  48.074  1.00  0.00    -0.137 N 
HETATM    9  C10 UNL     1      28.766   7.046  47.741  1.00  0.00     0.155 A 
ENDROOT
BRANCH   1  10
HETATM   10  C4  UNL     1      31.046   5.813  48.031  1.00  0.00    -0.001 C 
HETATM   11  C3  UNL     1      31.486   4.690  47.499  1.00  0.00     0.020 C 
HETATM   12  C2  UNL     1      32.901   4.319  47.371  1.00  0.00     0.046 C 
HETATM   13  S1  UNL     1      33.985   5.402  47.314  1.00  0.00    -0.114 SA
HETATM   14  N2  UNL     1      35.111   5.101  48.594  1.00  0.00    -0.057 NA
HETATM   15  C18 UNL     1      33.294   6.813  48.324  1.00  0.00     0.019 C 
HETATM   16  H2  UNL     1      34.626   5.704  46.357  1.00  0.00     0.109 HD
HETATM   17  N1  UNL     1      35.623   6.578  48.604  1.00  0.00    -0.182 NA
HETATM   18  C1  UNL     1      34.631   7.325  48.467  1.00  0.00     0.153 C 
HETATM   19  C17 UNL     1      32.012   6.785  48.404  1.00  0.00     0.033 C 
ENDBRANCH   1  10
BRANCH   9  20
HETATM   20  N6  UNL     1      29.105   8.307  47.205  1.00  0.00    -0.369 N 
HETATM   21  H8  UNL     1      28.907   8.371  46.201  1.00  0.00     0.161 HD
BRANCH  20  22
HETATM   22  C11 UNL     1      29.678   9.597  47.426  1.00  0.00     0.083 C 
HETATM   23  C12 UNL     1      30.884   9.836  46.603  1.00  0.00     0.025 C 
HETATM   24  C13 UNL     1      32.008  10.586  47.240  1.00  0.00     0.002 C 
HETATM   25  C14 UNL     1      31.585  11.665  48.183  1.00  0.00     0.000 C 
HETATM   26  C15 UNL     1      30.372  11.305  48.998  1.00  0.00     0.002 C 
HETATM   27  C16 UNL     1      30.050   9.825  48.884  1.00  0.00     0.025 C 
ENDBRANCH  20  22
ENDBRANCH   9  20
TORSDOF 3
ENDMDL
MODEL 9
REMARK VINA RESULT:      -7.5      2.745      6.419
REMARK  3 active torsions:
REMARK  status: ('A' for Active; 'I' for Inactive)
REMARK    1  A    between atoms: C4_7  and  C5_8 
REMARK    2  A    between atoms: C10_16  and  N6_17 
REMARK    3  A    between atoms: N6_17  and  C11_18 
ROOT
HETATM    1  C5  UNL     1      24.516   2.646  51.324  1.00  0.00     0.131 A 
HETATM    2  N3  UNL     1      25.772   2.192  51.247  1.00  0.00    -0.058 NA
HETATM    3  C6  UNL     1      25.976   1.106  51.994  1.00  0.00     0.735 A 
HETATM    4  N4  UNL     1      27.108   0.396  52.146  1.00  0.00    -0.074 NA
HETATM    5  C7  UNL     1      27.142  -0.693  52.948  1.00  0.00     0.138 A 
HETATM    6  C8  UNL     1      25.961  -1.010  53.581  1.00  0.00     0.038 A 
HETATM    7  C9  UNL     1      24.862  -0.223  53.361  1.00  0.00     0.118 A 
HETATM    8  N5  UNL     1      24.792   0.861  52.574  1.00  0.00    -0.137 N 
HETATM    9  C10 UNL     1      23.891   1.781  52.187  1.00  0.00     0.155 A 
ENDROOT
BRANCH   1  10
HETATM   10  C4  UNL     1      24.142   3.824  50.585  1.00  0.00    -0.001 C 
HETATM   11  C3  UNL     1      23.722   3.683  49.344  1.00  0.00     0.020 C 
HETATM   12  C2  UNL     1      23.314   4.785  48.465  1.00  0.00     0.046 C 
HETATM   13  S1  UNL     1      22.800   6.102  49.061  1.00  0.00    -0.114 SA
HETATM   14  N2  UNL     1      23.792   7.386  48.456  1.00  0.00    -0.057 NA
HETATM   15  C18 UNL     1      23.687   6.258  50.695  1.00  0.00     0.019 C 
HETATM   16  H2  UNL     1      21.676   6.495  49.032  1.00  0.00     0.109 HD
HETATM   17  N1  UNL     1      23.415   8.344  49.632  1.00  0.00    -0.182 NA
HETATM   18  C1  UNL     1      23.402   7.667  50.683  1.00  0.00     0.153 C 
HETATM   19  C17 UNL     1      24.087   5.125  51.153  1.00  0.00     0.033 C 
ENDBRANCH   1  10
BRANCH   9  20
HETATM   20  N6  UNL     1      22.567   1.863  52.668  1.00  0.00    -0.369 N 
HETATM   21  H8  UNL     1      22.487   2.469  53.492  1.00  0.00     0.161 HD
BRANCH  20  22
HETATM   22  C11 UNL     1      21.212   1.424  52.553  1.00  0.00     0.083 C 
HETATM   23  C12 UNL     1      20.759   0.654  53.733  1.00  0.00     0.025 C 
HETATM   24  C13 UNL     1      19.867  -0.518  53.483  1.00  0.00     0.002 C 
HETATM   25  C14 UNL     1      18.902  -0.340  52.356  1.00  0.00     0.000 C 
HETATM   26  C15 UNL     1      19.475   0.423  51.192  1.00  0.00     0.002 C 
HETATM   27  C16 UNL     1      20.983   0.567  51.317  1.00  0.00     0.025 C 
ENDBRANCH  20  22
ENDBRANCH   9  20
TORSDOF 3
ENDMDL
