MODEL 1
REMARK VINA RESULT:      -7.3      0.000      0.000
REMARK  8 active torsions:
REMARK  status: ('A' for Active; 'I' for Inactive)
REMARK    1  A    between atoms: C2_2  and  C3_3 
REMARK    2  A    between atoms: C3_3  and  C4_4 
REMARK    3  A    between atoms: C4_4  and  N1_5 
REMARK    4  A    between atoms: N1_5  and  C5_6 
REMARK    5  A    between atoms: N1_5  and  C12_13 
REMARK    6  A    between atoms: C5_6  and  C6_7 
REMARK    7  A    between atoms: C12_13  and  C13_14 
REMARK    8  A    between atoms: C18_20  and  O1_21 
ROOT
HETATM    1  N1  UNL     1      25.751   2.454  50.955  1.00  0.00     0.096 N 
ENDROOT
BRANCH   1   2
HETATM    2  C4  UNL     1      26.315   3.185  49.889  1.00  0.00     0.273 C 
BRANCH   2   3
HETATM    3  C3  UNL     1      25.490   4.376  49.447  1.00  0.00     0.030 C 
BRANCH   3   4
HETATM    4  C2  UNL     1      26.415   5.445  48.946  1.00  0.00    -0.003 C 
HETATM    5  C1  UNL     1      27.768   4.845  48.623  1.00  0.00     0.005 C 
ENDBRANCH   3   4
ENDBRANCH   2   3
ENDBRANCH   1   2
BRANCH   1   6
HETATM    6  C5  UNL     1      24.486   3.077  51.340  1.00  0.00     0.311 C 
BRANCH   6   7
HETATM    7  C6  UNL     1      23.385   2.099  51.510  1.00  0.00    -0.030 A 
HETATM    8  C7  UNL     1      22.634   1.661  50.413  1.00  0.00     0.009 A 
HETATM    9  C8  UNL     1      21.585   0.750  50.486  1.00  0.00     0.001 A 
HETATM   10  C9  UNL     1      21.292   0.264  51.750  1.00  0.00     0.000 A 
HETATM   11  C10 UNL     1      21.997   0.659  52.869  1.00  0.00     0.001 A 
HETATM   12  C11 UNL     1      23.032   1.568  52.746  1.00  0.00     0.009 A 
ENDBRANCH   6   7
ENDBRANCH   1   6
BRANCH   1  13
HETATM   13  C12 UNL     1      26.624   2.420  52.098  1.00  0.00     0.314 C 
BRANCH  13  14
HETATM   14  C13 UNL     1      27.149   1.096  52.480  1.00  0.00     0.005 A 
HETATM   15  C14 UNL     1      26.244   0.057  52.227  1.00  0.00     0.012 A 
HETATM   16  C15 UNL     1      26.525  -1.258  52.466  1.00  0.00     0.002 A 
HETATM   17  C16 UNL     1      27.755  -1.598  52.978  1.00  0.00     0.026 A 
HETATM   18  C17 UNL     1      28.665  -0.597  53.237  1.00  0.00     0.067 A 
HETATM   19 CL1  UNL     1      30.248  -0.968  53.891  1.00  0.00    -0.081 Cl
HETATM   20  C18 UNL     1      28.369   0.728  52.993  1.00  0.00     0.095 A 
BRANCH  20  21
HETATM   21  O1  UNL     1      29.272   1.743  53.254  1.00  0.00    -0.358 OA
HETATM   22  H22 UNL     1      29.399   1.960  54.249  1.00  0.00     0.217 HD
ENDBRANCH  20  21
ENDBRANCH  13  14
ENDBRANCH   1  13
TORSDOF 8
ENDMDL
MODEL 2
REMARK VINA RESULT:      -7.2      2.445      6.280
REMARK  8 active torsions:
REMARK  status: ('A' for Active; 'I' for Inactive)
REMARK    1  A    between atoms: C2_2  and  C3_3 
REMARK    2  A    between atoms: C3_3  and  C4_4 
REMARK    3  A    between atoms: C4_4  and  N1_5 
REMARK    4  A    between atoms: N1_5  and  C5_6 
REMARK    5  A    between atoms: N1_5  and  C12_13 
REMARK    6  A    between atoms: C5_6  and  C6_7 
REMARK    7  A    between atoms: C12_13  and  C13_14 
REMARK    8  A    between atoms: C18_20  and  O1_21 
ROOT
HETATM    1  N1  UNL     1      24.966   0.333  53.090  1.00  0.00     0.096 N 
ENDROOT
BRANCH   1   2
HETATM    2  C4  UNL     1      23.726  -0.336  53.146  1.00  0.00     0.273 C 
BRANCH   2   3
HETATM    3  C3  UNL     1      23.398  -0.926  54.501  1.00  0.00     0.030 C 
BRANCH   3   4
HETATM    4  C2  UNL     1      21.942  -0.709  54.784  1.00  0.00    -0.003 C 
HETATM    5  C1  UNL     1      21.382   0.327  53.831  1.00  0.00     0.005 C 
ENDBRANCH   3   4
ENDBRANCH   2   3
ENDBRANCH   1   2
BRANCH   1   6
HETATM    6  C5  UNL     1      25.743  -0.007  54.281  1.00  0.00     0.311 C 
BRANCH   6   7
HETATM    7  C6  UNL     1      27.188  -0.181  54.003  1.00  0.00    -0.030 A 
HETATM    8  C7  UNL     1      27.667  -1.335  53.371  1.00  0.00     0.009 A 
HETATM    9  C8  UNL     1      29.005  -1.578  53.077  1.00  0.00     0.001 A 
HETATM   10  C9  UNL     1      29.896  -0.585  53.449  1.00  0.00     0.000 A 
HETATM   11  C10 UNL     1      29.484   0.574  54.074  1.00  0.00     0.001 A 
HETATM   12  C11 UNL     1      28.142   0.770  54.347  1.00  0.00     0.009 A 
ENDBRANCH   6   7
ENDBRANCH   1   6
BRANCH   1  13
HETATM   13  C12 UNL     1      24.800   1.760  53.032  1.00  0.00     0.314 C 
BRANCH  13  14
HETATM   14  C13 UNL     1      24.889   2.375  51.694  1.00  0.00     0.005 A 
HETATM   15  C14 UNL     1      23.660   2.404  51.024  1.00  0.00     0.012 A 
HETATM   16  C15 UNL     1      23.493   2.958  49.787  1.00  0.00     0.002 A 
HETATM   17  C16 UNL     1      24.574   3.523  49.154  1.00  0.00     0.026 A 
HETATM   18  C17 UNL     1      25.797   3.508  49.789  1.00  0.00     0.067 A 
HETATM   19 CL1  UNL     1      27.211   4.213  49.032  1.00  0.00    -0.081 Cl
HETATM   20  C18 UNL     1      25.954   2.944  51.038  1.00  0.00     0.095 A 
BRANCH  20  21
HETATM   21  O1  UNL     1      27.177   2.919  51.684  1.00  0.00    -0.358 OA
HETATM   22  H22 UNL     1      27.120   2.865  52.707  1.00  0.00     0.217 HD
ENDBRANCH  20  21
ENDBRANCH  13  14
ENDBRANCH   1  13
TORSDOF 8
ENDMDL
MODEL 3
REMARK VINA RESULT:      -7.2      3.157      6.521
REMARK  8 active torsions:
REMARK  status: ('A' for Active; 'I' for Inactive)
REMARK    1  A    between atoms: C2_2  and  C3_3 
REMARK    2  A    between atoms: C3_3  and  C4_4 
REMARK    3  A    between atoms: C4_4  and  N1_5 
REMARK    4  A    between atoms: N1_5  and  C5_6 
REMARK    5  A    between atoms: N1_5  and  C12_13 
REMARK    6  A    between atoms: C5_6  and  C6_7 
REMARK    7  A    between atoms: C12_13  and  C13_14 
REMARK    8  A    between atoms: C18_20  and  O1_21 
ROOT
HETATM    1  N1  UNL     1      24.146   0.142  52.959  1.00  0.00     0.096 N 
ENDROOT
BRANCH   1   2
HETATM    2  C4  UNL     1      22.820  -0.333  52.901  1.00  0.00     0.273 C 
BRANCH   2   3
HETATM    3  C3  UNL     1      21.797   0.604  53.509  1.00  0.00     0.030 C 
BRANCH   3   4
HETATM    4  C2  UNL     1      21.103  -0.104  54.635  1.00  0.00    -0.003 C 
HETATM    5  C1  UNL     1      21.267  -1.601  54.480  1.00  0.00     0.005 C 
ENDBRANCH   3   4
ENDBRANCH   2   3
ENDBRANCH   1   2
BRANCH   1   6
HETATM    6  C5  UNL     1      24.804  -0.426  54.134  1.00  0.00     0.311 C 
BRANCH   6   7
HETATM    7  C6  UNL     1      26.280  -0.475  54.008  1.00  0.00    -0.030 A 
HETATM    8  C7  UNL     1      27.102   0.255  54.874  1.00  0.00     0.009 A 
HETATM    9  C8  UNL     1      28.492   0.267  54.822  1.00  0.00     0.001 A 
HETATM   10  C9  UNL     1      29.068  -0.512  53.831  1.00  0.00     0.000 A 
HETATM   11  C10 UNL     1      28.309  -1.254  52.948  1.00  0.00     0.001 A 
HETATM   12  C11 UNL     1      26.929  -1.233  53.039  1.00  0.00     0.009 A 
ENDBRANCH   6   7
ENDBRANCH   1   6
BRANCH   1  13
HETATM   13  C12 UNL     1      24.194   1.578  53.043  1.00  0.00     0.314 C 
BRANCH  13  14
HETATM   14  C13 UNL     1      24.616   2.290  51.823  1.00  0.00     0.005 A 
HETATM   15  C14 UNL     1      25.994   2.196  51.587  1.00  0.00     0.012 A 
HETATM   16  C15 UNL     1      26.607   2.747  50.498  1.00  0.00     0.002 A 
HETATM   17  C16 UNL     1      25.850   3.429  49.575  1.00  0.00     0.026 A 
HETATM   18  C17 UNL     1      24.492   3.537  49.782  1.00  0.00     0.067 A 
HETATM   19 CL1  UNL     1      23.475   4.394  48.641  1.00  0.00    -0.081 Cl
HETATM   20  C18 UNL     1      23.884   2.979  50.887  1.00  0.00     0.095 A 
BRANCH  20  21
HETATM   21  O1  UNL     1      22.523   3.085  51.109  1.00  0.00    -0.358 OA
HETATM   22  H22 UNL     1      22.184   4.044  51.246  1.00  0.00     0.217 HD
ENDBRANCH  20  21
ENDBRANCH  13  14
ENDBRANCH   1  13
TORSDOF 8
ENDMDL
MODEL 4
REMARK VINA RESULT:      -7.1      1.575      2.442
REMARK  8 active torsions:
REMARK  status: ('A' for Active; 'I' for Inactive)
REMARK    1  A    between atoms: C2_2  and  C3_3 
REMARK    2  A    between atoms: C3_3  and  C4_4 
REMARK    3  A    between atoms: C4_4  and  N1_5 
REMARK    4  A    between atoms: N1_5  and  C5_6 
REMARK    5  A    between atoms: N1_5  and  C12_13 
REMARK    6  A    between atoms: C5_6  and  C6_7 
REMARK    7  A    between atoms: C12_13  and  C13_14 
REMARK    8  A    between atoms: C18_20  and  O1_21 
ROOT
HETATM    1  N1  UNL     1      23.648   1.733  52.011  1.00  0.00     0.096 N 
ENDROOT
BRANCH   1   2
HETATM    2  C4  UNL     1      23.560   2.328  50.735  1.00  0.00     0.273 C 
BRANCH   2   3
HETATM    3  C3  UNL     1      24.265   3.664  50.622  1.00  0.00     0.030 C 
BRANCH   3   4
HETATM    4  C2  UNL     1      25.059   3.684  49.350  1.00  0.00    -0.003 C 
HETATM    5  C1  UNL     1      26.491   3.279  49.631  1.00  0.00     0.005 C 
ENDBRANCH   3   4
ENDBRANCH   2   3
ENDBRANCH   1   2
BRANCH   1   6
HETATM    6  C5  UNL     1      22.412   2.002  52.746  1.00  0.00     0.311 C 
BRANCH   6   7
HETATM    7  C6  UNL     1      21.747   0.770  53.233  1.00  0.00    -0.030 A 
HETATM    8  C7  UNL     1      22.458  -0.197  53.952  1.00  0.00     0.009 A 
HETATM    9  C8  UNL     1      21.911  -1.379  54.441  1.00  0.00     0.001 A 
HETATM   10  C9  UNL     1      20.566  -1.578  54.180  1.00  0.00     0.000 A 
HETATM   11  C10 UNL     1      19.812  -0.660  53.476  1.00  0.00     0.001 A 
HETATM   12  C11 UNL     1      20.401   0.501  53.009  1.00  0.00     0.009 A 
ENDBRANCH   6   7
ENDBRANCH   1   6
BRANCH   1  13
HETATM   13  C12 UNL     1      24.761   2.248  52.762  1.00  0.00     0.314 C 
BRANCH  13  14
HETATM   14  C13 UNL     1      25.898   1.330  52.957  1.00  0.00     0.005 A 
HETATM   15  C14 UNL     1      25.660   0.050  52.440  1.00  0.00     0.012 A 
HETATM   16  C15 UNL     1      26.583  -0.956  52.473  1.00  0.00     0.002 A 
HETATM   17  C16 UNL     1      27.815  -0.718  53.034  1.00  0.00     0.026 A 
HETATM   18  C17 UNL     1      28.077   0.532  53.551  1.00  0.00     0.067 A 
HETATM   19 CL1  UNL     1      29.629   0.895  54.280  1.00  0.00    -0.081 Cl
HETATM   20  C18 UNL     1      27.136   1.540  53.514  1.00  0.00     0.095 A 
BRANCH  20  21
HETATM   21  O1  UNL     1      27.386   2.797  54.034  1.00  0.00    -0.358 OA
HETATM   22  H22 UNL     1      26.605   3.207  54.558  1.00  0.00     0.217 HD
ENDBRANCH  20  21
ENDBRANCH  13  14
ENDBRANCH   1  13
TORSDOF 8
ENDMDL
MODEL 5
REMARK VINA RESULT:      -7.0      2.906      5.226
REMARK  8 active torsions:
REMARK  status: ('A' for Active; 'I' for Inactive)
REMARK    1  A    between atoms: C2_2  and  C3_3 
REMARK    2  A    between atoms: C3_3  and  C4_4 
REMARK    3  A    between atoms: C4_4  and  N1_5 
REMARK    4  A    between atoms: N1_5  and  C5_6 
REMARK    5  A    between atoms: N1_5  and  C12_13 
REMARK    6  A    between atoms: C5_6  and  C6_7 
REMARK    7  A    between atoms: C12_13  and  C13_14 
REMARK    8  A    between atoms: C18_20  and  O1_21 
ROOT
HETATM    1  N1  UNL     1      25.889   1.547  52.734  1.00  0.00     0.096 N 
ENDROOT
BRANCH   1   2
HETATM    2  C4  UNL     1      26.729   1.956  53.791  1.00  0.00     0.273 C 
BRANCH   2   3
HETATM    3  C3  UNL     1      28.159   2.233  53.376  1.00  0.00     0.030 C 
BRANCH   3   4
HETATM    4  C2  UNL     1      29.079   1.450  54.265  1.00  0.00    -0.003 C 
HETATM    5  C1  UNL     1      29.355   0.093  53.652  1.00  0.00     0.005 C 
ENDBRANCH   3   4
ENDBRANCH   2   3
ENDBRANCH   1   2
BRANCH   1   6
HETATM    6  C5  UNL     1      25.675   0.104  52.829  1.00  0.00     0.311 C 
BRANCH   6   7
HETATM    7  C6  UNL     1      24.418  -0.253  53.528  1.00  0.00    -0.030 A 
HETATM    8  C7  UNL     1      24.442  -0.940  54.747  1.00  0.00     0.009 A 
HETATM    9  C8  UNL     1      23.310  -1.314  55.466  1.00  0.00     0.001 A 
HETATM   10  C9  UNL     1      22.093  -0.965  54.904  1.00  0.00     0.000 A 
HETATM   11  C10 UNL     1      22.007  -0.287  53.705  1.00  0.00     0.001 A 
HETATM   12  C11 UNL     1      23.160   0.064  53.027  1.00  0.00     0.009 A 
ENDBRANCH   6   7
ENDBRANCH   1   6
BRANCH   1  13
HETATM   13  C12 UNL     1      26.461   1.853  51.450  1.00  0.00     0.314 C 
BRANCH  13  14
HETATM   14  C13 UNL     1      25.748   2.858  50.640  1.00  0.00     0.005 A 
HETATM   15  C14 UNL     1      24.363   2.655  50.614  1.00  0.00     0.012 A 
HETATM   16  C15 UNL     1      23.495   3.480  49.958  1.00  0.00     0.002 A 
HETATM   17  C16 UNL     1      23.989   4.573  49.285  1.00  0.00     0.026 A 
HETATM   18  C17 UNL     1      25.348   4.798  49.293  1.00  0.00     0.067 A 
HETATM   19 CL1  UNL     1      26.036   6.174  48.454  1.00  0.00    -0.081 Cl
HETATM   20  C18 UNL     1      26.214   3.956  49.958  1.00  0.00     0.095 A 
BRANCH  20  21
HETATM   21  O1  UNL     1      27.581   4.168  49.969  1.00  0.00    -0.358 OA
HETATM   22  H22 UNL     1      28.081   3.707  50.737  1.00  0.00     0.217 HD
ENDBRANCH  20  21
ENDBRANCH  13  14
ENDBRANCH   1  13
TORSDOF 8
ENDMDL
MODEL 6
REMARK VINA RESULT:      -7.0      1.444      4.708
REMARK  8 active torsions:
REMARK  status: ('A' for Active; 'I' for Inactive)
REMARK    1  A    between atoms: C2_2  and  C3_3 
REMARK    2  A    between atoms: C3_3  and  C4_4 
REMARK    3  A    between atoms: C4_4  and  N1_5 
REMARK    4  A    between atoms: N1_5  and  C5_6 
REMARK    5  A    between atoms: N1_5  and  C12_13 
REMARK    6  A    between atoms: C5_6  and  C6_7 
REMARK    7  A    between atoms: C12_13  and  C13_14 
REMARK    8  A    between atoms: C18_20  and  O1_21 
ROOT
HETATM    1  N1  UNL     1      24.841   2.238  52.033  1.00  0.00     0.096 N 
ENDROOT
BRANCH   1   2
HETATM    2  C4  UNL     1      23.731   2.210  52.903  1.00  0.00     0.273 C 
BRANCH   2   3
HETATM    3  C3  UNL     1      22.569   1.380  52.400  1.00  0.00     0.030 C 
BRANCH   3   4
HETATM    4  C2  UNL     1      22.050   0.541  53.530  1.00  0.00    -0.003 C 
HETATM    5  C1  UNL     1      22.547  -0.882  53.384  1.00  0.00     0.005 C 
ENDBRANCH   3   4
ENDBRANCH   2   3
ENDBRANCH   1   2
BRANCH   1   6
HETATM    6  C5  UNL     1      24.383   2.589  50.690  1.00  0.00     0.311 C 
BRANCH   6   7
HETATM    7  C6  UNL     1      25.197   3.654  50.057  1.00  0.00    -0.030 A 
HETATM    8  C7  UNL     1      26.466   3.377  49.537  1.00  0.00     0.009 A 
HETATM    9  C8  UNL     1      27.294   4.317  48.931  1.00  0.00     0.001 A 
HETATM   10  C9  UNL     1      26.793   5.606  48.856  1.00  0.00     0.000 A 
HETATM   11  C10 UNL     1      25.548   5.939  49.351  1.00  0.00     0.001 A 
HETATM   12  C11 UNL     1      24.761   4.970  49.945  1.00  0.00     0.009 A 
ENDBRANCH   6   7
ENDBRANCH   1   6
BRANCH   1  13
HETATM   13  C12 UNL     1      25.511   0.966  51.983  1.00  0.00     0.314 C 
BRANCH  13  14
HETATM   14  C13 UNL     1      26.853   0.910  52.589  1.00  0.00     0.005 A 
HETATM   15  C14 UNL     1      27.345   2.172  52.945  1.00  0.00     0.012 A 
HETATM   16  C15 UNL     1      28.551   2.363  53.555  1.00  0.00     0.002 A 
HETATM   17  C16 UNL     1      29.336   1.273  53.845  1.00  0.00     0.026 A 
HETATM   18  C17 UNL     1      28.879   0.018  53.506  1.00  0.00     0.067 A 
HETATM   19 CL1  UNL     1      29.835  -1.410  53.850  1.00  0.00    -0.081 Cl
HETATM   20  C18 UNL     1      27.659  -0.163  52.889  1.00  0.00     0.095 A 
BRANCH  20  21
HETATM   21  O1  UNL     1      27.191  -1.416  52.539  1.00  0.00    -0.358 OA
HETATM   22  H22 UNL     1      26.659  -1.896  53.273  1.00  0.00     0.217 HD
ENDBRANCH  20  21
ENDBRANCH  13  14
ENDBRANCH   1  13
TORSDOF 8
ENDMDL
MODEL 7
REMARK VINA RESULT:      -6.9      3.713      6.101
REMARK  8 active torsions:
REMARK  status: ('A' for Active; 'I' for Inactive)
REMARK    1  A    between atoms: C2_2  and  C3_3 
REMARK    2  A    between atoms: C3_3  and  C4_4 
REMARK    3  A    between atoms: C4_4  and  N1_5 
REMARK    4  A    between atoms: N1_5  and  C5_6 
REMARK    5  A    between atoms: N1_5  and  C12_13 
REMARK    6  A    between atoms: C5_6  and  C6_7 
REMARK    7  A    between atoms: C12_13  and  C13_14 
REMARK    8  A    between atoms: C18_20  and  O1_21 
ROOT
HETATM    1  N1  UNL     1      24.547   1.808  52.596  1.00  0.00     0.096 N 
ENDROOT
BRANCH   1   2
HETATM    2  C4  UNL     1      24.274   3.164  52.871  1.00  0.00     0.273 C 
BRANCH   2   3
HETATM    3  C3  UNL     1      23.539   3.888  51.762  1.00  0.00     0.030 C 
BRANCH   3   4
HETATM    4  C2  UNL     1      22.423   4.688  52.365  1.00  0.00    -0.003 C 
HETATM    5  C1  UNL     1      21.089   4.116  51.934  1.00  0.00     0.005 C 
ENDBRANCH   3   4
ENDBRANCH   2   3
ENDBRANCH   1   2
BRANCH   1   6
HETATM    6  C5  UNL     1      25.756   1.724  51.778  1.00  0.00     0.311 C 
BRANCH   6   7
HETATM    7  C6  UNL     1      26.810   0.877  52.384  1.00  0.00    -0.030 A 
HETATM    8  C7  UNL     1      27.923   1.450  53.010  1.00  0.00     0.009 A 
HETATM    9  C8  UNL     1      28.957   0.728  53.600  1.00  0.00     0.001 A 
HETATM   10  C9  UNL     1      28.841  -0.651  53.545  1.00  0.00     0.000 A 
HETATM   11  C10 UNL     1      27.766  -1.273  52.942  1.00  0.00     0.001 A 
HETATM   12  C11 UNL     1      26.763  -0.513  52.368  1.00  0.00     0.009 A 
ENDBRANCH   6   7
ENDBRANCH   1   6
BRANCH   1  13
HETATM   13  C12 UNL     1      23.461   1.178  51.894  1.00  0.00     0.314 C 
BRANCH  13  14
HETATM   14  C13 UNL     1      22.569   0.325  52.701  1.00  0.00     0.005 A 
HETATM   15  C14 UNL     1      23.228  -0.298  53.768  1.00  0.00     0.012 A 
HETATM   16  C15 UNL     1      22.598  -1.105  54.671  1.00  0.00     0.002 A 
HETATM   17  C16 UNL     1      21.247  -1.327  54.543  1.00  0.00     0.026 A 
HETATM   18  C17 UNL     1      20.572  -0.727  53.502  1.00  0.00     0.067 A 
HETATM   19 CL1  UNL     1      18.850  -0.973  53.288  1.00  0.00    -0.081 Cl
HETATM   20  C18 UNL     1      21.220   0.085  52.596  1.00  0.00     0.095 A 
BRANCH  20  21
HETATM   21  O1  UNL     1      20.555   0.688  51.543  1.00  0.00    -0.358 OA
HETATM   22  H22 UNL     1      20.049   0.042  50.928  1.00  0.00     0.217 HD
ENDBRANCH  20  21
ENDBRANCH  13  14
ENDBRANCH   1  13
TORSDOF 8
ENDMDL
MODEL 8
REMARK VINA RESULT:      -6.6      3.368      6.233
REMARK  8 active torsions:
REMARK  status: ('A' for Active; 'I' for Inactive)
REMARK    1  A    between atoms: C2_2  and  C3_3 
REMARK    2  A    between atoms: C3_3  and  C4_4 
REMARK    3  A    between atoms: C4_4  and  N1_5 
REMARK    4  A    between atoms: N1_5  and  C5_6 
REMARK    5  A    between atoms: N1_5  and  C12_13 
REMARK    6  A    between atoms: C5_6  and  C6_7 
REMARK    7  A    between atoms: C12_13  and  C13_14 
REMARK    8  A    between atoms: C18_20  and  O1_21 
ROOT
HETATM    1  N1  UNL     1      23.848   3.249  51.299  1.00  0.00     0.096 N 
ENDROOT
BRANCH   1   2
HETATM    2  C4  UNL     1      22.668   2.528  51.019  1.00  0.00     0.273 C 
BRANCH   2   3
HETATM    3  C3  UNL     1      21.578   2.694  52.058  1.00  0.00     0.030 C 
BRANCH   3   4
HETATM    4  C2  UNL     1      20.940   1.359  52.306  1.00  0.00    -0.003 C 
HETATM    5  C1  UNL     1      21.591   0.309  51.431  1.00  0.00     0.005 C 
ENDBRANCH   3   4
ENDBRANCH   2   3
ENDBRANCH   1   2
BRANCH   1   6
HETATM    6  C5  UNL     1      24.322   2.884  52.633  1.00  0.00     0.311 C 
BRANCH   6   7
HETATM    7  C6  UNL     1      25.022   1.578  52.664  1.00  0.00    -0.030 A 
HETATM    8  C7  UNL     1      24.592   0.549  53.510  1.00  0.00     0.009 A 
HETATM    9  C8  UNL     1      25.193  -0.702  53.602  1.00  0.00     0.001 A 
HETATM   10  C9  UNL     1      26.292  -0.908  52.783  1.00  0.00     0.000 A 
HETATM   11  C10 UNL     1      26.762   0.068  51.928  1.00  0.00     0.001 A 
HETATM   12  C11 UNL     1      26.131   1.298  51.872  1.00  0.00     0.009 A 
ENDBRANCH   6   7
ENDBRANCH   1   6
BRANCH   1  13
HETATM   13  C12 UNL     1      23.628   4.669  51.252  1.00  0.00     0.314 C 
BRANCH  13  14
HETATM   14  C13 UNL     1      24.670   5.470  50.582  1.00  0.00     0.005 A 
HETATM   15  C14 UNL     1      25.428   4.725  49.670  1.00  0.00     0.012 A 
HETATM   16  C15 UNL     1      26.424   5.263  48.906  1.00  0.00     0.002 A 
HETATM   17  C16 UNL     1      26.710   6.602  49.024  1.00  0.00     0.026 A 
HETATM   18  C17 UNL     1      25.981   7.360  49.914  1.00  0.00     0.067 A 
HETATM   19 CL1  UNL     1      26.299   9.073  50.107  1.00  0.00    -0.081 Cl
HETATM   20  C18 UNL     1      24.978   6.805  50.681  1.00  0.00     0.095 A 
BRANCH  20  21
HETATM   21  O1  UNL     1      24.242   7.554  51.582  1.00  0.00    -0.358 OA
HETATM   22  H22 UNL     1      23.226   7.510  51.448  1.00  0.00     0.217 HD
ENDBRANCH  20  21
ENDBRANCH  13  14
ENDBRANCH   1  13
TORSDOF 8
ENDMDL
MODEL 9
REMARK VINA RESULT:      -6.5      3.243      6.518
REMARK  8 active torsions:
REMARK  status: ('A' for Active; 'I' for Inactive)
REMARK    1  A    between atoms: C2_2  and  C3_3 
REMARK    2  A    between atoms: C3_3  and  C4_4 
REMARK    3  A    between atoms: C4_4  and  N1_5 
REMARK    4  A    between atoms: N1_5  and  C5_6 
REMARK    5  A    between atoms: N1_5  and  C12_13 
REMARK    6  A    between atoms: C5_6  and  C6_7 
REMARK    7  A    between atoms: C12_13  and  C13_14 
REMARK    8  A    between atoms: C18_20  and  O1_21 
ROOT
HETATM    1  N1  UNL     1      22.946   1.165  52.082  1.00  0.00     0.096 N 
ENDROOT
BRANCH   1   2
HETATM    2  C4  UNL     1      21.979   0.182  52.377  1.00  0.00     0.273 C 
BRANCH   2   3
HETATM    3  C3  UNL     1      21.475   0.215  53.805  1.00  0.00     0.030 C 
BRANCH   3   4
HETATM    4  C2  UNL     1      21.457  -1.185  54.343  1.00  0.00    -0.003 C 
HETATM    5  C1  UNL     1      22.702  -1.434  55.169  1.00  0.00     0.005 C 
ENDBRANCH   3   4
ENDBRANCH   2   3
ENDBRANCH   1   2
BRANCH   1   6
HETATM    6  C5  UNL     1      23.723   1.444  53.288  1.00  0.00     0.311 C 
BRANCH   6   7
HETATM    7  C6  UNL     1      25.152   1.069  53.160  1.00  0.00    -0.030 A 
HETATM    8  C7  UNL     1      26.163   2.025  53.302  1.00  0.00     0.009 A 
HETATM    9  C8  UNL     1      27.524   1.758  53.194  1.00  0.00     0.001 A 
HETATM   10  C9  UNL     1      27.864   0.442  52.927  1.00  0.00     0.000 A 
HETATM   11  C10 UNL     1      26.910  -0.545  52.777  1.00  0.00     0.001 A 
HETATM   12  C11 UNL     1      25.569  -0.231  52.893  1.00  0.00     0.009 A 
ENDBRANCH   6   7
ENDBRANCH   1   6
BRANCH   1  13
HETATM   13  C12 UNL     1      22.341   2.386  51.621  1.00  0.00     0.314 C 
BRANCH  13  14
HETATM   14  C13 UNL     1      23.260   3.415  51.100  1.00  0.00     0.005 A 
HETATM   15  C14 UNL     1      24.136   2.920  50.125  1.00  0.00     0.012 A 
HETATM   16  C15 UNL     1      25.051   3.698  49.475  1.00  0.00     0.002 A 
HETATM   17  C16 UNL     1      25.129   5.036  49.777  1.00  0.00     0.026 A 
HETATM   18  C17 UNL     1      24.279   5.551  50.732  1.00  0.00     0.067 A 
HETATM   19 CL1  UNL     1      24.331   7.250  51.160  1.00  0.00    -0.081 Cl
HETATM   20  C18 UNL     1      23.360   4.755  51.384  1.00  0.00     0.095 A 
BRANCH  20  21
HETATM   21  O1  UNL     1      22.505   5.259  52.348  1.00  0.00    -0.358 OA
HETATM   22  H22 UNL     1      21.513   5.251  52.088  1.00  0.00     0.217 HD
ENDBRANCH  20  21
ENDBRANCH  13  14
ENDBRANCH   1  13
TORSDOF 8
ENDMDL
