MODEL 1
REMARK VINA RESULT:      -7.5      0.000      0.000
REMARK  10 active torsions:
REMARK  status: ('A' for Active; 'I' for Inactive)
REMARK    1  A    between atoms: S1_2  and  C2_3 
REMARK    2  A    between atoms: C2_3  and  C3_4 
REMARK    3  A    between atoms: C5_6  and  C6_7 
REMARK    4  A    between atoms: C7_8  and  C8_9 
REMARK    5  A    between atoms: C8_9  and  N1_10 
REMARK    6  A    between atoms: N1_10  and  N2_11 
REMARK    7  A    between atoms: C13_16  and  O1_17 
REMARK    8  A    between atoms: C15_19  and  C16_20 
REMARK    9  A    between atoms: C16_20  and  S2_21 
REMARK   10  A    between atoms: C18_23  and  O2_24 
ROOT
HETATM    1  C3  UNL     1      27.293   0.384  53.760  1.00  0.00    -0.014 A 
HETATM    2  C4  UNL     1      27.435   1.216  52.668  1.00  0.00     0.022 A 
HETATM    3  C5  UNL     1      26.317   1.491  51.910  1.00  0.00    -0.035 A 
HETATM    4  C14 UNL     1      25.062   0.991  52.166  1.00  0.00     0.022 A 
HETATM    5  C15 UNL     1      24.943   0.163  53.261  1.00  0.00    -0.014 A 
HETATM    6  C18 UNL     1      26.034  -0.138  54.046  1.00  0.00     0.079 A 
ENDROOT
BRANCH   3   7
HETATM    7  C6  UNL     1      26.464   2.370  50.760  1.00  0.00     0.008 C 
HETATM    8  C7  UNL     1      26.103   3.625  50.555  1.00  0.00    -0.010 C 
BRANCH   8   9
HETATM    9  C8  UNL     1      26.277   4.489  49.351  1.00  0.00     0.138 C 
BRANCH   9  10
HETATM   10  N1  UNL     1      27.652   4.476  48.955  1.00  0.00    -0.233 NA
HETATM   11  H11 UNL     1      28.317   4.135  49.658  1.00  0.00     0.147 HD
BRANCH  10  12
HETATM   12  N2  UNL     1      28.047   5.693  48.358  1.00  0.00    -0.292 N 
HETATM   13  C9  UNL     1      27.103   6.708  48.046  1.00  0.00     0.107 A 
HETATM   14  C10 UNL     1      27.493   7.844  47.486  1.00  0.00     0.018 A 
HETATM   15  C11 UNL     1      28.893   8.051  47.192  1.00  0.00     0.002 A 
HETATM   16  C12 UNL     1      29.803   7.122  47.472  1.00  0.00     0.027 A 
HETATM   17  C13 UNL     1      29.465   5.819  48.098  1.00  0.00     0.259 A 
BRANCH  17  18
HETATM   18  O1  UNL     1      30.219   5.696  49.254  1.00  0.00    -0.372 OA
HETATM   19  H17 UNL     1      30.197   6.594  49.706  1.00  0.00     0.212 HD
ENDBRANCH  17  18
ENDBRANCH  10  12
ENDBRANCH   9  10
ENDBRANCH   8   9
ENDBRANCH   3   7
BRANCH   1  20
HETATM   20  C2  UNL     1      28.355  -0.026  54.689  1.00  0.00     0.114 C 
BRANCH  20  21
HETATM   21  S1  UNL     1      29.732  -0.857  53.864  1.00  0.00    -0.169 SA
HETATM   22  C1  UNL     1      29.111  -2.413  53.167  1.00  0.00     0.090 C 
ENDBRANCH  20  21
ENDBRANCH   1  20
BRANCH   5  23
HETATM   23  C16 UNL     1      23.607  -0.414  53.586  1.00  0.00     0.114 C 
BRANCH  23  24
HETATM   24  S2  UNL     1      22.282   0.771  53.185  1.00  0.00    -0.169 SA
HETATM   25  C17 UNL     1      21.259   0.158  51.839  1.00  0.00     0.090 C 
ENDBRANCH  23  24
ENDBRANCH   5  23
BRANCH   6  26
HETATM   26  O2  UNL     1      25.813  -0.993  55.143  1.00  0.00    -0.360 OA
HETATM   27  H24 UNL     1      24.875  -1.314  55.344  1.00  0.00     0.217 HD
ENDBRANCH   6  26
TORSDOF 10
ENDMDL
MODEL 2
REMARK VINA RESULT:      -7.5      0.482      3.758
REMARK  10 active torsions:
REMARK  status: ('A' for Active; 'I' for Inactive)
REMARK    1  A    between atoms: S1_2  and  C2_3 
REMARK    2  A    between atoms: C2_3  and  C3_4 
REMARK    3  A    between atoms: C5_6  and  C6_7 
REMARK    4  A    between atoms: C7_8  and  C8_9 
REMARK    5  A    between atoms: C8_9  and  N1_10 
REMARK    6  A    between atoms: N1_10  and  N2_11 
REMARK    7  A    between atoms: C13_16  and  O1_17 
REMARK    8  A    between atoms: C15_19  and  C16_20 
REMARK    9  A    between atoms: C16_20  and  S2_21 
REMARK   10  A    between atoms: C18_23  and  O2_24 
ROOT
HETATM    1  C3  UNL     1      24.801   0.333  53.251  1.00  0.00    -0.014 A 
HETATM    2  C4  UNL     1      25.053   1.293  52.290  1.00  0.00     0.022 A 
HETATM    3  C5  UNL     1      26.337   1.784  52.182  1.00  0.00    -0.035 A 
HETATM    4  C14 UNL     1      27.391   1.384  52.970  1.00  0.00     0.022 A 
HETATM    5  C15 UNL     1      27.117   0.425  53.921  1.00  0.00    -0.014 A 
HETATM    6  C18 UNL     1      25.848  -0.093  54.063  1.00  0.00     0.079 A 
ENDROOT
BRANCH   3   7
HETATM    7  C6  UNL     1      26.606   2.793  51.170  1.00  0.00     0.008 C 
HETATM    8  C7  UNL     1      25.810   3.448  50.342  1.00  0.00    -0.010 C 
BRANCH   8   9
HETATM    9  C8  UNL     1      26.135   4.481  49.315  1.00  0.00     0.138 C 
BRANCH   9  10
HETATM   10  N1  UNL     1      27.551   4.512  49.107  1.00  0.00    -0.233 NA
HETATM   11  H11 UNL     1      28.128   4.296  49.927  1.00  0.00     0.147 HD
BRANCH  10  12
HETATM   12  N2  UNL     1      27.965   5.676  48.425  1.00  0.00    -0.292 N 
HETATM   13  C9  UNL     1      27.048   6.710  48.095  1.00  0.00     0.107 A 
HETATM   14  C10 UNL     1      27.456   7.796  47.455  1.00  0.00     0.018 A 
HETATM   15  C11 UNL     1      28.848   7.928  47.090  1.00  0.00     0.002 A 
HETATM   16  C12 UNL     1      29.733   6.981  47.385  1.00  0.00     0.027 A 
HETATM   17  C13 UNL     1      29.374   5.729  48.099  1.00  0.00     0.259 A 
BRANCH  17  18
HETATM   18  O1  UNL     1      30.173   5.641  49.228  1.00  0.00    -0.372 OA
HETATM   19  H17 UNL     1      30.318   6.583  49.550  1.00  0.00     0.212 HD
ENDBRANCH  17  18
ENDBRANCH  10  12
ENDBRANCH   9  10
ENDBRANCH   8   9
ENDBRANCH   3   7
BRANCH   1  20
HETATM   20  C2  UNL     1      23.509  -0.312  53.520  1.00  0.00     0.114 C 
BRANCH  20  21
HETATM   21  S1  UNL     1      22.161   0.363  52.525  1.00  0.00    -0.169 SA
HETATM   22  C1  UNL     1      20.722   0.585  53.607  1.00  0.00     0.090 C 
ENDBRANCH  20  21
ENDBRANCH   1  20
BRANCH   5  23
HETATM   23  C16 UNL     1      28.219  -0.046  54.809  1.00  0.00     0.114 C 
BRANCH  23  24
HETATM   24  S2  UNL     1      29.571  -0.768  53.823  1.00  0.00    -0.169 SA
HETATM   25  C17 UNL     1      29.127  -2.406  53.227  1.00  0.00     0.090 C 
ENDBRANCH  23  24
ENDBRANCH   5  23
BRANCH   6  26
HETATM   26  O2  UNL     1      25.666  -1.068  55.062  1.00  0.00    -0.360 OA
HETATM   27  H24 UNL     1      26.420  -1.267  55.709  1.00  0.00     0.217 HD
ENDBRANCH   6  26
TORSDOF 10
ENDMDL
MODEL 3
REMARK VINA RESULT:      -7.3      4.558      8.829
REMARK  10 active torsions:
REMARK  status: ('A' for Active; 'I' for Inactive)
REMARK    1  A    between atoms: S1_2  and  C2_3 
REMARK    2  A    between atoms: C2_3  and  C3_4 
REMARK    3  A    between atoms: C5_6  and  C6_7 
REMARK    4  A    between atoms: C7_8  and  C8_9 
REMARK    5  A    between atoms: C8_9  and  N1_10 
REMARK    6  A    between atoms: N1_10  and  N2_11 
REMARK    7  A    between atoms: C13_16  and  O1_17 
REMARK    8  A    between atoms: C15_19  and  C16_20 
REMARK    9  A    between atoms: C16_20  and  S2_21 
REMARK   10  A    between atoms: C18_23  and  O2_24 
ROOT
HETATM    1  C3  UNL     1      26.196   1.802  51.955  1.00  0.00    -0.014 A 
HETATM    2  C4  UNL     1      25.024   1.086  52.101  1.00  0.00     0.022 A 
HETATM    3  C5  UNL     1      24.976   0.108  53.072  1.00  0.00    -0.035 A 
HETATM    4  C14 UNL     1      26.020  -0.208  53.910  1.00  0.00     0.022 A 
HETATM    5  C15 UNL     1      27.179   0.520  53.747  1.00  0.00    -0.014 A 
HETATM    6  C18 UNL     1      27.270   1.506  52.789  1.00  0.00     0.079 A 
ENDROOT
BRANCH   3   7
HETATM    7  C6  UNL     1      23.743  -0.647  53.229  1.00  0.00     0.008 C 
HETATM    8  C7  UNL     1      22.856  -0.696  54.208  1.00  0.00    -0.010 C 
BRANCH   8   9
HETATM    9  C8  UNL     1      21.598  -1.491  54.323  1.00  0.00     0.138 C 
BRANCH   9  10
HETATM   10  N1  UNL     1      20.500  -0.605  54.563  1.00  0.00    -0.233 NA
HETATM   11  H11 UNL     1      19.980  -0.763  55.433  1.00  0.00     0.147 HD
BRANCH  10  12
HETATM   12  N2  UNL     1      19.667  -0.469  53.432  1.00  0.00    -0.292 N 
HETATM   13  C9  UNL     1      20.112   0.195  52.257  1.00  0.00     0.107 A 
HETATM   14  C10 UNL     1      19.314   0.313  51.205  1.00  0.00     0.018 A 
HETATM   15  C11 UNL     1      17.980  -0.241  51.255  1.00  0.00     0.002 A 
HETATM   16  C12 UNL     1      17.533  -0.869  52.338  1.00  0.00     0.027 A 
HETATM   17  C13 UNL     1      18.349  -1.051  53.566  1.00  0.00     0.259 A 
BRANCH  17  18
HETATM   18  O1  UNL     1      18.405  -2.409  53.839  1.00  0.00    -0.372 OA
HETATM   19  H17 UNL     1      18.874  -2.503  54.724  1.00  0.00     0.212 HD
ENDBRANCH  17  18
ENDBRANCH  10  12
ENDBRANCH   9  10
ENDBRANCH   8   9
ENDBRANCH   3   7
BRANCH   1  20
HETATM   20  C2  UNL     1      26.445   2.879  50.988  1.00  0.00     0.114 C 
BRANCH  20  21
HETATM   21  S1  UNL     1      24.953   3.397  50.109  1.00  0.00    -0.169 SA
HETATM   22  C1  UNL     1      24.074   4.593  51.153  1.00  0.00     0.090 C 
ENDBRANCH  20  21
ENDBRANCH   1  20
BRANCH   5  23
HETATM   23  C16 UNL     1      28.348   0.220  54.624  1.00  0.00     0.114 C 
BRANCH  23  24
HETATM   24  S2  UNL     1      29.613  -0.718  53.706  1.00  0.00    -0.169 SA
HETATM   25  C17 UNL     1      28.990  -2.336  53.226  1.00  0.00     0.090 C 
ENDBRANCH  23  24
ENDBRANCH   5  23
BRANCH   6  26
HETATM   26  O2  UNL     1      28.495   2.195  52.699  1.00  0.00    -0.360 OA
HETATM   27  H24 UNL     1      28.583   3.113  53.116  1.00  0.00     0.217 HD
ENDBRANCH   6  26
TORSDOF 10
ENDMDL
MODEL 4
REMARK VINA RESULT:      -7.1      2.515      3.151
REMARK  10 active torsions:
REMARK  status: ('A' for Active; 'I' for Inactive)
REMARK    1  A    between atoms: S1_2  and  C2_3 
REMARK    2  A    between atoms: C2_3  and  C3_4 
REMARK    3  A    between atoms: C5_6  and  C6_7 
REMARK    4  A    between atoms: C7_8  and  C8_9 
REMARK    5  A    between atoms: C8_9  and  N1_10 
REMARK    6  A    between atoms: N1_10  and  N2_11 
REMARK    7  A    between atoms: C13_16  and  O1_17 
REMARK    8  A    between atoms: C15_19  and  C16_20 
REMARK    9  A    between atoms: C16_20  and  S2_21 
REMARK   10  A    between atoms: C18_23  and  O2_24 
ROOT
HETATM    1  C3  UNL     1      26.478   0.580  53.968  1.00  0.00    -0.014 A 
HETATM    2  C4  UNL     1      26.533   1.577  53.014  1.00  0.00     0.022 A 
HETATM    3  C5  UNL     1      25.426   1.777  52.217  1.00  0.00    -0.035 A 
HETATM    4  C14 UNL     1      24.264   1.047  52.305  1.00  0.00     0.022 A 
HETATM    5  C15 UNL     1      24.230   0.058  53.264  1.00  0.00    -0.014 A 
HETATM    6  C18 UNL     1      25.314  -0.175  54.082  1.00  0.00     0.079 A 
ENDROOT
BRANCH   3   7
HETATM    7  C6  UNL     1      25.481   2.828  51.213  1.00  0.00     0.008 C 
HETATM    8  C7  UNL     1      26.468   3.278  50.458  1.00  0.00    -0.010 C 
BRANCH   8   9
HETATM    9  C8  UNL     1      26.475   4.366  49.437  1.00  0.00     0.138 C 
BRANCH   9  10
HETATM   10  N1  UNL     1      26.290   5.627  50.088  1.00  0.00    -0.233 NA
HETATM   11  H11 UNL     1      26.561   5.664  51.076  1.00  0.00     0.147 HD
BRANCH  10  12
HETATM   12  N2  UNL     1      25.013   6.174  49.839  1.00  0.00    -0.292 N 
HETATM   13  C9  UNL     1      24.232   5.761  48.727  1.00  0.00     0.107 A 
HETATM   14  C10 UNL     1      23.034   6.287  48.510  1.00  0.00     0.018 A 
HETATM   15  C11 UNL     1      22.520   7.288  49.416  1.00  0.00     0.002 A 
HETATM   16  C12 UNL     1      23.224   7.696  50.467  1.00  0.00     0.027 A 
HETATM   17  C13 UNL     1      24.573   7.169  50.794  1.00  0.00     0.259 A 
BRANCH  17  18
HETATM   18  O1  UNL     1      24.531   6.667  52.085  1.00  0.00    -0.372 OA
HETATM   19  H17 UNL     1      24.092   7.372  52.652  1.00  0.00     0.212 HD
ENDBRANCH  17  18
ENDBRANCH  10  12
ENDBRANCH   9  10
ENDBRANCH   8   9
ENDBRANCH   3   7
BRANCH   1  20
HETATM   20  C2  UNL     1      27.544   0.215  54.911  1.00  0.00     0.114 C 
BRANCH  20  21
HETATM   21  S1  UNL     1      29.176   0.148  54.139  1.00  0.00    -0.169 SA
HETATM   22  C1  UNL     1      29.370  -1.487  53.376  1.00  0.00     0.090 C 
ENDBRANCH  20  21
ENDBRANCH   1  20
BRANCH   5  23
HETATM   23  C16 UNL     1      22.998  -0.769  53.403  1.00  0.00     0.114 C 
BRANCH  23  24
HETATM   24  S2  UNL     1      21.540   0.147  52.804  1.00  0.00    -0.169 SA
HETATM   25  C17 UNL     1      20.032  -0.484  53.556  1.00  0.00     0.090 C 
ENDBRANCH  23  24
ENDBRANCH   5  23
BRANCH   6  26
HETATM   26  O2  UNL     1      25.185  -1.207  55.031  1.00  0.00    -0.360 OA
HETATM   27  H24 UNL     1      25.312  -0.999  56.014  1.00  0.00     0.217 HD
ENDBRANCH   6  26
TORSDOF 10
ENDMDL
MODEL 5
REMARK VINA RESULT:      -7.1      3.695      8.829
REMARK  10 active torsions:
REMARK  status: ('A' for Active; 'I' for Inactive)
REMARK    1  A    between atoms: S1_2  and  C2_3 
REMARK    2  A    between atoms: C2_3  and  C3_4 
REMARK    3  A    between atoms: C5_6  and  C6_7 
REMARK    4  A    between atoms: C7_8  and  C8_9 
REMARK    5  A    between atoms: C8_9  and  N1_10 
REMARK    6  A    between atoms: N1_10  and  N2_11 
REMARK    7  A    between atoms: C13_16  and  O1_17 
REMARK    8  A    between atoms: C15_19  and  C16_20 
REMARK    9  A    between atoms: C16_20  and  S2_21 
REMARK   10  A    between atoms: C18_23  and  O2_24 
ROOT
HETATM    1  C3  UNL     1      26.007   7.039  48.131  1.00  0.00    -0.014 A 
HETATM    2  C4  UNL     1      25.810   5.834  48.777  1.00  0.00     0.022 A 
HETATM    3  C5  UNL     1      26.898   5.009  48.962  1.00  0.00    -0.035 A 
HETATM    4  C14 UNL     1      28.176   5.302  48.545  1.00  0.00     0.022 A 
HETATM    5  C15 UNL     1      28.350   6.509  47.903  1.00  0.00    -0.014 A 
HETATM    6  C18 UNL     1      27.290   7.364  47.698  1.00  0.00     0.079 A 
ENDROOT
BRANCH   3   7
HETATM    7  C6  UNL     1      26.693   3.741  49.644  1.00  0.00     0.008 C 
HETATM    8  C7  UNL     1      25.999   3.419  50.722  1.00  0.00    -0.010 C 
BRANCH   8   9
HETATM    9  C8  UNL     1      25.818   2.096  51.387  1.00  0.00     0.138 C 
BRANCH   9  10
HETATM   10  N1  UNL     1      26.219   2.197  52.757  1.00  0.00    -0.233 NA
HETATM   11  H11 UNL     1      26.385   3.147  53.106  1.00  0.00     0.147 HD
BRANCH  10  12
HETATM   12  N2  UNL     1      27.258   1.296  53.078  1.00  0.00    -0.292 N 
HETATM   13  C9  UNL     1      27.144  -0.094  52.810  1.00  0.00     0.107 A 
HETATM   14  C10 UNL     1      28.130  -0.924  53.118  1.00  0.00     0.018 A 
HETATM   15  C11 UNL     1      29.332  -0.407  53.731  1.00  0.00     0.002 A 
HETATM   16  C12 UNL     1      29.472   0.888  53.994  1.00  0.00     0.027 A 
HETATM   17  C13 UNL     1      28.425   1.896  53.687  1.00  0.00     0.259 A 
BRANCH  17  18
HETATM   18  O1  UNL     1      28.994   2.866  52.877  1.00  0.00    -0.372 OA
HETATM   19  H17 UNL     1      28.260   3.514  52.648  1.00  0.00     0.212 HD
ENDBRANCH  17  18
ENDBRANCH  10  12
ENDBRANCH   9  10
ENDBRANCH   8   9
ENDBRANCH   3   7
BRANCH   1  20
HETATM   20  C2  UNL     1      24.983   8.051  47.841  1.00  0.00     0.114 C 
BRANCH  20  21
HETATM   21  S1  UNL     1      24.013   8.510  49.295  1.00  0.00    -0.169 SA
HETATM   22  C1  UNL     1      22.473   7.551  49.268  1.00  0.00     0.090 C 
ENDBRANCH  20  21
ENDBRANCH   1  20
BRANCH   5  23
HETATM   23  C16 UNL     1      29.712   6.880  47.424  1.00  0.00     0.114 C 
BRANCH  23  24
HETATM   24  S2  UNL     1      30.924   5.598  47.882  1.00  0.00    -0.169 SA
HETATM   25  C17 UNL     1      31.817   6.063  49.373  1.00  0.00     0.090 C 
ENDBRANCH  23  24
ENDBRANCH   5  23
BRANCH   6  26
HETATM   26  O2  UNL     1      27.567   8.574  47.033  1.00  0.00    -0.360 OA
HETATM   27  H24 UNL     1      27.148   8.754  46.129  1.00  0.00     0.217 HD
ENDBRANCH   6  26
TORSDOF 10
ENDMDL
MODEL 6
REMARK VINA RESULT:      -7.1      2.190      2.915
REMARK  10 active torsions:
REMARK  status: ('A' for Active; 'I' for Inactive)
REMARK    1  A    between atoms: S1_2  and  C2_3 
REMARK    2  A    between atoms: C2_3  and  C3_4 
REMARK    3  A    between atoms: C5_6  and  C6_7 
REMARK    4  A    between atoms: C7_8  and  C8_9 
REMARK    5  A    between atoms: C8_9  and  N1_10 
REMARK    6  A    between atoms: N1_10  and  N2_11 
REMARK    7  A    between atoms: C13_16  and  O1_17 
REMARK    8  A    between atoms: C15_19  and  C16_20 
REMARK    9  A    between atoms: C16_20  and  S2_21 
REMARK   10  A    between atoms: C18_23  and  O2_24 
ROOT
HETATM    1  C3  UNL     1      25.490   1.002  52.046  1.00  0.00    -0.014 A 
HETATM    2  C4  UNL     1      26.393   1.799  51.370  1.00  0.00     0.022 A 
HETATM    3  C5  UNL     1      25.898   2.803  50.565  1.00  0.00    -0.035 A 
HETATM    4  C14 UNL     1      24.561   3.067  50.384  1.00  0.00     0.022 A 
HETATM    5  C15 UNL     1      23.678   2.259  51.068  1.00  0.00    -0.014 A 
HETATM    6  C18 UNL     1      24.129   1.244  51.884  1.00  0.00     0.079 A 
ENDROOT
BRANCH   3   7
HETATM    7  C6  UNL     1      26.847   3.646  49.854  1.00  0.00     0.008 C 
HETATM    8  C7  UNL     1      26.691   4.756  49.154  1.00  0.00    -0.010 C 
BRANCH   8   9
HETATM    9  C8  UNL     1      27.702   5.590  48.440  1.00  0.00     0.138 C 
BRANCH   9  10
HETATM   10  N1  UNL     1      29.014   5.209  48.864  1.00  0.00    -0.233 NA
HETATM   11  H11 UNL     1      29.066   4.695  49.751  1.00  0.00     0.147 HD
BRANCH  10  12
HETATM   12  N2  UNL     1      29.933   6.278  48.785  1.00  0.00    -0.292 N 
HETATM   13  C9  UNL     1      29.525   7.579  48.384  1.00  0.00     0.107 A 
HETATM   14  C10 UNL     1      30.402   8.570  48.316  1.00  0.00     0.018 A 
HETATM   15  C11 UNL     1      31.786   8.323  48.653  1.00  0.00     0.002 A 
HETATM   16  C12 UNL     1      32.200   7.118  49.033  1.00  0.00     0.027 A 
HETATM   17  C13 UNL     1      31.295   5.945  49.140  1.00  0.00     0.259 A 
BRANCH  17  18
HETATM   18  O1  UNL     1      31.391   5.453  50.432  1.00  0.00    -0.372 OA
HETATM   19  H17 UNL     1      30.523   4.981  50.623  1.00  0.00     0.212 HD
ENDBRANCH  17  18
ENDBRANCH  10  12
ENDBRANCH   9  10
ENDBRANCH   8   9
ENDBRANCH   3   7
BRANCH   1  20
HETATM   20  C2  UNL     1      25.815  -0.111  52.948  1.00  0.00     0.114 C 
BRANCH  20  21
HETATM   21  S1  UNL     1      26.531   0.436  54.514  1.00  0.00    -0.169 SA
HETATM   22  C1  UNL     1      28.309   0.075  54.475  1.00  0.00     0.090 C 
ENDBRANCH  20  21
ENDBRANCH   1  20
BRANCH   5  23
HETATM   23  C16 UNL     1      22.214   2.494  50.908  1.00  0.00     0.114 C 
BRANCH  23  24
HETATM   24  S2  UNL     1      21.641   3.776  52.070  1.00  0.00    -0.169 SA
HETATM   25  C17 UNL     1      21.699   5.404  51.307  1.00  0.00     0.090 C 
ENDBRANCH  23  24
ENDBRANCH   5  23
BRANCH   6  26
HETATM   26  O2  UNL     1      23.152   0.473  52.541  1.00  0.00    -0.360 OA
HETATM   27  H24 UNL     1      22.375   0.096  52.012  1.00  0.00     0.217 HD
ENDBRANCH   6  26
TORSDOF 10
ENDMDL
MODEL 7
REMARK VINA RESULT:      -7.1      3.792      8.300
REMARK  10 active torsions:
REMARK  status: ('A' for Active; 'I' for Inactive)
REMARK    1  A    between atoms: S1_2  and  C2_3 
REMARK    2  A    between atoms: C2_3  and  C3_4 
REMARK    3  A    between atoms: C5_6  and  C6_7 
REMARK    4  A    between atoms: C7_8  and  C8_9 
REMARK    5  A    between atoms: C8_9  and  N1_10 
REMARK    6  A    between atoms: N1_10  and  N2_11 
REMARK    7  A    between atoms: C13_16  and  O1_17 
REMARK    8  A    between atoms: C15_19  and  C16_20 
REMARK    9  A    between atoms: C16_20  and  S2_21 
REMARK   10  A    between atoms: C18_23  and  O2_24 
ROOT
HETATM    1  C3  UNL     1      28.815   6.624  47.813  1.00  0.00    -0.014 A 
HETATM    2  C4  UNL     1      28.486   5.416  48.396  1.00  0.00     0.022 A 
HETATM    3  C5  UNL     1      27.165   5.186  48.714  1.00  0.00    -0.035 A 
HETATM    4  C14 UNL     1      26.144   6.080  48.490  1.00  0.00     0.022 A 
HETATM    5  C15 UNL     1      26.495   7.278  47.907  1.00  0.00    -0.014 A 
HETATM    6  C18 UNL     1      27.804   7.550  47.573  1.00  0.00     0.079 A 
ENDROOT
BRANCH   3   7
HETATM    7  C6  UNL     1      26.815   3.913  49.326  1.00  0.00     0.008 C 
HETATM    8  C7  UNL     1      26.449   3.595  50.555  1.00  0.00    -0.010 C 
BRANCH   8   9
HETATM    9  C8  UNL     1      26.099   2.267  51.139  1.00  0.00     0.138 C 
BRANCH   9  10
HETATM   10  N1  UNL     1      26.310   2.302  52.554  1.00  0.00    -0.233 NA
HETATM   11  H11 UNL     1      26.439   3.233  52.964  1.00  0.00     0.147 HD
BRANCH  10  12
HETATM   12  N2  UNL     1      27.282   1.368  52.972  1.00  0.00    -0.292 N 
HETATM   13  C9  UNL     1      27.143  -0.020  52.704  1.00  0.00     0.107 A 
HETATM   14  C10 UNL     1      28.067  -0.882  53.105  1.00  0.00     0.018 A 
HETATM   15  C11 UNL     1      29.227  -0.401  53.821  1.00  0.00     0.002 A 
HETATM   16  C12 UNL     1      29.389   0.891  54.087  1.00  0.00     0.027 A 
HETATM   17  C13 UNL     1      28.411   1.932  53.681  1.00  0.00     0.259 A 
BRANCH  17  18
HETATM   18  O1  UNL     1      29.085   2.874  52.920  1.00  0.00    -0.372 OA
HETATM   19  H17 UNL     1      28.727   3.772  53.194  1.00  0.00     0.212 HD
ENDBRANCH  17  18
ENDBRANCH  10  12
ENDBRANCH   9  10
ENDBRANCH   8   9
ENDBRANCH   3   7
BRANCH   1  20
HETATM   20  C2  UNL     1      30.158   7.056  47.401  1.00  0.00     0.114 C 
BRANCH  20  21
HETATM   21  S1  UNL     1      31.174   7.616  48.785  1.00  0.00    -0.169 SA
HETATM   22  C1  UNL     1      32.896   7.158  48.439  1.00  0.00     0.090 C 
ENDBRANCH  20  21
ENDBRANCH   1  20
BRANCH   5  23
HETATM   23  C16 UNL     1      25.432   8.290  47.643  1.00  0.00     0.114 C 
BRANCH  23  24
HETATM   24  S2  UNL     1      23.782   7.585  47.965  1.00  0.00    -0.169 SA
HETATM   25  C17 UNL     1      22.898   8.556  49.194  1.00  0.00     0.090 C 
ENDBRANCH  23  24
ENDBRANCH   5  23
BRANCH   6  26
HETATM   26  O2  UNL     1      28.064   8.801  46.982  1.00  0.00    -0.360 OA
HETATM   27  H24 UNL     1      27.948   9.645  47.528  1.00  0.00     0.217 HD
ENDBRANCH   6  26
TORSDOF 10
ENDMDL
MODEL 8
REMARK VINA RESULT:      -7.0      4.577      8.186
REMARK  10 active torsions:
REMARK  status: ('A' for Active; 'I' for Inactive)
REMARK    1  A    between atoms: S1_2  and  C2_3 
REMARK    2  A    between atoms: C2_3  and  C3_4 
REMARK    3  A    between atoms: C5_6  and  C6_7 
REMARK    4  A    between atoms: C7_8  and  C8_9 
REMARK    5  A    between atoms: C8_9  and  N1_10 
REMARK    6  A    between atoms: N1_10  and  N2_11 
REMARK    7  A    between atoms: C13_16  and  O1_17 
REMARK    8  A    between atoms: C15_19  and  C16_20 
REMARK    9  A    between atoms: C16_20  and  S2_21 
REMARK   10  A    between atoms: C18_23  and  O2_24 
ROOT
HETATM    1  C3  UNL     1      26.596   1.425  52.669  1.00  0.00    -0.014 A 
HETATM    2  C4  UNL     1      25.523   0.633  53.030  1.00  0.00     0.022 A 
HETATM    3  C5  UNL     1      24.325   0.825  52.376  1.00  0.00    -0.035 A 
HETATM    4  C14 UNL     1      24.121   1.756  51.384  1.00  0.00     0.022 A 
HETATM    5  C15 UNL     1      25.205   2.534  51.040  1.00  0.00    -0.014 A 
HETATM    6  C18 UNL     1      26.421   2.376  51.668  1.00  0.00     0.079 A 
ENDROOT
BRANCH   3   7
HETATM    7  C6  UNL     1      23.194  -0.009  52.751  1.00  0.00     0.008 C 
HETATM    8  C7  UNL     1      22.720  -0.377  53.929  1.00  0.00    -0.010 C 
BRANCH   8   9
HETATM    9  C8  UNL     1      21.549  -1.239  54.265  1.00  0.00     0.138 C 
BRANCH   9  10
HETATM   10  N1  UNL     1      20.411  -0.411  54.524  1.00  0.00    -0.233 NA
HETATM   11  H11 UNL     1      19.994  -0.503  55.457  1.00  0.00     0.147 HD
BRANCH  10  12
HETATM   12  N2  UNL     1      19.462  -0.466  53.481  1.00  0.00    -0.292 N 
HETATM   13  C9  UNL     1      18.298  -1.274  53.578  1.00  0.00     0.107 A 
HETATM   14  C10 UNL     1      17.418  -1.313  52.587  1.00  0.00     0.018 A 
HETATM   15  C11 UNL     1      17.646  -0.523  51.399  1.00  0.00     0.002 A 
HETATM   16  C12 UNL     1      18.724   0.245  51.276  1.00  0.00     0.027 A 
HETATM   17  C13 UNL     1      19.767   0.354  52.329  1.00  0.00     0.259 A 
BRANCH  17  18
HETATM   18  O1  UNL     1      19.893   1.694  52.663  1.00  0.00    -0.372 OA
HETATM   19  H17 UNL     1      19.336   1.836  53.488  1.00  0.00     0.212 HD
ENDBRANCH  17  18
ENDBRANCH  10  12
ENDBRANCH   9  10
ENDBRANCH   8   9
ENDBRANCH   3   7
BRANCH   1  20
HETATM   20  C2  UNL     1      27.948   1.374  53.242  1.00  0.00     0.114 C 
BRANCH  20  21
HETATM   21  S1  UNL     1      28.215  -0.069  54.296  1.00  0.00    -0.169 SA
HETATM   22  C1  UNL     1      29.712  -0.916  53.720  1.00  0.00     0.090 C 
ENDBRANCH  20  21
ENDBRANCH   1  20
BRANCH   5  23
HETATM   23  C16 UNL     1      25.044   3.564  49.974  1.00  0.00     0.114 C 
BRANCH  23  24
HETATM   24  S2  UNL     1      23.332   3.575  49.347  1.00  0.00    -0.169 SA
HETATM   25  C17 UNL     1      22.362   4.857  50.154  1.00  0.00     0.090 C 
ENDBRANCH  23  24
ENDBRANCH   5  23
BRANCH   6  26
HETATM   26  O2  UNL     1      27.469   3.217  51.248  1.00  0.00    -0.360 OA
HETATM   27  H24 UNL     1      27.653   4.075  51.753  1.00  0.00     0.217 HD
ENDBRANCH   6  26
TORSDOF 10
ENDMDL
MODEL 9
REMARK VINA RESULT:      -7.0      2.434      4.743
REMARK  10 active torsions:
REMARK  status: ('A' for Active; 'I' for Inactive)
REMARK    1  A    between atoms: S1_2  and  C2_3 
REMARK    2  A    between atoms: C2_3  and  C3_4 
REMARK    3  A    between atoms: C5_6  and  C6_7 
REMARK    4  A    between atoms: C7_8  and  C8_9 
REMARK    5  A    between atoms: C8_9  and  N1_10 
REMARK    6  A    between atoms: N1_10  and  N2_11 
REMARK    7  A    between atoms: C13_16  and  O1_17 
REMARK    8  A    between atoms: C15_19  and  C16_20 
REMARK    9  A    between atoms: C16_20  and  S2_21 
REMARK   10  A    between atoms: C18_23  and  O2_24 
ROOT
HETATM    1  C3  UNL     1      24.431   0.274  53.394  1.00  0.00    -0.014 A 
HETATM    2  C4  UNL     1      24.457   1.296  52.464  1.00  0.00     0.022 A 
HETATM    3  C5  UNL     1      25.639   1.983  52.287  1.00  0.00    -0.035 A 
HETATM    4  C14 UNL     1      26.801   1.722  52.974  1.00  0.00     0.022 A 
HETATM    5  C15 UNL     1      26.753   0.698  53.896  1.00  0.00    -0.014 A 
HETATM    6  C18 UNL     1      25.592  -0.015  54.105  1.00  0.00     0.079 A 
ENDROOT
BRANCH   3   7
HETATM    7  C6  UNL     1      25.670   3.057  51.307  1.00  0.00     0.008 C 
HETATM    8  C7  UNL     1      26.499   3.323  50.312  1.00  0.00    -0.010 C 
BRANCH   8   9
HETATM    9  C8  UNL     1      26.489   4.445  49.328  1.00  0.00     0.138 C 
BRANCH   9  10
HETATM   10  N1  UNL     1      26.329   5.684  50.026  1.00  0.00    -0.233 NA
HETATM   11  H11 UNL     1      26.565   5.669  51.024  1.00  0.00     0.147 HD
BRANCH  10  12
HETATM   12  N2  UNL     1      25.085   6.293  49.756  1.00  0.00    -0.292 N 
HETATM   13  C9  UNL     1      24.287   5.895  48.650  1.00  0.00     0.107 A 
HETATM   14  C10 UNL     1      23.121   6.479  48.413  1.00  0.00     0.018 A 
HETATM   15  C11 UNL     1      22.658   7.529  49.291  1.00  0.00     0.002 A 
HETATM   16  C12 UNL     1      23.378   7.925  50.336  1.00  0.00     0.027 A 
HETATM   17  C13 UNL     1      24.696   7.334  50.683  1.00  0.00     0.259 A 
BRANCH  17  18
HETATM   18  O1  UNL     1      24.621   6.868  51.987  1.00  0.00    -0.372 OA
HETATM   19  H17 UNL     1      23.686   6.521  52.113  1.00  0.00     0.212 HD
ENDBRANCH  17  18
ENDBRANCH  10  12
ENDBRANCH   9  10
ENDBRANCH   8   9
ENDBRANCH   3   7
BRANCH   1  20
HETATM   20  C2  UNL     1      23.278  -0.573  53.726  1.00  0.00     0.114 C 
BRANCH  20  21
HETATM   21  S1  UNL     1      21.872  -0.317  52.620  1.00  0.00    -0.169 SA
HETATM   22  C1  UNL     1      20.738   0.856  53.416  1.00  0.00     0.090 C 
ENDBRANCH  20  21
ENDBRANCH   1  20
BRANCH   5  23
HETATM   23  C16 UNL     1      27.981   0.371  54.676  1.00  0.00     0.114 C 
BRANCH  23  24
HETATM   24  S2  UNL     1      29.162  -0.563  53.649  1.00  0.00    -0.169 SA
HETATM   25  C17 UNL     1      28.431  -2.101  53.069  1.00  0.00     0.090 C 
ENDBRANCH  23  24
ENDBRANCH   5  23
BRANCH   6  26
HETATM   26  O2  UNL     1      25.641  -1.042  55.067  1.00  0.00    -0.360 OA
HETATM   27  H24 UNL     1      26.515  -1.249  55.532  1.00  0.00     0.217 HD
ENDBRANCH   6  26
TORSDOF 10
ENDMDL
