MODEL 1
REMARK VINA RESULT:      -8.3      0.000      0.000
REMARK  4 active torsions:
REMARK  status: ('A' for Active; 'I' for Inactive)
REMARK    1  A    between atoms: C2_2  and  N1_3 
REMARK    2  A    between atoms: C5_6  and  C6_7 
REMARK    3  A    between atoms: C7_8  and  C8_9 
REMARK    4  A    between atoms: C8_9  and  O1_12 
ROOT
HETATM    1  N1  UNL     1      24.504   0.937  52.412  1.00  0.00    -0.349 N 
HETATM    2  C3  UNL     1      23.817   0.078  53.364  1.00  0.00     0.070 A 
HETATM    3  C4  UNL     1      22.509  -0.142  53.113  1.00  0.00     0.073 A 
HETATM    4  C5  UNL     1      21.835  -0.937  53.992  1.00  0.00     0.112 A 
HETATM    5  N2  UNL     1      22.362  -1.529  55.101  1.00  0.00    -0.249 NA
HETATM    6  C11 UNL     1      23.686  -1.280  55.314  1.00  0.00     0.157 A 
HETATM    7  C12 UNL     1      24.452  -0.494  54.490  1.00  0.00     0.113 A 
HETATM    8  O2  UNL     1      25.688  -0.301  54.747  1.00  0.00    -0.347 OA
HETATM    9  C13 UNL     1      26.981  -0.100  55.026  1.00  0.00     0.182 C 
HETATM   10  C14 UNL     1      27.917   0.118  53.865  1.00  0.00     0.038 C 
HETATM   11  C15 UNL     1      27.517  -1.017  52.912  1.00  0.00     0.012 C 
HETATM   12  C16 UNL     1      26.220  -0.501  52.371  1.00  0.00     0.058 C 
HETATM   13  C17 UNL     1      25.902   0.916  52.579  1.00  0.00     0.321 C 
HETATM   14  N3  UNL     1      26.967   1.606  52.072  1.00  0.00     0.106 N 
HETATM   15  C18 UNL     1      28.004   1.368  53.129  1.00  0.00     0.278 C 
HETATM   16  H23 UNL     1      27.371   1.192  51.223  1.00  0.00     0.318 HD
ENDROOT
BRANCH   4  17
HETATM   17  C6  UNL     1      20.442  -1.204  53.775  1.00  0.00    -0.044 C 
HETATM   18  C7  UNL     1      19.267  -1.430  53.572  1.00  0.00    -0.062 C 
BRANCH  18  19
HETATM   19  C8  UNL     1      17.855  -1.708  53.302  1.00  0.00     0.114 C 
HETATM   20  C9  UNL     1      17.586  -3.216  53.371  1.00  0.00     0.060 C 
HETATM   21  C10 UNL     1      17.442  -1.278  51.902  1.00  0.00     0.060 C 
BRANCH  19  22
HETATM   22  O1  UNL     1      17.104  -0.998  54.217  1.00  0.00    -0.378 OA
HETATM   23  H13 UNL     1      17.689  -0.308  54.616  1.00  0.00     0.211 HD
ENDBRANCH  19  22
ENDBRANCH  18  19
ENDBRANCH   4  17
BRANCH   1  24
HETATM   24  C2  UNL     1      24.023   1.765  51.385  1.00  0.00     0.121 C 
HETATM   25  C1  UNL     1      23.727   3.131  51.968  1.00  0.00     0.026 C 
ENDBRANCH   1  24
TORSDOF 4
ENDMDL
MODEL 2
REMARK VINA RESULT:      -7.6      1.377      1.554
REMARK  4 active torsions:
REMARK  status: ('A' for Active; 'I' for Inactive)
REMARK    1  A    between atoms: C2_2  and  N1_3 
REMARK    2  A    between atoms: C5_6  and  C6_7 
REMARK    3  A    between atoms: C7_8  and  C8_9 
REMARK    4  A    between atoms: C8_9  and  O1_12 
ROOT
HETATM    1  N1  UNL     1      24.390   2.011  52.292  1.00  0.00    -0.349 N 
HETATM    2  C3  UNL     1      23.524   0.974  52.832  1.00  0.00     0.070 A 
HETATM    3  C4  UNL     1      22.250   0.987  52.387  1.00  0.00     0.073 A 
HETATM    4  C5  UNL     1      21.412   0.033  52.881  1.00  0.00     0.112 A 
HETATM    5  N2  UNL     1      21.743  -0.934  53.783  1.00  0.00    -0.249 NA
HETATM    6  C11 UNL     1      23.040  -0.909  54.205  1.00  0.00     0.157 A 
HETATM    7  C12 UNL     1      23.962   0.009  53.769  1.00  0.00     0.113 A 
HETATM    8  O2  UNL     1      25.162  -0.024  54.203  1.00  0.00    -0.347 OA
HETATM    9  C13 UNL     1      26.417  -0.062  54.667  1.00  0.00     0.182 C 
HETATM   10  C14 UNL     1      27.513   0.410  53.747  1.00  0.00     0.038 C 
HETATM   11  C15 UNL     1      27.168  -0.314  52.438  1.00  0.00     0.012 C 
HETATM   12  C16 UNL     1      25.994   0.483  51.962  1.00  0.00     0.058 C 
HETATM   13  C17 UNL     1      25.748   1.787  52.589  1.00  0.00     0.321 C 
HETATM   14  N3  UNL     1      26.916   2.483  52.451  1.00  0.00     0.106 N 
HETATM   15  C18 UNL     1      27.783   1.812  53.474  1.00  0.00     0.278 C 
HETATM   16  H23 UNL     1      27.402   2.318  51.561  1.00  0.00     0.318 HD
ENDROOT
BRANCH   4  17
HETATM   17  C6  UNL     1      20.045   0.001  52.443  1.00  0.00    -0.044 C 
HETATM   18  C7  UNL     1      18.892  -0.008  52.066  1.00  0.00    -0.062 C 
BRANCH  18  19
HETATM   19  C8  UNL     1      17.505   0.004  51.599  1.00  0.00     0.114 C 
HETATM   20  C9  UNL     1      16.735  -1.187  52.183  1.00  0.00     0.060 C 
HETATM   21  C10 UNL     1      17.407  -0.142  50.087  1.00  0.00     0.060 C 
BRANCH  19  22
HETATM   22  O1  UNL     1      16.949   1.215  51.958  1.00  0.00    -0.378 OA
HETATM   23  H13 UNL     1      17.682   1.800  52.272  1.00  0.00     0.211 HD
ENDBRANCH  19  22
ENDBRANCH  18  19
ENDBRANCH   4  17
BRANCH   1  24
HETATM   24  C2  UNL     1      24.109   3.168  51.549  1.00  0.00     0.121 C 
HETATM   25  C1  UNL     1      23.728   4.276  52.509  1.00  0.00     0.026 C 
ENDBRANCH   1  24
TORSDOF 4
ENDMDL
MODEL 3
REMARK VINA RESULT:      -7.3      3.852      8.092
REMARK  4 active torsions:
REMARK  status: ('A' for Active; 'I' for Inactive)
REMARK    1  A    between atoms: C2_2  and  N1_3 
REMARK    2  A    between atoms: C5_6  and  C6_7 
REMARK    3  A    between atoms: C7_8  and  C8_9 
REMARK    4  A    between atoms: C8_9  and  O1_12 
ROOT
HETATM    1  N1  UNL     1      22.690   2.472  50.958  1.00  0.00    -0.349 N 
HETATM    2  C3  UNL     1      24.093   2.782  50.728  1.00  0.00     0.070 A 
HETATM    3  C4  UNL     1      24.962   2.236  51.604  1.00  0.00     0.073 A 
HETATM    4  C5  UNL     1      26.284   2.514  51.421  1.00  0.00     0.112 A 
HETATM    5  N2  UNL     1      26.807   3.294  50.432  1.00  0.00    -0.249 NA
HETATM    6  C11 UNL     1      25.893   3.823  49.570  1.00  0.00     0.157 A 
HETATM    7  C12 UNL     1      24.541   3.604  49.669  1.00  0.00     0.113 A 
HETATM    8  O2  UNL     1      23.738   4.130  48.827  1.00  0.00    -0.347 OA
HETATM    9  C13 UNL     1      22.903   4.689  47.944  1.00  0.00     0.182 C 
HETATM   10  C14 UNL     1      21.635   3.943  47.618  1.00  0.00     0.038 C 
HETATM   11  C15 UNL     1      22.153   2.519  47.373  1.00  0.00     0.012 C 
HETATM   12  C16 UNL     1      22.434   2.064  48.771  1.00  0.00     0.058 C 
HETATM   13  C17 UNL     1      21.872   2.848  49.876  1.00  0.00     0.321 C 
HETATM   14  N3  UNL     1      20.529   2.912  49.630  1.00  0.00     0.106 N 
HETATM   15  C18 UNL     1      20.481   3.899  48.502  1.00  0.00     0.278 C 
HETATM   16  H23 UNL     1      20.132   2.052  49.231  1.00  0.00     0.318 HD
ENDROOT
BRANCH   4  17
HETATM   17  C6  UNL     1      27.252   1.962  52.324  1.00  0.00    -0.044 C 
HETATM   18  C7  UNL     1      28.061   1.501  53.103  1.00  0.00    -0.062 C 
BRANCH  18  19
HETATM   19  C8  UNL     1      29.020   0.951  54.063  1.00  0.00     0.114 C 
HETATM   20  C9  UNL     1      29.989  -0.006  53.359  1.00  0.00     0.060 C 
HETATM   21  C10 UNL     1      28.339   0.127  55.147  1.00  0.00     0.060 C 
BRANCH  19  22
HETATM   22  O1  UNL     1      29.670   2.010  54.663  1.00  0.00    -0.378 OA
HETATM   23  H13 UNL     1      30.222   1.646  55.398  1.00  0.00     0.211 HD
ENDBRANCH  19  22
ENDBRANCH  18  19
ENDBRANCH   4  17
BRANCH   1  24
HETATM   24  C2  UNL     1      22.031   1.881  52.047  1.00  0.00     0.121 C 
HETATM   25  C1  UNL     1      21.879   0.399  51.773  1.00  0.00     0.026 C 
ENDBRANCH   1  24
TORSDOF 4
ENDMDL
MODEL 4
REMARK VINA RESULT:      -7.1      2.855      7.551
REMARK  4 active torsions:
REMARK  status: ('A' for Active; 'I' for Inactive)
REMARK    1  A    between atoms: C2_2  and  N1_3 
REMARK    2  A    between atoms: C5_6  and  C6_7 
REMARK    3  A    between atoms: C7_8  and  C8_9 
REMARK    4  A    between atoms: C8_9  and  O1_12 
ROOT
HETATM    1  N1  UNL     1      21.722   0.485  52.330  1.00  0.00    -0.349 N 
HETATM    2  C3  UNL     1      22.978   1.149  52.017  1.00  0.00     0.070 A 
HETATM    3  C4  UNL     1      24.084   0.584  52.546  1.00  0.00     0.073 A 
HETATM    4  C5  UNL     1      25.277   1.187  52.277  1.00  0.00     0.112 A 
HETATM    5  N2  UNL     1      25.453   2.309  51.523  1.00  0.00    -0.249 NA
HETATM    6  C11 UNL     1      24.310   2.844  51.009  1.00  0.00     0.157 A 
HETATM    7  C12 UNL     1      23.062   2.314  51.221  1.00  0.00     0.113 A 
HETATM    8  O2  UNL     1      22.030   2.865  50.708  1.00  0.00    -0.347 OA
HETATM    9  C13 UNL     1      20.953   3.451  50.172  1.00  0.00     0.182 C 
HETATM   10  C14 UNL     1      19.789   2.567  49.808  1.00  0.00     0.038 C 
HETATM   11  C15 UNL     1      20.479   1.421  49.055  1.00  0.00     0.012 C 
HETATM   12  C16 UNL     1      21.107   0.664  50.184  1.00  0.00     0.058 C 
HETATM   13  C17 UNL     1      20.653   0.961  51.547  1.00  0.00     0.321 C 
HETATM   14  N3  UNL     1      19.297   0.794  51.524  1.00  0.00     0.106 N 
HETATM   15  C18 UNL     1      18.859   2.022  50.783  1.00  0.00     0.278 C 
HETATM   16  H23 UNL     1      18.978   0.016  50.933  1.00  0.00     0.318 HD
ENDROOT
BRANCH   4  17
HETATM   17  C6  UNL     1      26.485   0.630  52.816  1.00  0.00    -0.044 C 
HETATM   18  C7  UNL     1      27.501   0.142  53.264  1.00  0.00    -0.062 C 
BRANCH  18  19
HETATM   19  C8  UNL     1      28.722  -0.470  53.792  1.00  0.00     0.114 C 
HETATM   20  C9  UNL     1      29.955   0.322  53.337  1.00  0.00     0.060 C 
HETATM   21  C10 UNL     1      28.926  -1.886  53.273  1.00  0.00     0.060 C 
BRANCH  19  22
HETATM   22  O1  UNL     1      28.608  -0.520  55.166  1.00  0.00    -0.378 OA
HETATM   23  H13 UNL     1      27.713  -0.881  55.380  1.00  0.00     0.211 HD
ENDBRANCH  19  22
ENDBRANCH  18  19
ENDBRANCH   4  17
BRANCH   1  24
HETATM   24  C2  UNL     1      21.402  -0.519  53.257  1.00  0.00     0.121 C 
HETATM   25  C1  UNL     1      21.099   0.136  54.590  1.00  0.00     0.026 C 
ENDBRANCH   1  24
TORSDOF 4
ENDMDL
MODEL 5
REMARK VINA RESULT:      -7.1      4.011      8.273
REMARK  4 active torsions:
REMARK  status: ('A' for Active; 'I' for Inactive)
REMARK    1  A    between atoms: C2_2  and  N1_3 
REMARK    2  A    between atoms: C5_6  and  C6_7 
REMARK    3  A    between atoms: C7_8  and  C8_9 
REMARK    4  A    between atoms: C8_9  and  O1_12 
ROOT
HETATM    1  N1  UNL     1      23.956   1.431  52.103  1.00  0.00    -0.349 N 
HETATM    2  C3  UNL     1      23.620   2.745  51.575  1.00  0.00     0.070 A 
HETATM    3  C4  UNL     1      24.629   3.406  50.970  1.00  0.00     0.073 A 
HETATM    4  C5  UNL     1      24.348   4.643  50.472  1.00  0.00     0.112 A 
HETATM    5  N2  UNL     1      23.140   5.273  50.528  1.00  0.00    -0.249 NA
HETATM    6  C11 UNL     1      22.150   4.567  51.147  1.00  0.00     0.157 A 
HETATM    7  C12 UNL     1      22.331   3.316  51.682  1.00  0.00     0.113 A 
HETATM    8  O2  UNL     1      21.360   2.709  52.248  1.00  0.00    -0.347 OA
HETATM    9  C13 UNL     1      20.340   2.081  52.843  1.00  0.00     0.182 C 
HETATM   10  C14 UNL     1      20.317   0.576  52.780  1.00  0.00     0.038 C 
HETATM   11  C15 UNL     1      20.604   0.313  51.294  1.00  0.00     0.012 C 
HETATM   12  C16 UNL     1      22.069   0.608  51.222  1.00  0.00     0.058 C 
HETATM   13  C17 UNL     1      22.816   0.696  52.482  1.00  0.00     0.321 C 
HETATM   14  N3  UNL     1      22.573  -0.480  53.132  1.00  0.00     0.106 N 
HETATM   15  C18 UNL     1      21.163  -0.274  53.600  1.00  0.00     0.278 C 
HETATM   16  H23 UNL     1      22.517  -1.300  52.515  1.00  0.00     0.318 HD
ENDROOT
BRANCH   4  17
HETATM   17  C6  UNL     1      25.384   5.393  49.820  1.00  0.00    -0.044 C 
HETATM   18  C7  UNL     1      26.257   6.041  49.282  1.00  0.00    -0.062 C 
BRANCH  18  19
HETATM   19  C8  UNL     1      27.308   6.841  48.651  1.00  0.00     0.114 C 
HETATM   20  C9  UNL     1      26.764   7.552  47.407  1.00  0.00     0.060 C 
HETATM   21  C10 UNL     1      28.468   5.984  48.163  1.00  0.00     0.060 C 
BRANCH  19  22
HETATM   22  O1  UNL     1      27.787   7.727  49.595  1.00  0.00    -0.378 OA
HETATM   23  H13 UNL     1      28.750   7.540  49.721  1.00  0.00     0.211 HD
ENDBRANCH  19  22
ENDBRANCH  18  19
ENDBRANCH   4  17
BRANCH   1  24
HETATM   24  C2  UNL     1      25.190   0.792  52.299  1.00  0.00     0.121 C 
HETATM   25  C1  UNL     1      25.713   1.164  53.671  1.00  0.00     0.026 C 
ENDBRANCH   1  24
TORSDOF 4
ENDMDL
MODEL 6
REMARK VINA RESULT:      -6.9     11.709     15.049
REMARK  4 active torsions:
REMARK  status: ('A' for Active; 'I' for Inactive)
REMARK    1  A    between atoms: C2_2  and  N1_3 
REMARK    2  A    between atoms: C5_6  and  C6_7 
REMARK    3  A    between atoms: C7_8  and  C8_9 
REMARK    4  A    between atoms: C8_9  and  O1_12 
ROOT
HETATM    1  N1  UNL     1      33.089   4.575  46.866  1.00  0.00    -0.349 N 
HETATM    2  C3  UNL     1      32.867   5.263  45.603  1.00  0.00     0.070 A 
HETATM    3  C4  UNL     1      33.240   4.586  44.497  1.00  0.00     0.073 A 
HETATM    4  C5  UNL     1      33.052   5.206  43.297  1.00  0.00     0.112 A 
HETATM    5  N2  UNL     1      32.520   6.449  43.115  1.00  0.00    -0.249 NA
HETATM    6  C11 UNL     1      32.158   7.095  44.259  1.00  0.00     0.157 A 
HETATM    7  C12 UNL     1      32.306   6.558  45.514  1.00  0.00     0.113 A 
HETATM    8  O2  UNL     1      31.945   7.217  46.546  1.00  0.00    -0.347 OA
HETATM    9  C13 UNL     1      31.568   7.915  47.623  1.00  0.00     0.182 C 
HETATM   10  C14 UNL     1      31.081   7.140  48.820  1.00  0.00     0.038 C 
HETATM   11  C15 UNL     1      30.099   6.147  48.181  1.00  0.00     0.012 C 
HETATM   12  C16 UNL     1      31.040   5.176  47.540  1.00  0.00     0.058 C 
HETATM   13  C17 UNL     1      32.450   5.213  47.945  1.00  0.00     0.321 C 
HETATM   14  N3  UNL     1      32.441   5.080  49.305  1.00  0.00     0.106 N 
HETATM   15  C18 UNL     1      31.965   6.436  49.733  1.00  0.00     0.278 C 
HETATM   16  H23 UNL     1      31.723   4.436  49.661  1.00  0.00     0.318 HD
ENDROOT
BRANCH   4  17
HETATM   17  C6  UNL     1      33.432   4.533  42.088  1.00  0.00    -0.044 C 
HETATM   18  C7  UNL     1      33.738   3.973  41.056  1.00  0.00    -0.062 C 
BRANCH  18  19
HETATM   19  C8  UNL     1      34.091   3.313  39.799  1.00  0.00     0.114 C 
HETATM   20  C9  UNL     1      32.975   3.503  38.765  1.00  0.00     0.060 C 
HETATM   21  C10 UNL     1      34.248   1.808  39.965  1.00  0.00     0.060 C 
BRANCH  19  22
HETATM   22  O1  UNL     1      35.296   3.833  39.372  1.00  0.00    -0.378 OA
HETATM   23  H13 UNL     1      35.400   3.604  38.416  1.00  0.00     0.211 HD
ENDBRANCH  19  22
ENDBRANCH  18  19
ENDBRANCH   4  17
BRANCH   1  24
HETATM   24  C2  UNL     1      33.818   3.419  47.183  1.00  0.00     0.121 C 
HETATM   25  C1  UNL     1      32.885   2.227  47.113  1.00  0.00     0.026 C 
ENDBRANCH   1  24
TORSDOF 4
ENDMDL
MODEL 7
REMARK VINA RESULT:      -6.5     12.584     13.838
REMARK  4 active torsions:
REMARK  status: ('A' for Active; 'I' for Inactive)
REMARK    1  A    between atoms: C2_2  and  N1_3 
REMARK    2  A    between atoms: C5_6  and  C6_7 
REMARK    3  A    between atoms: C7_8  and  C8_9 
REMARK    4  A    between atoms: C8_9  and  O1_12 
ROOT
HETATM    1  N1  UNL     1      33.437   6.633  45.716  1.00  0.00    -0.349 N 
HETATM    2  C3  UNL     1      32.825   6.862  47.015  1.00  0.00     0.070 A 
HETATM    3  C4  UNL     1      32.058   7.968  47.112  1.00  0.00     0.073 A 
HETATM    4  C5  UNL     1      31.476   8.215  48.320  1.00  0.00     0.112 A 
HETATM    5  N2  UNL     1      31.598   7.445  49.438  1.00  0.00    -0.249 NA
HETATM    6  C11 UNL     1      32.381   6.338  49.294  1.00  0.00     0.157 A 
HETATM    7  C12 UNL     1      33.011   6.002  48.122  1.00  0.00     0.113 A 
HETATM    8  O2  UNL     1      33.731   4.949  48.054  1.00  0.00    -0.347 OA
HETATM    9  C13 UNL     1      34.487   3.847  47.992  1.00  0.00     0.182 C 
HETATM   10  C14 UNL     1      34.570   3.134  46.668  1.00  0.00     0.038 C 
HETATM   11  C15 UNL     1      33.095   3.063  46.248  1.00  0.00     0.012 C 
HETATM   12  C16 UNL     1      32.841   4.477  45.828  1.00  0.00     0.058 C 
HETATM   13  C17 UNL     1      34.002   5.347  45.606  1.00  0.00     0.321 C 
HETATM   14  N3  UNL     1      34.783   4.688  44.700  1.00  0.00     0.106 N 
HETATM   15  C18 UNL     1      35.374   3.604  45.552  1.00  0.00     0.278 C 
HETATM   16  H23 UNL     1      34.256   4.182  43.978  1.00  0.00     0.318 HD
ENDROOT
BRANCH   4  17
HETATM   17  C6  UNL     1      30.651   9.378  48.480  1.00  0.00    -0.044 C 
HETATM   18  C7  UNL     1      29.950  10.362  48.596  1.00  0.00    -0.062 C 
BRANCH  18  19
HETATM   19  C8  UNL     1      29.095  11.545  48.711  1.00  0.00     0.114 C 
HETATM   20  C9  UNL     1      28.423  11.850  47.367  1.00  0.00     0.060 C 
HETATM   21  C10 UNL     1      29.888  12.793  49.071  1.00  0.00     0.060 C 
BRANCH  19  22
HETATM   22  O1  UNL     1      28.178  11.306  49.714  1.00  0.00    -0.378 OA
HETATM   23  H13 UNL     1      27.275  11.360  49.315  1.00  0.00     0.211 HD
ENDBRANCH  19  22
ENDBRANCH  18  19
ENDBRANCH   4  17
BRANCH   1  24
HETATM   24  C2  UNL     1      33.563   7.455  44.585  1.00  0.00     0.121 C 
HETATM   25  C1  UNL     1      32.406   7.168  43.650  1.00  0.00     0.026 C 
ENDBRANCH   1  24
TORSDOF 4
ENDMDL
MODEL 8
REMARK VINA RESULT:      -6.5      8.447     11.336
REMARK  4 active torsions:
REMARK  status: ('A' for Active; 'I' for Inactive)
REMARK    1  A    between atoms: C2_2  and  N1_3 
REMARK    2  A    between atoms: C5_6  and  C6_7 
REMARK    3  A    between atoms: C7_8  and  C8_9 
REMARK    4  A    between atoms: C8_9  and  O1_12 
ROOT
HETATM    1  N1  UNL     1      31.888   5.809  47.390  1.00  0.00    -0.349 N 
HETATM    2  C3  UNL     1      30.522   6.306  47.436  1.00  0.00     0.070 A 
HETATM    3  C4  UNL     1      29.647   5.544  48.125  1.00  0.00     0.073 A 
HETATM    4  C5  UNL     1      28.356   5.979  48.181  1.00  0.00     0.112 A 
HETATM    5  N2  UNL     1      27.869   7.115  47.605  1.00  0.00    -0.249 NA
HETATM    6  C11 UNL     1      28.788   7.853  46.920  1.00  0.00     0.157 A 
HETATM    7  C12 UNL     1      30.110   7.502  46.804  1.00  0.00     0.113 A 
HETATM    8  O2  UNL     1      30.920   8.240  46.149  1.00  0.00    -0.347 OA
HETATM    9  C13 UNL     1      31.762   9.017  45.456  1.00  0.00     0.182 C 
HETATM   10  C14 UNL     1      33.203   9.044  45.894  1.00  0.00     0.038 C 
HETATM   11  C15 UNL     1      33.074   9.235  47.412  1.00  0.00     0.012 C 
HETATM   12  C16 UNL     1      32.641   7.868  47.844  1.00  0.00     0.058 C 
HETATM   13  C17 UNL     1      32.792   6.765  46.889  1.00  0.00     0.321 C 
HETATM   14  N3  UNL     1      34.107   6.781  46.520  1.00  0.00     0.106 N 
HETATM   15  C18 UNL     1      34.147   7.975  45.614  1.00  0.00     0.278 C 
HETATM   16  H23 UNL     1      34.755   7.019  47.280  1.00  0.00     0.318 HD
ENDROOT
BRANCH   4  17
HETATM   17  C6  UNL     1      27.382   5.206  48.899  1.00  0.00    -0.044 C 
HETATM   18  C7  UNL     1      26.545   4.564  49.497  1.00  0.00    -0.062 C 
BRANCH  18  19
HETATM   19  C8  UNL     1      25.516   3.800  50.204  1.00  0.00     0.114 C 
HETATM   20  C9  UNL     1      26.112   2.512  50.786  1.00  0.00     0.060 C 
HETATM   21  C10 UNL     1      24.393   3.354  49.278  1.00  0.00     0.060 C 
BRANCH  19  22
HETATM   22  O1  UNL     1      24.979   4.617  51.178  1.00  0.00    -0.378 OA
HETATM   23  H13 UNL     1      24.799   5.498  50.766  1.00  0.00     0.211 HD
ENDBRANCH  19  22
ENDBRANCH  18  19
ENDBRANCH   4  17
BRANCH   1  24
HETATM   24  C2  UNL     1      32.443   4.570  47.745  1.00  0.00     0.121 C 
HETATM   25  C1  UNL     1      32.289   3.620  46.575  1.00  0.00     0.026 C 
ENDBRANCH   1  24
TORSDOF 4
ENDMDL
MODEL 9
REMARK VINA RESULT:      -6.5      6.282     10.865
REMARK  4 active torsions:
REMARK  status: ('A' for Active; 'I' for Inactive)
REMARK    1  A    between atoms: C2_2  and  N1_3 
REMARK    2  A    between atoms: C5_6  and  C6_7 
REMARK    3  A    between atoms: C7_8  and  C8_9 
REMARK    4  A    between atoms: C8_9  and  O1_12 
ROOT
HETATM    1  N1  UNL     1      25.047   4.305  49.643  1.00  0.00    -0.349 N 
HETATM    2  C3  UNL     1      26.000   5.324  49.228  1.00  0.00     0.070 A 
HETATM    3  C4  UNL     1      27.224   4.872  48.884  1.00  0.00     0.073 A 
HETATM    4  C5  UNL     1      28.142   5.802  48.498  1.00  0.00     0.112 A 
HETATM    5  N2  UNL     1      27.936   7.148  48.428  1.00  0.00    -0.249 NA
HETATM    6  C11 UNL     1      26.685   7.559  48.784  1.00  0.00     0.157 A 
HETATM    7  C12 UNL     1      25.691   6.703  49.187  1.00  0.00     0.113 A 
HETATM    8  O2  UNL     1      24.540   7.154  49.507  1.00  0.00    -0.347 OA
HETATM    9  C13 UNL     1      23.338   7.635  49.844  1.00  0.00     0.182 C 
HETATM   10  C14 UNL     1      22.142   6.753  49.597  1.00  0.00     0.038 C 
HETATM   11  C15 UNL     1      22.388   6.273  48.160  1.00  0.00     0.012 C 
HETATM   12  C16 UNL     1      23.479   5.270  48.368  1.00  0.00     0.058 C 
HETATM   13  C17 UNL     1      23.733   4.804  49.735  1.00  0.00     0.321 C 
HETATM   14  N3  UNL     1      22.532   4.338  50.190  1.00  0.00     0.106 N 
HETATM   15  C18 UNL     1      21.793   5.619  50.438  1.00  0.00     0.278 C 
HETATM   16  H23 UNL     1      21.970   3.856  49.478  1.00  0.00     0.318 HD
ENDROOT
BRANCH   4  17
HETATM   17  C6  UNL     1      29.461   5.378  48.123  1.00  0.00    -0.044 C 
HETATM   18  C7  UNL     1      30.572   5.001  47.812  1.00  0.00    -0.062 C 
BRANCH  18  19
HETATM   19  C8  UNL     1      31.904   4.522  47.442  1.00  0.00     0.114 C 
HETATM   20  C9  UNL     1      32.676   5.615  46.693  1.00  0.00     0.060 C 
HETATM   21  C10 UNL     1      31.845   3.333  46.493  1.00  0.00     0.060 C 
BRANCH  19  22
HETATM   22  O1  UNL     1      32.546   4.126  48.598  1.00  0.00    -0.378 OA
HETATM   23  H13 UNL     1      33.478   4.453  48.551  1.00  0.00     0.211 HD
ENDBRANCH  19  22
ENDBRANCH  18  19
ENDBRANCH   4  17
BRANCH   1  24
HETATM   24  C2  UNL     1      25.211   2.949  49.962  1.00  0.00     0.121 C 
HETATM   25  C1  UNL     1      25.527   2.837  51.440  1.00  0.00     0.026 C 
ENDBRANCH   1  24
TORSDOF 4
ENDMDL
