MODEL 1
REMARK VINA RESULT:      -9.6      0.000      0.000
REMARK  6 active torsions:
REMARK  status: ('A' for Active; 'I' for Inactive)
REMARK       I    between atoms: C1_2  and  N1_3 
REMARK    1  A    between atoms: C1_2  and  C18_24 
REMARK    2  A    between atoms: N1_3  and  C2_4 
REMARK    3  A    between atoms: C2_4  and  C3_5 
REMARK    4  A    between atoms: C5_7  and  N2_8 
REMARK    5  A    between atoms: N2_8  and  C6_9 
REMARK    6  A    between atoms: C9_13  and  C10_14 
ROOT
HETATM    1  C3  UNL     1      20.717   0.946  50.037  1.00  0.00     0.032 A 
HETATM    2  C4  UNL     1      21.521   0.498  51.194  1.00  0.00     0.010 A 
HETATM    3  C5  UNL     1      21.341  -0.002  52.402  1.00  0.00     0.045 A 
HETATM    4  C15 UNL     1      19.926  -0.175  52.708  1.00  0.00     0.025 A 
HETATM    5  C16 UNL     1      19.142   0.203  51.719  1.00  0.00    -0.024 A 
HETATM    6  C17 UNL     1      19.258   0.764  50.358  1.00  0.00     0.037 A 
ENDROOT
BRANCH   3   7
HETATM    7  N2  UNL     1      22.367  -0.344  53.322  1.00  0.00    -0.188 N 
HETATM    8  H6  UNL     1      22.132  -1.146  53.947  1.00  0.00     0.184 HD
BRANCH   7   9
HETATM    9  C6  UNL     1      23.547   0.442  53.262  1.00  0.00     0.727 A 
HETATM   10  N3  UNL     1      23.578   1.796  53.217  1.00  0.00    -0.075 NA
HETATM   11  C7  UNL     1      24.807   2.366  53.165  1.00  0.00     0.139 A 
HETATM   12  C8  UNL     1      25.946   1.601  53.158  1.00  0.00     0.053 A 
HETATM   13  C9  UNL     1      25.907   0.221  53.204  1.00  0.00     0.089 A 
HETATM   14  N5  UNL     1      24.668  -0.303  53.256  1.00  0.00    -0.062 NA
BRANCH  13  15
HETATM   15  C10 UNL     1      27.106  -0.608  53.199  1.00  0.00     0.011 A 
HETATM   16  C11 UNL     1      28.354  -0.156  53.570  1.00  0.00     0.017 A 
HETATM   17  C12 UNL     1      29.447  -0.999  53.542  1.00  0.00     0.020 A 
HETATM   18  C13 UNL     1      29.272  -2.317  53.132  1.00  0.00     0.116 A 
HETATM   19  N4  UNL     1      28.045  -2.749  52.771  1.00  0.00    -0.272 NA
HETATM   20  C14 UNL     1      26.973  -1.920  52.800  1.00  0.00     0.130 A 
ENDBRANCH  13  15
ENDBRANCH   7   9
ENDBRANCH   3   7
BRANCH   1  21
HETATM   21  C2  UNL     1      20.918   2.453  49.807  1.00  0.00     0.131 C 
BRANCH  21  22
HETATM   22  N1  UNL     1      22.239   2.636  49.221  1.00  0.00    -0.356 N 
HETATM   23  C1  UNL     1      23.016   3.595  49.888  1.00  0.00     0.251 C 
HETATM   24  O1  UNL     1      22.467   4.158  50.890  1.00  0.00    -0.268 OA
HETATM   25  H1  UNL     1      22.679   2.170  48.400  1.00  0.00     0.162 HD
BRANCH  23  26
HETATM   26  C18 UNL     1      24.372   4.012  49.559  1.00  0.00     0.032 A 
HETATM   27  C19 UNL     1      24.554   5.280  49.072  1.00  0.00     0.018 A 
HETATM   28  C20 UNL     1      25.871   5.644  48.769  1.00  0.00     0.025 A 
HETATM   29  C21 UNL     1      26.971   4.838  48.921  1.00  0.00     0.034 A 
HETATM   30 CL1  UNL     1      28.550   5.481  48.482  1.00  0.00    -0.084 Cl
HETATM   31  C22 UNL     1      26.740   3.572  49.414  1.00  0.00     0.025 A 
HETATM   32  C23 UNL     1      25.456   3.177  49.725  1.00  0.00     0.018 A 
ENDBRANCH  23  26
ENDBRANCH  21  22
ENDBRANCH   1  21
TORSDOF 6
ENDMDL
MODEL 2
REMARK VINA RESULT:      -9.6      2.651      5.724
REMARK  6 active torsions:
REMARK  status: ('A' for Active; 'I' for Inactive)
REMARK       I    between atoms: C1_2  and  N1_3 
REMARK    1  A    between atoms: C1_2  and  C18_24 
REMARK    2  A    between atoms: N1_3  and  C2_4 
REMARK    3  A    between atoms: C2_4  and  C3_5 
REMARK    4  A    between atoms: C5_7  and  N2_8 
REMARK    5  A    between atoms: N2_8  and  C6_9 
REMARK    6  A    between atoms: C9_13  and  C10_14 
ROOT
HETATM    1  C3  UNL     1      24.560   4.248  49.139  1.00  0.00     0.032 A 
HETATM    2  C4  UNL     1      23.696   3.062  48.955  1.00  0.00     0.010 A 
HETATM    3  C5  UNL     1      22.481   2.766  48.534  1.00  0.00     0.045 A 
HETATM    4  C15 UNL     1      21.751   3.957  48.117  1.00  0.00     0.025 A 
HETATM    5  C16 UNL     1      22.459   5.060  48.251  1.00  0.00    -0.024 A 
HETATM    6  C17 UNL     1      23.801   5.474  48.706  1.00  0.00     0.037 A 
ENDROOT
BRANCH   3   7
HETATM    7  N2  UNL     1      21.914   1.466  48.476  1.00  0.00    -0.188 N 
HETATM    8  H6  UNL     1      22.232   0.895  47.662  1.00  0.00     0.184 HD
BRANCH   7   9
HETATM    9  C6  UNL     1      21.009   1.132  49.518  1.00  0.00     0.727 A 
HETATM   10  N3  UNL     1      19.664   1.280  49.456  1.00  0.00    -0.075 NA
HETATM   11  C7  UNL     1      18.967   0.902  50.555  1.00  0.00     0.139 A 
HETATM   12  C8  UNL     1      19.605   0.398  51.662  1.00  0.00     0.053 A 
HETATM   13  C9  UNL     1      20.976   0.249  51.717  1.00  0.00     0.089 A 
HETATM   14  N5  UNL     1      21.628   0.637  50.605  1.00  0.00    -0.062 NA
BRANCH  13  15
HETATM   15  C10 UNL     1      21.671  -0.285  52.883  1.00  0.00     0.011 A 
HETATM   16  C11 UNL     1      23.033  -0.197  53.072  1.00  0.00     0.017 A 
HETATM   17  C12 UNL     1      23.625  -0.726  54.203  1.00  0.00     0.020 A 
HETATM   18  C13 UNL     1      22.823  -1.352  55.152  1.00  0.00     0.116 A 
HETATM   19  N4  UNL     1      21.490  -1.432  54.957  1.00  0.00    -0.272 NA
HETATM   20  C14 UNL     1      20.912  -0.913  53.847  1.00  0.00     0.130 A 
ENDBRANCH  13  15
ENDBRANCH   7   9
ENDBRANCH   3   7
BRANCH   1  21
HETATM   21  C2  UNL     1      24.872   4.446  50.632  1.00  0.00     0.131 C 
BRANCH  21  22
HETATM   22  N1  UNL     1      26.072   3.678  50.934  1.00  0.00    -0.356 N 
HETATM   23  C1  UNL     1      25.861   2.666  51.884  1.00  0.00     0.251 C 
HETATM   24  O1  UNL     1      24.674   2.566  52.336  1.00  0.00    -0.268 OA
HETATM   25  H1  UNL     1      27.040   3.768  50.559  1.00  0.00     0.162 HD
BRANCH  23  26
HETATM   26  C18 UNL     1      26.845   1.727  52.403  1.00  0.00     0.032 A 
HETATM   27  C19 UNL     1      26.620   0.388  52.213  1.00  0.00     0.018 A 
HETATM   28  C20 UNL     1      27.589  -0.482  52.725  1.00  0.00     0.025 A 
HETATM   29  C21 UNL     1      28.726  -0.099  53.392  1.00  0.00     0.034 A 
HETATM   30 CL1  UNL     1      29.827  -1.349  53.961  1.00  0.00    -0.084 Cl
HETATM   31  C22 UNL     1      28.911   1.257  53.559  1.00  0.00     0.025 A 
HETATM   32  C23 UNL     1      27.978   2.145  53.068  1.00  0.00     0.018 A 
ENDBRANCH  23  26
ENDBRANCH  21  22
ENDBRANCH   1  21
TORSDOF 6
ENDMDL
MODEL 3
REMARK VINA RESULT:      -9.5      2.688      6.143
REMARK  6 active torsions:
REMARK  status: ('A' for Active; 'I' for Inactive)
REMARK       I    between atoms: C1_2  and  N1_3 
REMARK    1  A    between atoms: C1_2  and  C18_24 
REMARK    2  A    between atoms: N1_3  and  C2_4 
REMARK    3  A    between atoms: C2_4  and  C3_5 
REMARK    4  A    between atoms: C5_7  and  N2_8 
REMARK    5  A    between atoms: N2_8  and  C6_9 
REMARK    6  A    between atoms: C9_13  and  C10_14 
ROOT
HETATM    1  C3  UNL     1      20.789   0.686  53.358  1.00  0.00     0.032 A 
HETATM    2  C4  UNL     1      21.546   1.776  52.707  1.00  0.00     0.010 A 
HETATM    3  C5  UNL     1      21.806   2.226  51.493  1.00  0.00     0.045 A 
HETATM    4  C15 UNL     1      21.156   1.418  50.469  1.00  0.00     0.025 A 
HETATM    5  C16 UNL     1      20.457   0.423  50.974  1.00  0.00    -0.024 A 
HETATM    6  C17 UNL     1      20.119  -0.144  52.295  1.00  0.00     0.037 A 
ENDROOT
BRANCH   3   7
HETATM    7  N2  UNL     1      22.610   3.352  51.179  1.00  0.00    -0.188 N 
HETATM    8  H6  UNL     1      22.077   4.243  51.069  1.00  0.00     0.184 HD
BRANCH   7   9
HETATM    9  C6  UNL     1      24.004   3.110  51.059  1.00  0.00     0.727 A 
HETATM   10  N3  UNL     1      24.656   2.043  51.580  1.00  0.00    -0.075 NA
HETATM   11  C7  UNL     1      25.992   1.988  51.356  1.00  0.00     0.139 A 
HETATM   12  C8  UNL     1      26.633   2.967  50.640  1.00  0.00     0.053 A 
HETATM   13  C9  UNL     1      25.962   4.052  50.111  1.00  0.00     0.089 A 
HETATM   14  N5  UNL     1      24.638   4.067  50.357  1.00  0.00    -0.062 NA
BRANCH  13  15
HETATM   15  C10 UNL     1      26.626   5.101  49.346  1.00  0.00     0.011 A 
HETATM   16  C11 UNL     1      27.816   4.924  48.672  1.00  0.00     0.017 A 
HETATM   17  C12 UNL     1      28.388   5.963  47.966  1.00  0.00     0.020 A 
HETATM   18  C13 UNL     1      27.746   7.197  47.944  1.00  0.00     0.116 A 
HETATM   19  N4  UNL     1      26.582   7.359  48.607  1.00  0.00    -0.272 NA
HETATM   20  C14 UNL     1      26.022   6.338  49.300  1.00  0.00     0.130 A 
ENDBRANCH  13  15
ENDBRANCH   7   9
ENDBRANCH   3   7
BRANCH   1  21
HETATM   21  C2  UNL     1      21.753  -0.261  54.092  1.00  0.00     0.131 C 
BRANCH  21  22
HETATM   22  N1  UNL     1      23.089  -0.023  53.562  1.00  0.00    -0.356 N 
HETATM   23  C1  UNL     1      24.106  -0.603  54.336  1.00  0.00     0.251 C 
HETATM   24  O1  UNL     1      23.724  -1.241  55.370  1.00  0.00    -0.268 OA
HETATM   25  H1  UNL     1      23.392   0.501  52.714  1.00  0.00     0.162 HD
BRANCH  23  26
HETATM   26  C18 UNL     1      25.539  -0.554  54.085  1.00  0.00     0.032 A 
HETATM   27  C19 UNL     1      26.317   0.185  54.939  1.00  0.00     0.018 A 
HETATM   28  C20 UNL     1      27.689   0.207  54.665  1.00  0.00     0.025 A 
HETATM   29  C21 UNL     1      28.300  -0.445  53.623  1.00  0.00     0.034 A 
HETATM   30 CL1  UNL     1      30.045  -0.294  53.447  1.00  0.00    -0.084 Cl
HETATM   31  C22 UNL     1      27.480  -1.176  52.791  1.00  0.00     0.025 A 
HETATM   32  C23 UNL     1      26.123  -1.222  53.029  1.00  0.00     0.018 A 
ENDBRANCH  23  26
ENDBRANCH  21  22
ENDBRANCH   1  21
TORSDOF 6
ENDMDL
MODEL 4
REMARK VINA RESULT:      -9.0      2.299      3.479
REMARK  6 active torsions:
REMARK  status: ('A' for Active; 'I' for Inactive)
REMARK       I    between atoms: C1_2  and  N1_3 
REMARK    1  A    between atoms: C1_2  and  C18_24 
REMARK    2  A    between atoms: N1_3  and  C2_4 
REMARK    3  A    between atoms: C2_4  and  C3_5 
REMARK    4  A    between atoms: C5_7  and  N2_8 
REMARK    5  A    between atoms: N2_8  and  C6_9 
REMARK    6  A    between atoms: C9_13  and  C10_14 
ROOT
HETATM    1  C3  UNL     1      23.320   3.426  50.113  1.00  0.00     0.032 A 
HETATM    2  C4  UNL     1      22.842   2.121  50.619  1.00  0.00     0.010 A 
HETATM    3  C5  UNL     1      21.990   1.646  51.508  1.00  0.00     0.045 A 
HETATM    4  C15 UNL     1      21.298   2.715  52.215  1.00  0.00     0.025 A 
HETATM    5  C16 UNL     1      21.670   3.914  51.816  1.00  0.00    -0.024 A 
HETATM    6  C17 UNL     1      22.601   4.526  50.846  1.00  0.00     0.037 A 
ENDROOT
BRANCH   3   7
HETATM    7  N2  UNL     1      21.746   0.273  51.774  1.00  0.00    -0.188 N 
HETATM    8  H6  UNL     1      21.158  -0.205  51.056  1.00  0.00     0.184 HD
BRANCH   7   9
HETATM    9  C6  UNL     1      22.327  -0.246  52.961  1.00  0.00     0.727 A 
HETATM   10  N3  UNL     1      21.635  -0.788  53.992  1.00  0.00    -0.075 NA
HETATM   11  C7  UNL     1      22.370  -1.232  55.041  1.00  0.00     0.139 A 
HETATM   12  C8  UNL     1      23.739  -1.130  55.042  1.00  0.00     0.053 A 
HETATM   13  C9  UNL     1      24.438  -0.577  53.987  1.00  0.00     0.089 A 
HETATM   14  N5  UNL     1      23.669  -0.150  52.968  1.00  0.00    -0.062 NA
BRANCH  13  15
HETATM   15  C10 UNL     1      25.891  -0.462  53.970  1.00  0.00     0.011 A 
HETATM   16  C11 UNL     1      26.701  -1.093  53.050  1.00  0.00     0.017 A 
HETATM   17  C12 UNL     1      28.072  -0.938  53.093  1.00  0.00     0.020 A 
HETATM   18  C13 UNL     1      28.629  -0.133  54.082  1.00  0.00     0.116 A 
HETATM   19  N4  UNL     1      27.826   0.481  54.978  1.00  0.00    -0.272 NA
HETATM   20  C14 UNL     1      26.481   0.327  54.934  1.00  0.00     0.130 A 
ENDBRANCH  13  15
ENDBRANCH   7   9
ENDBRANCH   3   7
BRANCH   1  21
HETATM   21  C2  UNL     1      24.813   3.603  50.438  1.00  0.00     0.131 C 
BRANCH  21  22
HETATM   22  N1  UNL     1      25.272   4.803  49.751  1.00  0.00    -0.356 N 
HETATM   23  C1  UNL     1      26.584   4.696  49.263  1.00  0.00     0.251 C 
HETATM   24  O1  UNL     1      27.173   3.589  49.487  1.00  0.00    -0.268 OA
HETATM   25  H1  UNL     1      24.782   5.704  49.574  1.00  0.00     0.162 HD
BRANCH  23  26
HETATM   26  C18 UNL     1      27.336   5.708  48.536  1.00  0.00     0.032 A 
HETATM   27  C19 UNL     1      28.672   5.487  48.322  1.00  0.00     0.018 A 
HETATM   28  C20 UNL     1      29.360   6.482  47.619  1.00  0.00     0.025 A 
HETATM   29  C21 UNL     1      28.805   7.641  47.138  1.00  0.00     0.034 A 
HETATM   30 CL1  UNL     1      29.841   8.773  46.275  1.00  0.00    -0.084 Cl
HETATM   31  C22 UNL     1      27.459   7.822  47.376  1.00  0.00     0.025 A 
HETATM   32  C23 UNL     1      26.747   6.863  48.065  1.00  0.00     0.018 A 
ENDBRANCH  23  26
ENDBRANCH  21  22
ENDBRANCH   1  21
TORSDOF 6
ENDMDL
MODEL 5
REMARK VINA RESULT:      -9.0      3.022      4.909
REMARK  6 active torsions:
REMARK  status: ('A' for Active; 'I' for Inactive)
REMARK       I    between atoms: C1_2  and  N1_3 
REMARK    1  A    between atoms: C1_2  and  C18_24 
REMARK    2  A    between atoms: N1_3  and  C2_4 
REMARK    3  A    between atoms: C2_4  and  C3_5 
REMARK    4  A    between atoms: C5_7  and  N2_8 
REMARK    5  A    between atoms: N2_8  and  C6_9 
REMARK    6  A    between atoms: C9_13  and  C10_14 
ROOT
HETATM    1  C3  UNL     1      20.480   3.878  49.116  1.00  0.00     0.032 A 
HETATM    2  C4  UNL     1      21.927   3.820  49.412  1.00  0.00     0.010 A 
HETATM    3  C5  UNL     1      22.995   3.134  49.049  1.00  0.00     0.045 A 
HETATM    4  C15 UNL     1      22.670   2.122  48.052  1.00  0.00     0.025 A 
HETATM    5  C16 UNL     1      21.392   2.112  47.733  1.00  0.00    -0.024 A 
HETATM    6  C17 UNL     1      20.151   2.831  48.085  1.00  0.00     0.037 A 
ENDROOT
BRANCH   3   7
HETATM    7  N2  UNL     1      24.312   3.325  49.540  1.00  0.00    -0.188 N 
HETATM    8  H6  UNL     1      25.014   3.564  48.805  1.00  0.00     0.184 HD
BRANCH   7   9
HETATM    9  C6  UNL     1      24.486   3.166  50.941  1.00  0.00     0.727 A 
HETATM   10  N3  UNL     1      23.799   3.844  51.891  1.00  0.00    -0.075 NA
HETATM   11  C7  UNL     1      24.107   3.550  53.178  1.00  0.00     0.139 A 
HETATM   12  C8  UNL     1      25.065   2.615  53.484  1.00  0.00     0.053 A 
HETATM   13  C9  UNL     1      25.761   1.928  52.510  1.00  0.00     0.089 A 
HETATM   14  N5  UNL     1      25.423   2.250  51.246  1.00  0.00    -0.062 NA
BRANCH  13  15
HETATM   15  C10 UNL     1      26.780   0.930  52.815  1.00  0.00     0.011 A 
HETATM   16  C11 UNL     1      26.641  -0.415  52.549  1.00  0.00     0.017 A 
HETATM   17  C12 UNL     1      27.650  -1.304  52.865  1.00  0.00     0.020 A 
HETATM   18  C13 UNL     1      28.812  -0.822  53.458  1.00  0.00     0.116 A 
HETATM   19  N4  UNL     1      28.937   0.498  53.714  1.00  0.00    -0.272 NA
HETATM   20  C14 UNL     1      27.946   1.368  53.403  1.00  0.00     0.130 A 
ENDBRANCH  13  15
ENDBRANCH   7   9
ENDBRANCH   3   7
BRANCH   1  21
HETATM   21  C2  UNL     1      19.670   3.509  50.370  1.00  0.00     0.131 C 
BRANCH  21  22
HETATM   22  N1  UNL     1      20.607   3.004  51.364  1.00  0.00    -0.356 N 
HETATM   23  C1  UNL     1      20.412   1.650  51.676  1.00  0.00     0.251 C 
HETATM   24  O1  UNL     1      19.462   1.067  51.058  1.00  0.00    -0.268 OA
HETATM   25  H1  UNL     1      21.382   3.489  51.865  1.00  0.00     0.162 HD
BRANCH  23  26
HETATM   26  C18 UNL     1      21.172   0.846  52.622  1.00  0.00     0.032 A 
HETATM   27  C19 UNL     1      20.641   0.648  53.870  1.00  0.00     0.018 A 
HETATM   28  C20 UNL     1      21.401  -0.131  54.751  1.00  0.00     0.025 A 
HETATM   29  C21 UNL     1      22.616  -0.698  54.460  1.00  0.00     0.034 A 
HETATM   30 CL1  UNL     1      23.419  -1.647  55.707  1.00  0.00    -0.084 Cl
HETATM   31  C22 UNL     1      23.111  -0.473  53.194  1.00  0.00     0.025 A 
HETATM   32  C23 UNL     1      22.391   0.288  52.298  1.00  0.00     0.018 A 
ENDBRANCH  23  26
ENDBRANCH  21  22
ENDBRANCH   1  21
TORSDOF 6
ENDMDL
MODEL 6
REMARK VINA RESULT:      -8.9      2.230      3.448
REMARK  6 active torsions:
REMARK  status: ('A' for Active; 'I' for Inactive)
REMARK       I    between atoms: C1_2  and  N1_3 
REMARK    1  A    between atoms: C1_2  and  C18_24 
REMARK    2  A    between atoms: N1_3  and  C2_4 
REMARK    3  A    between atoms: C2_4  and  C3_5 
REMARK    4  A    between atoms: C5_7  and  N2_8 
REMARK    5  A    between atoms: N2_8  and  C6_9 
REMARK    6  A    between atoms: C9_13  and  C10_14 
ROOT
HETATM    1  C3  UNL     1      21.588   5.382  49.891  1.00  0.00     0.032 A 
HETATM    2  C4  UNL     1      22.285   4.079  49.948  1.00  0.00     0.010 A 
HETATM    3  C5  UNL     1      23.032   3.381  50.782  1.00  0.00     0.045 A 
HETATM    4  C15 UNL     1      23.245   4.092  52.037  1.00  0.00     0.025 A 
HETATM    5  C16 UNL     1      22.651   5.267  52.064  1.00  0.00    -0.024 A 
HETATM    6  C17 UNL     1      21.811   6.111  51.190  1.00  0.00     0.037 A 
ENDROOT
BRANCH   3   7
HETATM    7  N2  UNL     1      23.580   2.096  50.532  1.00  0.00    -0.188 N 
HETATM    8  H6  UNL     1      23.871   1.939  49.541  1.00  0.00     0.184 HD
BRANCH   7   9
HETATM    9  C6  UNL     1      23.651   1.219  51.646  1.00  0.00     0.727 A 
HETATM   10  N3  UNL     1      22.584   0.655  52.261  1.00  0.00    -0.075 NA
HETATM   11  C7  UNL     1      22.858  -0.158  53.311  1.00  0.00     0.139 A 
HETATM   12  C8  UNL     1      24.150  -0.387  53.715  1.00  0.00     0.053 A 
HETATM   13  C9  UNL     1      25.232   0.192  53.083  1.00  0.00     0.089 A 
HETATM   14  N5  UNL     1      24.916   0.991  52.047  1.00  0.00    -0.062 NA
BRANCH  13  15
HETATM   15  C10 UNL     1      26.611  -0.040  53.497  1.00  0.00     0.011 A 
HETATM   16  C11 UNL     1      27.465  -0.918  52.865  1.00  0.00     0.017 A 
HETATM   17  C12 UNL     1      28.761  -1.087  53.311  1.00  0.00     0.020 A 
HETATM   18  C13 UNL     1      29.195  -0.356  54.413  1.00  0.00     0.116 A 
HETATM   19  N4  UNL     1      28.350   0.501  55.024  1.00  0.00    -0.272 NA
HETATM   20  C14 UNL     1      27.079   0.665  54.584  1.00  0.00     0.130 A 
ENDBRANCH  13  15
ENDBRANCH   7   9
ENDBRANCH   3   7
BRANCH   1  21
HETATM   21  C2  UNL     1      22.209   6.265  48.796  1.00  0.00     0.131 C 
BRANCH  21  22
HETATM   22  N1  UNL     1      23.509   5.700  48.462  1.00  0.00    -0.356 N 
HETATM   23  C1  UNL     1      24.579   6.563  48.741  1.00  0.00     0.251 C 
HETATM   24  O1  UNL     1      24.267   7.695  49.237  1.00  0.00    -0.268 OA
HETATM   25  H1  UNL     1      23.754   4.772  48.056  1.00  0.00     0.162 HD
BRANCH  23  26
HETATM   26  C18 UNL     1      25.996   6.306  48.527  1.00  0.00     0.032 A 
HETATM   27  C19 UNL     1      26.499   5.096  48.929  1.00  0.00     0.018 A 
HETATM   28  C20 UNL     1      27.865   4.887  48.705  1.00  0.00     0.025 A 
HETATM   29  C21 UNL     1      28.720   5.789  48.123  1.00  0.00     0.034 A 
HETATM   30 CL1  UNL     1      30.410   5.338  47.928  1.00  0.00    -0.084 Cl
HETATM   31  C22 UNL     1      28.171   6.992  47.734  1.00  0.00     0.025 A 
HETATM   32  C23 UNL     1      26.829   7.235  47.938  1.00  0.00     0.018 A 
ENDBRANCH  23  26
ENDBRANCH  21  22
ENDBRANCH   1  21
TORSDOF 6
ENDMDL
MODEL 7
REMARK VINA RESULT:      -8.8      2.974      6.692
REMARK  6 active torsions:
REMARK  status: ('A' for Active; 'I' for Inactive)
REMARK       I    between atoms: C1_2  and  N1_3 
REMARK    1  A    between atoms: C1_2  and  C18_24 
REMARK    2  A    between atoms: N1_3  and  C2_4 
REMARK    3  A    between atoms: C2_4  and  C3_5 
REMARK    4  A    between atoms: C5_7  and  N2_8 
REMARK    5  A    between atoms: N2_8  and  C6_9 
REMARK    6  A    between atoms: C9_13  and  C10_14 
ROOT
HETATM    1  C3  UNL     1      21.242   1.476  52.325  1.00  0.00     0.032 A 
HETATM    2  C4  UNL     1      22.035   2.717  52.190  1.00  0.00     0.010 A 
HETATM    3  C5  UNL     1      22.835   3.302  51.319  1.00  0.00     0.045 A 
HETATM    4  C15 UNL     1      22.997   2.499  50.113  1.00  0.00     0.025 A 
HETATM    5  C16 UNL     1      22.316   1.372  50.157  1.00  0.00    -0.024 A 
HETATM    6  C17 UNL     1      21.413   0.651  51.077  1.00  0.00     0.037 A 
ENDROOT
BRANCH   3   7
HETATM    7  N2  UNL     1      23.476   4.556  51.490  1.00  0.00    -0.188 N 
HETATM    8  H6  UNL     1      23.733   4.775  52.479  1.00  0.00     0.184 HD
BRANCH   7   9
HETATM    9  C6  UNL     1      23.674   5.324  50.312  1.00  0.00     0.727 A 
HETATM   10  N3  UNL     1      22.687   5.905  49.589  1.00  0.00    -0.075 NA
HETATM   11  C7  UNL     1      23.078   6.601  48.493  1.00  0.00     0.139 A 
HETATM   12  C8  UNL     1      24.403   6.701  48.149  1.00  0.00     0.053 A 
HETATM   13  C9  UNL     1      25.403   6.106  48.892  1.00  0.00     0.089 A 
HETATM   14  N5  UNL     1      24.972   5.426  49.971  1.00  0.00    -0.062 NA
BRANCH  13  15
HETATM   15  C10 UNL     1      26.816   6.203  48.544  1.00  0.00     0.011 A 
HETATM   16  C11 UNL     1      27.690   5.137  48.579  1.00  0.00     0.017 A 
HETATM   17  C12 UNL     1      29.017   5.302  48.235  1.00  0.00     0.020 A 
HETATM   18  C13 UNL     1      29.463   6.563  47.851  1.00  0.00     0.116 A 
HETATM   19  N4  UNL     1      28.598   7.598  47.820  1.00  0.00    -0.272 NA
HETATM   20  C14 UNL     1      27.296   7.435  48.158  1.00  0.00     0.130 A 
ENDBRANCH  13  15
ENDBRANCH   7   9
ENDBRANCH   3   7
BRANCH   1  21
HETATM   21  C2  UNL     1      21.792   0.622  53.479  1.00  0.00     0.131 C 
BRANCH  21  22
HETATM   22  N1  UNL     1      23.217   0.902  53.591  1.00  0.00    -0.356 N 
HETATM   23  C1  UNL     1      24.019  -0.247  53.511  1.00  0.00     0.251 C 
HETATM   24  O1  UNL     1      23.398  -1.349  53.355  1.00  0.00    -0.268 OA
HETATM   25  H1  UNL     1      23.716   1.808  53.719  1.00  0.00     0.162 HD
BRANCH  23  26
HETATM   26  C18 UNL     1      25.471  -0.315  53.587  1.00  0.00     0.032 A 
HETATM   27  C19 UNL     1      26.134  -1.029  52.624  1.00  0.00     0.018 A 
HETATM   28  C20 UNL     1      27.529  -1.070  52.731  1.00  0.00     0.025 A 
HETATM   29  C21 UNL     1      28.266  -0.457  53.713  1.00  0.00     0.034 A 
HETATM   30 CL1  UNL     1      30.018  -0.626  53.676  1.00  0.00    -0.084 Cl
HETATM   31  C22 UNL     1      27.558   0.250  54.661  1.00  0.00     0.025 A 
HETATM   32  C23 UNL     1      26.183   0.313  54.588  1.00  0.00     0.018 A 
ENDBRANCH  23  26
ENDBRANCH  21  22
ENDBRANCH   1  21
TORSDOF 6
ENDMDL
MODEL 8
REMARK VINA RESULT:      -8.5      2.919      5.453
REMARK  6 active torsions:
REMARK  status: ('A' for Active; 'I' for Inactive)
REMARK       I    between atoms: C1_2  and  N1_3 
REMARK    1  A    between atoms: C1_2  and  C18_24 
REMARK    2  A    between atoms: N1_3  and  C2_4 
REMARK    3  A    between atoms: C2_4  and  C3_5 
REMARK    4  A    between atoms: C5_7  and  N2_8 
REMARK    5  A    between atoms: N2_8  and  C6_9 
REMARK    6  A    between atoms: C9_13  and  C10_14 
ROOT
HETATM    1  C3  UNL     1      19.598   3.269  48.853  1.00  0.00     0.032 A 
HETATM    2  C4  UNL     1      20.758   3.858  49.555  1.00  0.00     0.010 A 
HETATM    3  C5  UNL     1      22.025   4.146  49.324  1.00  0.00     0.045 A 
HETATM    4  C15 UNL     1      22.422   3.781  47.970  1.00  0.00     0.025 A 
HETATM    5  C16 UNL     1      21.437   3.248  47.277  1.00  0.00    -0.024 A 
HETATM    6  C17 UNL     1      20.013   2.895  47.455  1.00  0.00     0.037 A 
ENDROOT
BRANCH   3   7
HETATM    7  N2  UNL     1      22.925   4.737  50.249  1.00  0.00    -0.188 N 
HETATM    8  H6  UNL     1      22.484   5.428  50.896  1.00  0.00     0.184 HD
BRANCH   7   9
HETATM    9  C6  UNL     1      24.277   4.312  50.164  1.00  0.00     0.727 A 
HETATM   10  N3  UNL     1      25.186   4.784  49.277  1.00  0.00    -0.075 NA
HETATM   11  C7  UNL     1      26.431   4.253  49.355  1.00  0.00     0.139 A 
HETATM   12  C8  UNL     1      26.737   3.291  50.285  1.00  0.00     0.053 A 
HETATM   13  C9  UNL     1      25.806   2.815  51.186  1.00  0.00     0.089 A 
HETATM   14  N5  UNL     1      24.583   3.369  51.074  1.00  0.00    -0.062 NA
BRANCH  13  15
HETATM   15  C10 UNL     1      26.112   1.796  52.182  1.00  0.00     0.011 A 
HETATM   16  C11 UNL     1      26.437   0.492  51.872  1.00  0.00     0.017 A 
HETATM   17  C12 UNL     1      26.718  -0.421  52.869  1.00  0.00     0.020 A 
HETATM   18  C13 UNL     1      26.667  -0.008  54.196  1.00  0.00     0.116 A 
HETATM   19  N4  UNL     1      26.348   1.271  54.488  1.00  0.00    -0.272 NA
HETATM   20  C14 UNL     1      26.073   2.166  53.509  1.00  0.00     0.130 A 
ENDBRANCH  13  15
ENDBRANCH   7   9
ENDBRANCH   3   7
BRANCH   1  21
HETATM   21  C2  UNL     1      19.178   1.957  49.537  1.00  0.00     0.131 C 
BRANCH  21  22
HETATM   22  N1  UNL     1      20.318   1.482  50.310  1.00  0.00    -0.356 N 
HETATM   23  C1  UNL     1      19.955   0.910  51.540  1.00  0.00     0.251 C 
HETATM   24  O1  UNL     1      18.708   0.889  51.798  1.00  0.00    -0.268 OA
HETATM   25  H1  UNL     1      21.335   1.504  50.090  1.00  0.00     0.162 HD
BRANCH  23  26
HETATM   26  C18 UNL     1      20.846   0.344  52.543  1.00  0.00     0.032 A 
HETATM   27  C19 UNL     1      22.167   0.183  52.214  1.00  0.00     0.018 A 
HETATM   28  C20 UNL     1      22.990  -0.364  53.205  1.00  0.00     0.025 A 
HETATM   29  C21 UNL     1      22.577  -0.744  54.457  1.00  0.00     0.034 A 
HETATM   30 CL1  UNL     1      23.769  -1.413  55.566  1.00  0.00    -0.084 Cl
HETATM   31  C22 UNL     1      21.241  -0.564  54.744  1.00  0.00     0.025 A 
HETATM   32  C23 UNL     1      20.399  -0.028  53.793  1.00  0.00     0.018 A 
ENDBRANCH  23  26
ENDBRANCH  21  22
ENDBRANCH   1  21
TORSDOF 6
ENDMDL
MODEL 9
REMARK VINA RESULT:      -8.4      3.436      5.196
REMARK  6 active torsions:
REMARK  status: ('A' for Active; 'I' for Inactive)
REMARK       I    between atoms: C1_2  and  N1_3 
REMARK    1  A    between atoms: C1_2  and  C18_24 
REMARK    2  A    between atoms: N1_3  and  C2_4 
REMARK    3  A    between atoms: C2_4  and  C3_5 
REMARK    4  A    between atoms: C5_7  and  N2_8 
REMARK    5  A    between atoms: N2_8  and  C6_9 
REMARK    6  A    between atoms: C9_13  and  C10_14 
ROOT
HETATM    1  C3  UNL     1      25.381   5.400  49.047  1.00  0.00     0.032 A 
HETATM    2  C4  UNL     1      24.578   4.185  49.300  1.00  0.00     0.010 A 
HETATM    3  C5  UNL     1      23.745   3.709  50.206  1.00  0.00     0.045 A 
HETATM    4  C15 UNL     1      23.538   4.655  51.296  1.00  0.00     0.025 A 
HETATM    5  C16 UNL     1      24.223   5.769  51.140  1.00  0.00    -0.024 A 
HETATM    6  C17 UNL     1      25.163   6.373  50.175  1.00  0.00     0.037 A 
ENDROOT
BRANCH   3   7
HETATM    7  N2  UNL     1      23.106   2.443  50.165  1.00  0.00    -0.188 N 
HETATM    8  H6  UNL     1      22.620   2.236  49.264  1.00  0.00     0.184 HD
BRANCH   7   9
HETATM    9  C6  UNL     1      23.215   1.649  51.337  1.00  0.00     0.727 A 
HETATM   10  N3  UNL     1      22.176   1.269  52.118  1.00  0.00    -0.075 NA
HETATM   11  C7  UNL     1      22.483   0.508  53.197  1.00  0.00     0.139 A 
HETATM   12  C8  UNL     1      23.781   0.152  53.469  1.00  0.00     0.053 A 
HETATM   13  C9  UNL     1      24.835   0.543  52.668  1.00  0.00     0.089 A 
HETATM   14  N5  UNL     1      24.485   1.296  51.608  1.00  0.00    -0.062 NA
BRANCH  13  15
HETATM   15  C10 UNL     1      26.219   0.173  52.940  1.00  0.00     0.011 A 
HETATM   16  C11 UNL     1      27.244   1.084  53.078  1.00  0.00     0.017 A 
HETATM   17  C12 UNL     1      28.534   0.662  53.337  1.00  0.00     0.020 A 
HETATM   18  C13 UNL     1      28.786  -0.701  53.455  1.00  0.00     0.116 A 
HETATM   19  N4  UNL     1      27.774  -1.584  53.318  1.00  0.00    -0.272 NA
HETATM   20  C14 UNL     1      26.509  -1.168  53.065  1.00  0.00     0.130 A 
ENDBRANCH  13  15
ENDBRANCH   7   9
ENDBRANCH   3   7
BRANCH   1  21
HETATM   21  C2  UNL     1      26.880   5.055  49.066  1.00  0.00     0.131 C 
BRANCH  21  22
HETATM   22  N1  UNL     1      27.618   6.295  48.867  1.00  0.00    -0.356 N 
HETATM   23  C1  UNL     1      28.917   6.096  48.373  1.00  0.00     0.251 C 
HETATM   24  O1  UNL     1      29.258   4.884  48.175  1.00  0.00    -0.268 OA
HETATM   25  H1  UNL     1      27.330   7.282  49.032  1.00  0.00     0.162 HD
BRANCH  23  26
HETATM   26  C18 UNL     1      29.908   7.117  48.067  1.00  0.00     0.032 A 
HETATM   27  C19 UNL     1      29.924   8.250  48.838  1.00  0.00     0.018 A 
HETATM   28  C20 UNL     1      30.891   9.208  48.513  1.00  0.00     0.025 A 
HETATM   29  C21 UNL     1      31.807   9.096  47.497  1.00  0.00     0.034 A 
HETATM   30 CL1  UNL     1      32.947  10.414  47.246  1.00  0.00    -0.084 Cl
HETATM   31  C22 UNL     1      31.755   7.940  46.748  1.00  0.00     0.025 A 
HETATM   32  C23 UNL     1      30.815   6.974  47.039  1.00  0.00     0.018 A 
ENDBRANCH  23  26
ENDBRANCH  21  22
ENDBRANCH   1  21
TORSDOF 6
ENDMDL
