MODEL 1
REMARK VINA RESULT:      -8.5      0.000      0.000
REMARK  6 active torsions:
REMARK  status: ('A' for Active; 'I' for Inactive)
REMARK    1  A    between atoms: C2_2  and  N1_3 
REMARK    2  A    between atoms: N1_3  and  C3_4 
REMARK       I    between atoms: N1_3  and  C22_27 
REMARK    3  A    between atoms: C3_4  and  C4_5 
REMARK    4  A    between atoms: C4_5  and  C5_6 
REMARK    5  A    between atoms: C5_6  and  C6_7 
REMARK    6  A    between atoms: C22_27  and  C23_29 
ROOT
HETATM    1  C6  UNL     1      22.115   0.287  52.220  1.00  0.00    -0.050 C 
HETATM    2  C7  UNL     1      21.680   0.308  50.930  1.00  0.00    -0.002 C 
HETATM    3  C8  UNL     1      20.305   0.660  50.555  1.00  0.00     0.134 C 
HETATM    4  C9  UNL     1      19.556   0.524  51.869  1.00  0.00     0.053 C 
HETATM    5  C10 UNL     1      18.431  -0.175  51.936  1.00  0.00     0.047 C 
HETATM    6  O1  UNL     1      20.081   1.159  53.023  1.00  0.00    -0.342 OA
HETATM    7  C11 UNL     1      21.492   1.445  52.993  1.00  0.00     0.180 C 
HETATM    8  C12 UNL     1      21.755   2.707  52.269  1.00  0.00     0.006 C 
HETATM    9  C13 UNL     1      22.995   3.064  51.976  1.00  0.00    -0.028 C 
HETATM   10  C14 UNL     1      23.095   4.372  51.215  1.00  0.00     0.027 C 
HETATM   11  C15 UNL     1      23.867   3.994  49.953  1.00  0.00     0.005 C 
HETATM   12  C16 UNL     1      23.408   2.831  49.207  1.00  0.00     0.021 C 
HETATM   13  C17 UNL     1      22.159   2.662  48.527  1.00  0.00     0.131 C 
HETATM   14  N2  UNL     1      20.879   2.751  49.115  1.00  0.00    -0.324 N 
HETATM   15  C18 UNL     1      20.085   3.848  48.892  1.00  0.00     0.135 A 
HETATM   16  C19 UNL     1      20.349   5.056  48.117  1.00  0.00     0.119 C 
HETATM   17  N3  UNL     1      20.578   6.011  47.496  1.00  0.00    -0.190 NA
HETATM   18  C20 UNL     1      18.885   3.741  49.512  1.00  0.00     0.160 A 
HETATM   19  N4  UNL     1      18.917   2.565  50.135  1.00  0.00    -0.243 NA
HETATM   20  C21 UNL     1      20.100   1.963  49.910  1.00  0.00     0.121 A 
ENDROOT
BRANCH   1  21
HETATM   21  C5  UNL     1      23.023  -0.603  52.952  1.00  0.00     0.038 C 
BRANCH  21  22
HETATM   22  C4  UNL     1      24.150   0.146  53.669  1.00  0.00     0.025 C 
BRANCH  22  23
HETATM   23  C3  UNL     1      25.349  -0.804  53.644  1.00  0.00     0.131 C 
BRANCH  23  24
HETATM   24  N1  UNL     1      26.534  -0.147  53.167  1.00  0.00    -0.332 N 
HETATM   25  C22 UNL     1      27.682   0.037  53.986  1.00  0.00     0.226 C 
HETATM   26  O2  UNL     1      27.632  -0.407  55.176  1.00  0.00    -0.273 OA
BRANCH  24  27
HETATM   27  C2  UNL     1      26.529   0.325  51.826  1.00  0.00     0.067 C 
HETATM   28  C1  UNL     1      26.451   1.599  51.521  1.00  0.00     0.050 C 
ENDBRANCH  24  27
BRANCH  25  29
HETATM   29  C23 UNL     1      28.886   0.715  53.477  1.00  0.00     0.070 C 
HETATM   30  C24 UNL     1      30.024  -0.275  53.589  1.00  0.00     0.019 C 
HETATM   31  C25 UNL     1      29.197   1.964  54.251  1.00  0.00     0.019 C 
ENDBRANCH  25  29
ENDBRANCH  23  24
ENDBRANCH  22  23
ENDBRANCH  21  22
ENDBRANCH   1  21
TORSDOF 6
ENDMDL
MODEL 2
REMARK VINA RESULT:      -8.4      2.025      2.831
REMARK  6 active torsions:
REMARK  status: ('A' for Active; 'I' for Inactive)
REMARK    1  A    between atoms: C2_2  and  N1_3 
REMARK    2  A    between atoms: N1_3  and  C3_4 
REMARK       I    between atoms: N1_3  and  C22_27 
REMARK    3  A    between atoms: C3_4  and  C4_5 
REMARK    4  A    between atoms: C4_5  and  C5_6 
REMARK    5  A    between atoms: C5_6  and  C6_7 
REMARK    6  A    between atoms: C22_27  and  C23_29 
ROOT
HETATM    1  C6  UNL     1      23.216   2.372  51.720  1.00  0.00    -0.050 C 
HETATM    2  C7  UNL     1      23.816   2.521  50.507  1.00  0.00    -0.002 C 
HETATM    3  C8  UNL     1      23.077   2.484  49.239  1.00  0.00     0.134 C 
HETATM    4  C9  UNL     1      21.759   1.845  49.640  1.00  0.00     0.053 C 
HETATM    5  C10 UNL     1      21.266   0.824  48.951  1.00  0.00     0.047 C 
HETATM    6  O1  UNL     1      21.065   2.359  50.764  1.00  0.00    -0.342 OA
HETATM    7  C11 UNL     1      21.865   3.082  51.718  1.00  0.00     0.180 C 
HETATM    8  C12 UNL     1      22.057   4.483  51.287  1.00  0.00     0.006 C 
HETATM    9  C13 UNL     1      22.903   5.271  51.930  1.00  0.00    -0.028 C 
HETATM   10  C14 UNL     1      22.999   6.670  51.353  1.00  0.00     0.027 C 
HETATM   11  C15 UNL     1      24.487   6.831  51.051  1.00  0.00     0.005 C 
HETATM   12  C16 UNL     1      25.141   5.765  50.305  1.00  0.00     0.021 C 
HETATM   13  C17 UNL     1      24.883   5.350  48.959  1.00  0.00     0.131 C 
HETATM   14  N2  UNL     1      23.643   4.901  48.455  1.00  0.00    -0.324 N 
HETATM   15  C18 UNL     1      22.888   5.707  47.640  1.00  0.00     0.135 A 
HETATM   16  C19 UNL     1      23.135   7.069  47.178  1.00  0.00     0.119 C 
HETATM   17  N3  UNL     1      23.348   8.155  46.823  1.00  0.00    -0.190 NA
HETATM   18  C20 UNL     1      21.751   5.095  47.232  1.00  0.00     0.160 A 
HETATM   19  N4  UNL     1      21.783   3.889  47.795  1.00  0.00    -0.243 NA
HETATM   20  C21 UNL     1      22.904   3.757  48.528  1.00  0.00     0.121 A 
ENDROOT
BRANCH   1  21
HETATM   21  C5  UNL     1      23.618   1.688  52.954  1.00  0.00     0.038 C 
BRANCH  21  22
HETATM   22  C4  UNL     1      23.673   0.165  52.807  1.00  0.00     0.025 C 
BRANCH  22  23
HETATM   23  C3  UNL     1      24.693  -0.307  53.845  1.00  0.00     0.131 C 
BRANCH  23  24
HETATM   24  N1  UNL     1      26.041  -0.127  53.383  1.00  0.00    -0.332 N 
HETATM   25  C22 UNL     1      26.943   0.778  54.007  1.00  0.00     0.226 C 
HETATM   26  O2  UNL     1      26.516   1.436  55.008  1.00  0.00    -0.273 OA
BRANCH  24  27
HETATM   27  C2  UNL     1      26.459  -0.893  52.261  1.00  0.00     0.067 C 
HETATM   28  C1  UNL     1      26.834  -2.147  52.356  1.00  0.00     0.050 C 
ENDBRANCH  24  27
BRANCH  25  29
HETATM   29  C23 UNL     1      28.320   0.949  53.516  1.00  0.00     0.070 C 
HETATM   30  C24 UNL     1      29.197   0.044  54.353  1.00  0.00     0.019 C 
HETATM   31  C25 UNL     1      28.782   2.375  53.623  1.00  0.00     0.019 C 
ENDBRANCH  25  29
ENDBRANCH  23  24
ENDBRANCH  22  23
ENDBRANCH  21  22
ENDBRANCH   1  21
TORSDOF 6
ENDMDL
MODEL 3
REMARK VINA RESULT:      -8.1      1.956      3.852
REMARK  6 active torsions:
REMARK  status: ('A' for Active; 'I' for Inactive)
REMARK    1  A    between atoms: C2_2  and  N1_3 
REMARK    2  A    between atoms: N1_3  and  C3_4 
REMARK       I    between atoms: N1_3  and  C22_27 
REMARK    3  A    between atoms: C3_4  and  C4_5 
REMARK    4  A    between atoms: C4_5  and  C5_6 
REMARK    5  A    between atoms: C5_6  and  C6_7 
REMARK    6  A    between atoms: C22_27  and  C23_29 
ROOT
HETATM    1  C6  UNL     1      23.495   3.369  51.916  1.00  0.00    -0.050 C 
HETATM    2  C7  UNL     1      22.354   4.023  52.269  1.00  0.00    -0.002 C 
HETATM    3  C8  UNL     1      21.884   5.236  51.589  1.00  0.00     0.134 C 
HETATM    4  C9  UNL     1      23.123   5.702  50.845  1.00  0.00     0.053 C 
HETATM    5  C10 UNL     1      23.531   6.961  50.933  1.00  0.00     0.047 C 
HETATM    6  O1  UNL     1      23.835   4.767  50.052  1.00  0.00    -0.342 OA
HETATM    7  C11 UNL     1      23.648   3.381  50.398  1.00  0.00     0.180 C 
HETATM    8  C12 UNL     1      22.413   2.850  49.784  1.00  0.00     0.006 C 
HETATM    9  C13 UNL     1      21.963   1.651  50.115  1.00  0.00    -0.028 C 
HETATM   10  C14 UNL     1      20.677   1.261  49.413  1.00  0.00     0.027 C 
HETATM   11  C15 UNL     1      19.724   0.941  50.563  1.00  0.00     0.005 C 
HETATM   12  C16 UNL     1      19.618   1.916  51.639  1.00  0.00     0.021 C 
HETATM   13  C17 UNL     1      19.120   3.256  51.563  1.00  0.00     0.131 C 
HETATM   14  N2  UNL     1      19.622   4.278  50.727  1.00  0.00    -0.324 N 
HETATM   15  C18 UNL     1      18.927   4.670  49.611  1.00  0.00     0.135 A 
HETATM   16  C19 UNL     1      17.671   4.168  49.063  1.00  0.00     0.119 C 
HETATM   17  N3  UNL     1      16.671   3.753  48.640  1.00  0.00    -0.190 NA
HETATM   18  C20 UNL     1      19.547   5.681  48.955  1.00  0.00     0.160 A 
HETATM   19  N4  UNL     1      20.647   5.932  49.661  1.00  0.00    -0.243 NA
HETATM   20  C21 UNL     1      20.708   5.104  50.721  1.00  0.00     0.121 A 
ENDROOT
BRANCH   1  21
HETATM   21  C5  UNL     1      24.541   2.698  52.695  1.00  0.00     0.038 C 
BRANCH  21  22
HETATM   22  C4  UNL     1      24.575   1.183  52.475  1.00  0.00     0.025 C 
BRANCH  22  23
HETATM   23  C3  UNL     1      25.922   0.899  51.806  1.00  0.00     0.131 C 
BRANCH  23  24
HETATM   24  N1  UNL     1      26.893   0.427  52.754  1.00  0.00    -0.332 N 
HETATM   25  C22 UNL     1      28.014   1.211  53.147  1.00  0.00     0.226 C 
HETATM   26  O2  UNL     1      28.133   2.366  52.628  1.00  0.00    -0.273 OA
BRANCH  24  27
HETATM   27  C2  UNL     1      26.703  -0.871  53.299  1.00  0.00     0.067 C 
HETATM   28  C1  UNL     1      26.874  -1.969  52.600  1.00  0.00     0.050 C 
ENDBRANCH  24  27
BRANCH  25  29
HETATM   29  C23 UNL     1      28.999   0.708  54.118  1.00  0.00     0.070 C 
HETATM   30  C24 UNL     1      29.624   1.920  54.773  1.00  0.00     0.019 C 
HETATM   31  C25 UNL     1      30.052  -0.139  53.463  1.00  0.00     0.019 C 
ENDBRANCH  25  29
ENDBRANCH  23  24
ENDBRANCH  22  23
ENDBRANCH  21  22
ENDBRANCH   1  21
TORSDOF 6
ENDMDL
MODEL 4
REMARK VINA RESULT:      -7.8      2.115      4.303
REMARK  6 active torsions:
REMARK  status: ('A' for Active; 'I' for Inactive)
REMARK    1  A    between atoms: C2_2  and  N1_3 
REMARK    2  A    between atoms: N1_3  and  C3_4 
REMARK       I    between atoms: N1_3  and  C22_27 
REMARK    3  A    between atoms: C3_4  and  C4_5 
REMARK    4  A    between atoms: C4_5  and  C5_6 
REMARK    5  A    between atoms: C5_6  and  C6_7 
REMARK    6  A    between atoms: C22_27  and  C23_29 
ROOT
HETATM    1  C6  UNL     1      23.808   4.338  50.166  1.00  0.00    -0.050 C 
HETATM    2  C7  UNL     1      22.910   4.625  51.147  1.00  0.00    -0.002 C 
HETATM    3  C8  UNL     1      21.716   5.449  50.924  1.00  0.00     0.134 C 
HETATM    4  C9  UNL     1      22.035   6.149  49.614  1.00  0.00     0.053 C 
HETATM    5  C10 UNL     1      21.897   7.463  49.498  1.00  0.00     0.047 C 
HETATM    6  O1  UNL     1      22.484   5.371  48.517  1.00  0.00    -0.342 OA
HETATM    7  C11 UNL     1      23.076   4.101  48.849  1.00  0.00     0.180 C 
HETATM    8  C12 UNL     1      22.031   3.075  49.055  1.00  0.00     0.006 C 
HETATM    9  C13 UNL     1      22.349   1.885  49.537  1.00  0.00    -0.028 C 
HETATM   10  C14 UNL     1      21.164   0.954  49.707  1.00  0.00     0.027 C 
HETATM   11  C15 UNL     1      21.223   0.565  51.183  1.00  0.00     0.005 C 
HETATM   12  C16 UNL     1      21.363   1.640  52.155  1.00  0.00     0.021 C 
HETATM   13  C17 UNL     1      20.434   2.691  52.441  1.00  0.00     0.131 C 
HETATM   14  N2  UNL     1      19.944   3.636  51.513  1.00  0.00    -0.324 N 
HETATM   15  C18 UNL     1      18.662   3.543  51.035  1.00  0.00     0.135 A 
HETATM   16  C19 UNL     1      17.628   2.549  51.307  1.00  0.00     0.119 C 
HETATM   17  N3  UNL     1      16.818   1.747  51.534  1.00  0.00    -0.190 NA
HETATM   18  C20 UNL     1      18.363   4.553  50.182  1.00  0.00     0.160 A 
HETATM   19  N4  UNL     1      19.467   5.293  50.118  1.00  0.00    -0.243 NA
HETATM   20  C21 UNL     1      20.420   4.761  50.905  1.00  0.00     0.121 A 
ENDROOT
BRANCH   1  21
HETATM   21  C5  UNL     1      25.271   4.225  50.154  1.00  0.00     0.038 C 
BRANCH  21  22
HETATM   22  C4  UNL     1      25.763   2.780  50.267  1.00  0.00     0.025 C 
BRANCH  22  23
HETATM   23  C3  UNL     1      26.800   2.790  51.392  1.00  0.00     0.131 C 
BRANCH  23  24
HETATM   24  N1  UNL     1      26.747   1.584  52.171  1.00  0.00    -0.332 N 
HETATM   25  C22 UNL     1      27.840   1.147  52.970  1.00  0.00     0.226 C 
HETATM   26  O2  UNL     1      28.886   1.870  52.979  1.00  0.00    -0.273 OA
BRANCH  24  27
HETATM   27  C2  UNL     1      25.549   0.821  52.120  1.00  0.00     0.067 C 
HETATM   28  C1  UNL     1      24.653   0.840  53.079  1.00  0.00     0.050 C 
ENDBRANCH  24  27
BRANCH  25  29
HETATM   29  C23 UNL     1      27.765  -0.093  53.760  1.00  0.00     0.070 C 
HETATM   30  C24 UNL     1      28.451   0.187  55.078  1.00  0.00     0.019 C 
HETATM   31  C25 UNL     1      28.424  -1.247  53.058  1.00  0.00     0.019 C 
ENDBRANCH  25  29
ENDBRANCH  23  24
ENDBRANCH  22  23
ENDBRANCH  21  22
ENDBRANCH   1  21
TORSDOF 6
ENDMDL
MODEL 5
REMARK VINA RESULT:      -7.8      3.905      6.249
REMARK  6 active torsions:
REMARK  status: ('A' for Active; 'I' for Inactive)
REMARK    1  A    between atoms: C2_2  and  N1_3 
REMARK    2  A    between atoms: N1_3  and  C3_4 
REMARK       I    between atoms: N1_3  and  C22_27 
REMARK    3  A    between atoms: C3_4  and  C4_5 
REMARK    4  A    between atoms: C4_5  and  C5_6 
REMARK    5  A    between atoms: C5_6  and  C6_7 
REMARK    6  A    between atoms: C22_27  and  C23_29 
ROOT
HETATM    1  C6  UNL     1      23.654   3.494  50.690  1.00  0.00    -0.050 C 
HETATM    2  C7  UNL     1      23.492   2.143  50.659  1.00  0.00    -0.002 C 
HETATM    3  C8  UNL     1      23.686   1.287  51.836  1.00  0.00     0.134 C 
HETATM    4  C9  UNL     1      24.466   2.187  52.778  1.00  0.00     0.053 C 
HETATM    5  C10 UNL     1      25.573   1.754  53.364  1.00  0.00     0.047 C 
HETATM    6  O1  UNL     1      23.987   3.499  53.020  1.00  0.00    -0.342 OA
HETATM    7  C11 UNL     1      23.121   4.047  52.008  1.00  0.00     0.180 C 
HETATM    8  C12 UNL     1      21.731   3.583  52.200  1.00  0.00     0.006 C 
HETATM    9  C13 UNL     1      20.811   3.829  51.282  1.00  0.00    -0.028 C 
HETATM   10  C14 UNL     1      19.442   3.270  51.619  1.00  0.00     0.027 C 
HETATM   11  C15 UNL     1      19.109   2.388  50.418  1.00  0.00     0.005 C 
HETATM   12  C16 UNL     1      20.121   1.435  49.984  1.00  0.00     0.021 C 
HETATM   13  C17 UNL     1      20.632   0.309  50.706  1.00  0.00     0.131 C 
HETATM   14  N2  UNL     1      21.260   0.352  51.970  1.00  0.00    -0.324 N 
HETATM   15  C18 UNL     1      20.598  -0.079  53.092  1.00  0.00     0.135 A 
HETATM   16  C19 UNL     1      19.240  -0.594  53.241  1.00  0.00     0.119 C 
HETATM   17  N3  UNL     1      18.156  -1.000  53.341  1.00  0.00    -0.190 NA
HETATM   18  C20 UNL     1      21.369   0.010  54.203  1.00  0.00     0.160 A 
HETATM   19  N4  UNL     1      22.531   0.503  53.782  1.00  0.00    -0.243 NA
HETATM   20  C21 UNL     1      22.483   0.714  52.453  1.00  0.00     0.121 A 
ENDROOT
BRANCH   1  21
HETATM   21  C5  UNL     1      24.218   4.453  49.734  1.00  0.00     0.038 C 
BRANCH  21  22
HETATM   22  C4  UNL     1      25.587   4.990  50.159  1.00  0.00     0.025 C 
BRANCH  22  23
HETATM   23  C3  UNL     1      26.473   4.877  48.916  1.00  0.00     0.131 C 
BRANCH  23  24
HETATM   24  N1  UNL     1      27.123   6.122  48.615  1.00  0.00    -0.332 N 
HETATM   25  C22 UNL     1      28.517   6.204  48.343  1.00  0.00     0.226 C 
HETATM   26  O2  UNL     1      29.185   5.122  48.371  1.00  0.00    -0.273 OA
BRANCH  24  27
HETATM   27  C2  UNL     1      26.321   7.295  48.596  1.00  0.00     0.067 C 
HETATM   28  C1  UNL     1      25.511   7.587  47.605  1.00  0.00     0.050 C 
ENDBRANCH  24  27
BRANCH  25  29
HETATM   29  C23 UNL     1      29.164   7.490  48.037  1.00  0.00     0.070 C 
HETATM   30  C24 UNL     1      29.274   7.578  46.531  1.00  0.00     0.019 C 
HETATM   31  C25 UNL     1      30.522   7.600  48.671  1.00  0.00     0.019 C 
ENDBRANCH  25  29
ENDBRANCH  23  24
ENDBRANCH  22  23
ENDBRANCH  21  22
ENDBRANCH   1  21
TORSDOF 6
ENDMDL
MODEL 6
REMARK VINA RESULT:      -7.8      1.866      3.324
REMARK  6 active torsions:
REMARK  status: ('A' for Active; 'I' for Inactive)
REMARK    1  A    between atoms: C2_2  and  N1_3 
REMARK    2  A    between atoms: N1_3  and  C3_4 
REMARK       I    between atoms: N1_3  and  C22_27 
REMARK    3  A    between atoms: C3_4  and  C4_5 
REMARK    4  A    between atoms: C4_5  and  C5_6 
REMARK    5  A    between atoms: C5_6  and  C6_7 
REMARK    6  A    between atoms: C22_27  and  C23_29 
ROOT
HETATM    1  C6  UNL     1      22.901   2.032  51.143  1.00  0.00    -0.050 C 
HETATM    2  C7  UNL     1      22.087   1.167  50.478  1.00  0.00    -0.002 C 
HETATM    3  C8  UNL     1      21.280   0.146  51.156  1.00  0.00     0.134 C 
HETATM    4  C9  UNL     1      21.925   0.068  52.529  1.00  0.00     0.053 C 
HETATM    5  C10 UNL     1      22.265  -1.102  53.051  1.00  0.00     0.047 C 
HETATM    6  O1  UNL     1      22.156   1.271  53.243  1.00  0.00    -0.342 OA
HETATM    7  C11 UNL     1      22.237   2.468  52.445  1.00  0.00     0.180 C 
HETATM    8  C12 UNL     1      20.886   2.991  52.147  1.00  0.00     0.006 C 
HETATM    9  C13 UNL     1      20.728   3.981  51.285  1.00  0.00    -0.028 C 
HETATM   10  C14 UNL     1      19.282   4.388  51.074  1.00  0.00     0.027 C 
HETATM   11  C15 UNL     1      19.087   4.248  49.566  1.00  0.00     0.005 C 
HETATM   12  C16 UNL     1      19.518   3.004  48.946  1.00  0.00     0.021 C 
HETATM   13  C17 UNL     1      18.997   1.688  49.164  1.00  0.00     0.131 C 
HETATM   14  N2  UNL     1      18.944   1.015  50.404  1.00  0.00    -0.324 N 
HETATM   15  C18 UNL     1      17.752   0.869  51.067  1.00  0.00     0.135 A 
HETATM   16  C19 UNL     1      16.417   1.343  50.714  1.00  0.00     0.119 C 
HETATM   17  N3  UNL     1      15.363   1.731  50.418  1.00  0.00    -0.190 NA
HETATM   18  C20 UNL     1      17.893   0.171  52.220  1.00  0.00     0.160 A 
HETATM   19  N4  UNL     1      19.188  -0.128  52.290  1.00  0.00    -0.243 NA
HETATM   20  C21 UNL     1      19.830   0.368  51.215  1.00  0.00     0.121 A 
ENDROOT
BRANCH   1  21
HETATM   21  C5  UNL     1      24.227   2.583  50.844  1.00  0.00     0.038 C 
BRANCH  21  22
HETATM   22  C4  UNL     1      25.155   2.611  52.062  1.00  0.00     0.025 C 
BRANCH  22  23
HETATM   23  C3  UNL     1      26.541   2.246  51.526  1.00  0.00     0.131 C 
BRANCH  23  24
HETATM   24  N1  UNL     1      27.085   1.101  52.204  1.00  0.00    -0.332 N 
HETATM   25  C22 UNL     1      28.227   1.191  53.047  1.00  0.00     0.226 C 
HETATM   26  O2  UNL     1      28.764   2.335  53.189  1.00  0.00    -0.273 OA
BRANCH  24  27
HETATM   27  C2  UNL     1      26.439  -0.149  52.005  1.00  0.00     0.067 C 
HETATM   28  C1  UNL     1      25.747  -0.749  52.946  1.00  0.00     0.050 C 
ENDBRANCH  24  27
BRANCH  25  29
HETATM   29  C23 UNL     1      28.770   0.006  53.731  1.00  0.00     0.070 C 
HETATM   30  C24 UNL     1      28.579   0.232  55.214  1.00  0.00     0.019 C 
HETATM   31  C25 UNL     1      30.222  -0.211  53.414  1.00  0.00     0.019 C 
ENDBRANCH  25  29
ENDBRANCH  23  24
ENDBRANCH  22  23
ENDBRANCH  21  22
ENDBRANCH   1  21
TORSDOF 6
ENDMDL
MODEL 7
REMARK VINA RESULT:      -7.8      2.095      4.769
REMARK  6 active torsions:
REMARK  status: ('A' for Active; 'I' for Inactive)
REMARK    1  A    between atoms: C2_2  and  N1_3 
REMARK    2  A    between atoms: N1_3  and  C3_4 
REMARK       I    between atoms: N1_3  and  C22_27 
REMARK    3  A    between atoms: C3_4  and  C4_5 
REMARK    4  A    between atoms: C4_5  and  C5_6 
REMARK    5  A    between atoms: C5_6  and  C6_7 
REMARK    6  A    between atoms: C22_27  and  C23_29 
ROOT
HETATM    1  C6  UNL     1      24.653   3.868  50.728  1.00  0.00    -0.050 C 
HETATM    2  C7  UNL     1      23.567   4.158  51.496  1.00  0.00    -0.002 C 
HETATM    3  C8  UNL     1      22.795   5.399  51.354  1.00  0.00     0.134 C 
HETATM    4  C9  UNL     1      23.738   6.290  50.565  1.00  0.00     0.053 C 
HETATM    5  C10 UNL     1      23.998   7.526  50.969  1.00  0.00     0.047 C 
HETATM    6  O1  UNL     1      24.336   5.776  49.386  1.00  0.00    -0.342 OA
HETATM    7  C11 UNL     1      24.414   4.341  49.297  1.00  0.00     0.180 C 
HETATM    8  C12 UNL     1      23.139   3.776  48.809  1.00  0.00     0.006 C 
HETATM    9  C13 UNL     1      22.938   2.468  48.819  1.00  0.00    -0.028 C 
HETATM   10  C14 UNL     1      21.574   2.051  48.305  1.00  0.00     0.027 C 
HETATM   11  C15 UNL     1      20.990   1.237  49.458  1.00  0.00     0.005 C 
HETATM   12  C16 UNL     1      21.041   1.826  50.789  1.00  0.00     0.021 C 
HETATM   13  C17 UNL     1      20.379   3.009  51.251  1.00  0.00     0.131 C 
HETATM   14  N2  UNL     1      20.524   4.304  50.706  1.00  0.00    -0.324 N 
HETATM   15  C18 UNL     1      19.526   4.854  49.941  1.00  0.00     0.135 A 
HETATM   16  C19 UNL     1      18.244   4.293  49.527  1.00  0.00     0.119 C 
HETATM   17  N3  UNL     1      17.229   3.829  49.205  1.00  0.00    -0.190 NA
HETATM   18  C20 UNL     1      19.831   6.109  49.535  1.00  0.00     0.160 A 
HETATM   19  N4  UNL     1      21.035   6.359  50.046  1.00  0.00    -0.243 NA
HETATM   20  C21 UNL     1      21.463   5.292  50.746  1.00  0.00     0.121 A 
ENDROOT
BRANCH   1  21
HETATM   21  C5  UNL     1      25.936   3.220  51.020  1.00  0.00     0.038 C 
BRANCH  21  22
HETATM   22  C4  UNL     1      25.821   1.702  51.177  1.00  0.00     0.025 C 
BRANCH  22  23
HETATM   23  C3  UNL     1      25.862   1.444  52.685  1.00  0.00     0.131 C 
BRANCH  23  24
HETATM   24  N1  UNL     1      25.144   0.251  53.037  1.00  0.00    -0.332 N 
HETATM   25  C22 UNL     1      23.765   0.270  53.387  1.00  0.00     0.226 C 
HETATM   26  O2  UNL     1      23.172   1.396  53.376  1.00  0.00    -0.273 OA
BRANCH  24  27
HETATM   27  C2  UNL     1      25.862  -0.975  53.028  1.00  0.00     0.067 C 
HETATM   28  C1  UNL     1      27.173  -1.032  53.068  1.00  0.00     0.050 C 
ENDBRANCH  24  27
BRANCH  25  29
HETATM   29  C23 UNL     1      23.048  -0.964  53.746  1.00  0.00     0.070 C 
HETATM   30  C24 UNL     1      21.628  -0.805  53.249  1.00  0.00     0.019 C 
HETATM   31  C25 UNL     1      23.062  -1.211  55.228  1.00  0.00     0.019 C 
ENDBRANCH  25  29
ENDBRANCH  23  24
ENDBRANCH  22  23
ENDBRANCH  21  22
ENDBRANCH   1  21
TORSDOF 6
ENDMDL
MODEL 8
REMARK VINA RESULT:      -7.7      3.214      5.465
REMARK  6 active torsions:
REMARK  status: ('A' for Active; 'I' for Inactive)
REMARK    1  A    between atoms: C2_2  and  N1_3 
REMARK    2  A    between atoms: N1_3  and  C3_4 
REMARK       I    between atoms: N1_3  and  C22_27 
REMARK    3  A    between atoms: C3_4  and  C4_5 
REMARK    4  A    between atoms: C4_5  and  C5_6 
REMARK    5  A    between atoms: C5_6  and  C6_7 
REMARK    6  A    between atoms: C22_27  and  C23_29 
ROOT
HETATM    1  C6  UNL     1      22.773   3.616  50.499  1.00  0.00    -0.050 C 
HETATM    2  C7  UNL     1      23.587   4.512  51.123  1.00  0.00    -0.002 C 
HETATM    3  C8  UNL     1      24.996   4.702  50.759  1.00  0.00     0.134 C 
HETATM    4  C9  UNL     1      25.304   3.451  49.954  1.00  0.00     0.053 C 
HETATM    5  C10 UNL     1      26.377   2.721  50.224  1.00  0.00     0.047 C 
HETATM    6  O1  UNL     1      24.422   3.079  48.907  1.00  0.00    -0.342 OA
HETATM    7  C11 UNL     1      23.081   3.594  49.005  1.00  0.00     0.180 C 
HETATM    8  C12 UNL     1      23.009   4.973  48.476  1.00  0.00     0.006 C 
HETATM    9  C13 UNL     1      21.910   5.692  48.630  1.00  0.00    -0.028 C 
HETATM   10  C14 UNL     1      22.003   7.090  48.051  1.00  0.00     0.027 C 
HETATM   11  C15 UNL     1      21.676   7.993  49.238  1.00  0.00     0.005 C 
HETATM   12  C16 UNL     1      22.387   7.748  50.484  1.00  0.00     0.021 C 
HETATM   13  C17 UNL     1      23.791   7.881  50.734  1.00  0.00     0.131 C 
HETATM   14  N2  UNL     1      24.821   7.200  50.049  1.00  0.00    -0.324 N 
HETATM   15  C18 UNL     1      25.603   7.859  49.134  1.00  0.00     0.135 A 
HETATM   16  C19 UNL     1      25.549   9.244  48.678  1.00  0.00     0.119 C 
HETATM   17  N3  UNL     1      25.489  10.350  48.325  1.00  0.00    -0.190 NA
HETATM   18  C20 UNL     1      26.555   7.053  48.604  1.00  0.00     0.160 A 
HETATM   19  N4  UNL     1      26.373   5.870  49.187  1.00  0.00    -0.243 NA
HETATM   20  C21 UNL     1      25.343   5.940  50.051  1.00  0.00     0.121 A 
ENDROOT
BRANCH   1  21
HETATM   21  C5  UNL     1      21.716   2.722  50.984  1.00  0.00     0.038 C 
BRANCH  21  22
HETATM   22  C4  UNL     1      22.220   1.311  51.298  1.00  0.00     0.025 C 
BRANCH  22  23
HETATM   23  C3  UNL     1      22.366   1.261  52.820  1.00  0.00     0.131 C 
BRANCH  23  24
HETATM   24  N1  UNL     1      23.333   0.279  53.226  1.00  0.00    -0.332 N 
HETATM   25  C22 UNL     1      24.706   0.599  53.419  1.00  0.00     0.226 C 
HETATM   26  O2  UNL     1      25.061   1.804  53.220  1.00  0.00    -0.273 OA
BRANCH  24  27
HETATM   27  C2  UNL     1      22.873  -1.050  53.434  1.00  0.00     0.067 C 
HETATM   28  C1  UNL     1      21.823  -1.332  54.169  1.00  0.00     0.050 C 
ENDBRANCH  24  27
BRANCH  25  29
HETATM   29  C23 UNL     1      25.681  -0.423  53.834  1.00  0.00     0.070 C 
HETATM   30  C24 UNL     1      26.529   0.199  54.921  1.00  0.00     0.019 C 
HETATM   31  C25 UNL     1      26.541  -0.876  52.689  1.00  0.00     0.019 C 
ENDBRANCH  25  29
ENDBRANCH  23  24
ENDBRANCH  22  23
ENDBRANCH  21  22
ENDBRANCH   1  21
TORSDOF 6
ENDMDL
MODEL 9
REMARK VINA RESULT:      -7.7      2.112      3.997
REMARK  6 active torsions:
REMARK  status: ('A' for Active; 'I' for Inactive)
REMARK    1  A    between atoms: C2_2  and  N1_3 
REMARK    2  A    between atoms: N1_3  and  C3_4 
REMARK       I    between atoms: N1_3  and  C22_27 
REMARK    3  A    between atoms: C3_4  and  C4_5 
REMARK    4  A    between atoms: C4_5  and  C5_6 
REMARK    5  A    between atoms: C5_6  and  C6_7 
REMARK    6  A    between atoms: C22_27  and  C23_29 
ROOT
HETATM    1  C6  UNL     1      23.734   3.567  51.607  1.00  0.00    -0.050 C 
HETATM    2  C7  UNL     1      22.845   4.487  51.143  1.00  0.00    -0.002 C 
HETATM    3  C8  UNL     1      23.057   5.252  49.908  1.00  0.00     0.134 C 
HETATM    4  C9  UNL     1      24.543   5.069  49.653  1.00  0.00     0.053 C 
HETATM    5  C10 UNL     1      25.320   6.113  49.401  1.00  0.00     0.047 C 
HETATM    6  O1  UNL     1      25.084   3.759  49.688  1.00  0.00    -0.342 OA
HETATM    7  C11 UNL     1      24.329   2.788  50.438  1.00  0.00     0.180 C 
HETATM    8  C12 UNL     1      23.230   2.233  49.619  1.00  0.00     0.006 C 
HETATM    9  C13 UNL     1      22.312   1.456  50.169  1.00  0.00    -0.028 C 
HETATM   10  C14 UNL     1      21.244   0.985  49.201  1.00  0.00     0.027 C 
HETATM   11  C15 UNL     1      19.942   1.449  49.850  1.00  0.00     0.005 C 
HETATM   12  C16 UNL     1      19.868   2.836  50.290  1.00  0.00     0.021 C 
HETATM   13  C17 UNL     1      19.919   4.017  49.482  1.00  0.00     0.131 C 
HETATM   14  N2  UNL     1      20.973   4.381  48.615  1.00  0.00    -0.324 N 
HETATM   15  C18 UNL     1      20.828   4.267  47.255  1.00  0.00     0.135 A 
HETATM   16  C19 UNL     1      19.701   3.772  46.470  1.00  0.00     0.119 C 
HETATM   17  N3  UNL     1      18.795   3.373  45.861  1.00  0.00    -0.190 NA
HETATM   18  C20 UNL     1      21.928   4.691  46.589  1.00  0.00     0.160 A 
HETATM   19  N4  UNL     1      22.781   5.077  47.536  1.00  0.00    -0.243 NA
HETATM   20  C21 UNL     1      22.227   4.898  48.750  1.00  0.00     0.121 A 
ENDROOT
BRANCH   1  21
HETATM   21  C5  UNL     1      24.193   3.216  52.955  1.00  0.00     0.038 C 
BRANCH  21  22
HETATM   22  C4  UNL     1      24.501   1.725  53.116  1.00  0.00     0.025 C 
BRANCH  22  23
HETATM   23  C3  UNL     1      25.664   1.654  54.108  1.00  0.00     0.131 C 
BRANCH  23  24
HETATM   24  N1  UNL     1      26.816   1.021  53.528  1.00  0.00    -0.332 N 
HETATM   25  C22 UNL     1      27.058  -0.375  53.653  1.00  0.00     0.226 C 
HETATM   26  O2  UNL     1      26.209  -1.063  54.305  1.00  0.00    -0.273 OA
BRANCH  24  27
HETATM   27  C2  UNL     1      27.726   1.843  52.811  1.00  0.00     0.067 C 
HETATM   28  C1  UNL     1      28.661   2.552  53.400  1.00  0.00     0.050 C 
ENDBRANCH  24  27
BRANCH  25  29
HETATM   29  C23 UNL     1      28.246  -1.004  53.052  1.00  0.00     0.070 C 
HETATM   30  C24 UNL     1      27.861  -2.426  52.709  1.00  0.00     0.019 C 
HETATM   31  C25 UNL     1      29.423  -0.988  53.985  1.00  0.00     0.019 C 
ENDBRANCH  25  29
ENDBRANCH  23  24
ENDBRANCH  22  23
ENDBRANCH  21  22
ENDBRANCH   1  21
TORSDOF 6
ENDMDL
