MODEL 1
REMARK VINA RESULT:      -7.4      0.000      0.000
REMARK  6 active torsions:
REMARK  status: ('A' for Active; 'I' for Inactive)
REMARK    1  A    between atoms: C1_2  and  C2_3 
REMARK       I    between atoms: C1_2  and  N1_10 
REMARK    2  A    between atoms: C2_3  and  C3_4 
REMARK    3  A    between atoms: N1_10  and  C9_11 
REMARK    4  A    between atoms: C9_11  and  S1_12 
REMARK    5  A    between atoms: S1_12  and  N2_13 
REMARK    6  A    between atoms: S1_12  and  C10_15 
ROOT
HETATM    1  O1  UNL     1      26.543   2.041  54.365  1.00  0.00    -0.273 OA
HETATM    2  C1  UNL     1      27.037   2.118  53.208  1.00  0.00     0.222 C 
HETATM    3  N1  UNL     1      26.582   2.596  51.965  1.00  0.00    -0.351 N 
HETATM    4  H8  UNL     1      27.284   2.496  51.202  1.00  0.00     0.163 HD
ENDROOT
BRANCH   3   5
HETATM    5  C9  UNL     1      25.214   3.116  52.084  1.00  0.00     0.217 C 
BRANCH   5   6
HETATM    6  S1  UNL     1      24.112   2.317  50.940  1.00  0.00    -0.018 SA
BRANCH   6   7
HETATM    7  N2  UNL     1      23.121   3.402  50.361  1.00  0.00    -0.057 NA
HETATM    8  F1  UNL     1      22.486   4.228  51.190  1.00  0.00    -0.067 F 
ENDBRANCH   6   7
BRANCH   6   9
HETATM    9  C10 UNL     1      23.117   1.158  51.879  1.00  0.00     0.015 A 
HETATM   10  C11 UNL     1      23.673   0.520  52.966  1.00  0.00     0.021 A 
HETATM   11  C12 UNL     1      22.901  -0.381  53.699  1.00  0.00     0.025 A 
HETATM   12  C13 UNL     1      21.597  -0.638  53.347  1.00  0.00     0.034 A 
HETATM   13 CL1  UNL     1      20.683  -1.775  54.304  1.00  0.00    -0.084 Cl
HETATM   14  C14 UNL     1      21.046   0.013  52.246  1.00  0.00     0.025 A 
HETATM   15  C15 UNL     1      21.806   0.920  51.501  1.00  0.00     0.021 A 
ENDBRANCH   6   9
ENDBRANCH   5   6
ENDBRANCH   3   5
BRANCH   2  16
HETATM   16  C2  UNL     1      28.386   1.527  53.417  1.00  0.00     0.141 C 
BRANCH  16  17
HETATM   17  C3  UNL     1      28.251   0.044  53.202  1.00  0.00    -0.050 A 
HETATM   18  C4  UNL     1      29.400  -0.672  53.508  1.00  0.00     0.007 A 
HETATM   19  C5  UNL     1      29.404  -2.046  53.352  1.00  0.00     0.001 A 
HETATM   20  C6  UNL     1      28.251  -2.640  52.895  1.00  0.00     0.000 A 
HETATM   21  C7  UNL     1      27.117  -1.930  52.593  1.00  0.00     0.001 A 
HETATM   22  C8  UNL     1      27.094  -0.550  52.743  1.00  0.00     0.007 A 
ENDBRANCH  16  17
ENDBRANCH   2  16
TORSDOF 6
ENDMDL
MODEL 2
REMARK VINA RESULT:      -7.3      3.877      6.350
REMARK  6 active torsions:
REMARK  status: ('A' for Active; 'I' for Inactive)
REMARK    1  A    between atoms: C1_2  and  C2_3 
REMARK       I    between atoms: C1_2  and  N1_10 
REMARK    2  A    between atoms: C2_3  and  C3_4 
REMARK    3  A    between atoms: N1_10  and  C9_11 
REMARK    4  A    between atoms: C9_11  and  S1_12 
REMARK    5  A    between atoms: S1_12  and  N2_13 
REMARK    6  A    between atoms: S1_12  and  C10_15 
ROOT
HETATM    1  O1  UNL     1      23.047   3.842  51.967  1.00  0.00    -0.273 OA
HETATM    2  C1  UNL     1      23.185   2.799  51.273  1.00  0.00     0.222 C 
HETATM    3  N1  UNL     1      23.374   1.435  51.558  1.00  0.00    -0.351 N 
HETATM    4  H8  UNL     1      23.449   0.841  50.706  1.00  0.00     0.163 HD
ENDROOT
BRANCH   3   5
HETATM    5  C9  UNL     1      23.416   1.214  53.009  1.00  0.00     0.217 C 
BRANCH   5   6
HETATM    6  S1  UNL     1      23.874  -0.458  53.401  1.00  0.00    -0.018 SA
BRANCH   6   7
HETATM    7  N2  UNL     1      23.305  -0.809  54.832  1.00  0.00    -0.057 NA
HETATM    8  F1  UNL     1      23.994  -1.609  55.643  1.00  0.00    -0.067 F 
ENDBRANCH   6   7
BRANCH   6   9
HETATM    9  C10 UNL     1      25.661  -0.504  53.532  1.00  0.00     0.015 A 
HETATM   10  C11 UNL     1      26.375  -1.350  52.712  1.00  0.00     0.021 A 
HETATM   11  C12 UNL     1      27.766  -1.386  52.811  1.00  0.00     0.025 A 
HETATM   12  C13 UNL     1      28.427  -0.591  53.716  1.00  0.00     0.034 A 
HETATM   13 CL1  UNL     1      30.169  -0.683  53.792  1.00  0.00    -0.084 Cl
HETATM   14  C14 UNL     1      27.695   0.260  54.540  1.00  0.00     0.025 A 
HETATM   15  C15 UNL     1      26.301   0.309  54.453  1.00  0.00     0.021 A 
ENDBRANCH   6   9
ENDBRANCH   5   6
ENDBRANCH   3   5
BRANCH   2  16
HETATM   16  C2  UNL     1      23.099   3.345  49.892  1.00  0.00     0.141 C 
BRANCH  16  17
HETATM   17  C3  UNL     1      24.448   3.929  49.570  1.00  0.00    -0.050 A 
HETATM   18  C4  UNL     1      24.395   5.234  49.098  1.00  0.00     0.007 A 
HETATM   19  C5  UNL     1      25.569   5.884  48.766  1.00  0.00     0.001 A 
HETATM   20  C6  UNL     1      26.748   5.193  48.923  1.00  0.00     0.000 A 
HETATM   21  C7  UNL     1      26.798   3.904  49.389  1.00  0.00     0.001 A 
HETATM   22  C8  UNL     1      25.629   3.235  49.727  1.00  0.00     0.007 A 
ENDBRANCH  16  17
ENDBRANCH   2  16
TORSDOF 6
ENDMDL
MODEL 3
REMARK VINA RESULT:      -7.2      2.956      3.377
REMARK  6 active torsions:
REMARK  status: ('A' for Active; 'I' for Inactive)
REMARK    1  A    between atoms: C1_2  and  C2_3 
REMARK       I    between atoms: C1_2  and  N1_10 
REMARK    2  A    between atoms: C2_3  and  C3_4 
REMARK    3  A    between atoms: N1_10  and  C9_11 
REMARK    4  A    between atoms: C9_11  and  S1_12 
REMARK    5  A    between atoms: S1_12  and  N2_13 
REMARK    6  A    between atoms: S1_12  and  C10_15 
ROOT
HETATM    1  O1  UNL     1      27.581   2.447  52.107  1.00  0.00    -0.273 OA
HETATM    2  C1  UNL     1      27.261   2.029  53.252  1.00  0.00     0.222 C 
HETATM    3  N1  UNL     1      26.089   2.065  54.030  1.00  0.00    -0.351 N 
HETATM    4  H8  UNL     1      26.194   1.604  54.957  1.00  0.00     0.163 HD
ENDROOT
BRANCH   3   5
HETATM    5  C9  UNL     1      25.014   2.759  53.307  1.00  0.00     0.217 C 
BRANCH   5   6
HETATM    6  S1  UNL     1      23.675   1.656  52.917  1.00  0.00    -0.018 SA
BRANCH   6   7
HETATM    7  N2  UNL     1      24.210   0.173  52.997  1.00  0.00    -0.057 NA
HETATM    8  F1  UNL     1      24.081  -0.519  54.127  1.00  0.00    -0.067 F 
ENDBRANCH   6   7
BRANCH   6   9
HETATM    9  C10 UNL     1      23.223   1.951  51.207  1.00  0.00     0.015 A 
HETATM   10  C11 UNL     1      23.953   2.852  50.463  1.00  0.00     0.021 A 
HETATM   11  C12 UNL     1      23.605   3.082  49.133  1.00  0.00     0.025 A 
HETATM   12  C13 UNL     1      22.543   2.422  48.560  1.00  0.00     0.034 A 
HETATM   13 CL1  UNL     1      22.157   2.754  46.891  1.00  0.00    -0.084 Cl
HETATM   14  C14 UNL     1      21.813   1.514  49.321  1.00  0.00     0.025 A 
HETATM   15  C15 UNL     1      22.149   1.271  50.656  1.00  0.00     0.021 A 
ENDBRANCH   6   9
ENDBRANCH   5   6
ENDBRANCH   3   5
BRANCH   2  16
HETATM   16  C2  UNL     1      28.528   1.395  53.706  1.00  0.00     0.141 C 
BRANCH  16  17
HETATM   17  C3  UNL     1      28.414  -0.074  53.399  1.00  0.00    -0.050 A 
HETATM   18  C4  UNL     1      29.579  -0.788  53.645  1.00  0.00     0.007 A 
HETATM   19  C5  UNL     1      29.603  -2.149  53.404  1.00  0.00     0.001 A 
HETATM   20  C6  UNL     1      28.454  -2.734  52.924  1.00  0.00     0.000 A 
HETATM   21  C7  UNL     1      27.305  -2.026  52.681  1.00  0.00     0.001 A 
HETATM   22  C8  UNL     1      27.261  -0.658  52.919  1.00  0.00     0.007 A 
ENDBRANCH  16  17
ENDBRANCH   2  16
TORSDOF 6
ENDMDL
MODEL 4
REMARK VINA RESULT:      -7.2      3.314      5.268
REMARK  6 active torsions:
REMARK  status: ('A' for Active; 'I' for Inactive)
REMARK    1  A    between atoms: C1_2  and  C2_3 
REMARK       I    between atoms: C1_2  and  N1_10 
REMARK    2  A    between atoms: C2_3  and  C3_4 
REMARK    3  A    between atoms: N1_10  and  C9_11 
REMARK    4  A    between atoms: C9_11  and  S1_12 
REMARK    5  A    between atoms: S1_12  and  N2_13 
REMARK    6  A    between atoms: S1_12  and  C10_15 
ROOT
HETATM    1  O1  UNL     1      27.438   2.858  51.491  1.00  0.00    -0.273 OA
HETATM    2  C1  UNL     1      26.294   2.571  51.046  1.00  0.00     0.222 C 
HETATM    3  N1  UNL     1      25.087   2.130  51.620  1.00  0.00    -0.351 N 
HETATM    4  H8  UNL     1      24.325   1.993  50.924  1.00  0.00     0.163 HD
ENDROOT
BRANCH   3   5
HETATM    5  C9  UNL     1      25.234   1.981  53.073  1.00  0.00     0.217 C 
BRANCH   5   6
HETATM    6  S1  UNL     1      25.122   0.277  53.568  1.00  0.00    -0.018 SA
BRANCH   6   7
HETATM    7  N2  UNL     1      25.822  -0.609  52.465  1.00  0.00    -0.057 NA
HETATM    8  F1  UNL     1      27.119  -0.448  52.209  1.00  0.00    -0.067 F 
ENDBRANCH   6   7
BRANCH   6   9
HETATM    9  C10 UNL     1      23.385  -0.166  53.560  1.00  0.00     0.015 A 
HETATM   10  C11 UNL     1      22.592   0.235  52.507  1.00  0.00     0.021 A 
HETATM   11  C12 UNL     1      21.240  -0.109  52.498  1.00  0.00     0.025 A 
HETATM   12  C13 UNL     1      20.695  -0.841  53.526  1.00  0.00     0.034 A 
HETATM   13 CL1  UNL     1      18.997  -1.241  53.456  1.00  0.00    -0.084 Cl
HETATM   14  C14 UNL     1      21.506  -1.242  54.584  1.00  0.00     0.025 A 
HETATM   15  C15 UNL     1      22.863  -0.906  54.608  1.00  0.00     0.021 A 
ENDBRANCH   6   9
ENDBRANCH   5   6
ENDBRANCH   3   5
BRANCH   2  16
HETATM   16  C2  UNL     1      26.469   2.817  49.589  1.00  0.00     0.141 C 
BRANCH  16  17
HETATM   17  C3  UNL     1      26.478   4.310  49.398  1.00  0.00    -0.050 A 
HETATM   18  C4  UNL     1      27.544   4.769  48.636  1.00  0.00     0.007 A 
HETATM   19  C5  UNL     1      27.667   6.123  48.387  1.00  0.00     0.001 A 
HETATM   20  C6  UNL     1      26.711   6.958  48.916  1.00  0.00     0.000 A 
HETATM   21  C7  UNL     1      25.658   6.503  49.669  1.00  0.00     0.001 A 
HETATM   22  C8  UNL     1      25.519   5.146  49.929  1.00  0.00     0.007 A 
ENDBRANCH  16  17
ENDBRANCH   2  16
TORSDOF 6
ENDMDL
MODEL 5
REMARK VINA RESULT:      -7.2      4.730      6.395
REMARK  6 active torsions:
REMARK  status: ('A' for Active; 'I' for Inactive)
REMARK    1  A    between atoms: C1_2  and  C2_3 
REMARK       I    between atoms: C1_2  and  N1_10 
REMARK    2  A    between atoms: C2_3  and  C3_4 
REMARK    3  A    between atoms: N1_10  and  C9_11 
REMARK    4  A    between atoms: C9_11  and  S1_12 
REMARK    5  A    between atoms: S1_12  and  N2_13 
REMARK    6  A    between atoms: S1_12  and  C10_15 
ROOT
HETATM    1  O1  UNL     1      23.453   1.539  51.223  1.00  0.00    -0.273 OA
HETATM    2  C1  UNL     1      24.026   2.237  52.103  1.00  0.00     0.222 C 
HETATM    3  N1  UNL     1      24.611   3.516  52.130  1.00  0.00    -0.351 N 
HETATM    4  H8  UNL     1      24.999   3.773  53.061  1.00  0.00     0.163 HD
ENDROOT
BRANCH   3   5
HETATM    5  C9  UNL     1      24.513   4.153  50.810  1.00  0.00     0.217 C 
BRANCH   5   6
HETATM    6  S1  UNL     1      25.817   3.613  49.728  1.00  0.00    -0.018 SA
BRANCH   6   7
HETATM    7  N2  UNL     1      26.959   2.967  50.608  1.00  0.00    -0.057 NA
HETATM    8  F1  UNL     1      26.966   1.654  50.826  1.00  0.00    -0.067 F 
ENDBRANCH   6   7
BRANCH   6   9
HETATM    9  C10 UNL     1      26.517   5.077  48.966  1.00  0.00     0.015 A 
HETATM   10  C11 UNL     1      27.854   5.089  48.633  1.00  0.00     0.021 A 
HETATM   11  C12 UNL     1      28.401   6.226  48.039  1.00  0.00     0.025 A 
HETATM   12  C13 UNL     1      27.621   7.330  47.786  1.00  0.00     0.034 A 
HETATM   13 CL1  UNL     1      28.365   8.723  47.041  1.00  0.00    -0.084 Cl
HETATM   14  C14 UNL     1      26.272   7.306  48.127  1.00  0.00     0.025 A 
HETATM   15  C15 UNL     1      25.708   6.174  48.722  1.00  0.00     0.021 A 
ENDBRANCH   6   9
ENDBRANCH   5   6
ENDBRANCH   3   5
BRANCH   2  16
HETATM   16  C2  UNL     1      23.965   1.337  53.286  1.00  0.00     0.141 C 
BRANCH  16  17
HETATM   17  C3  UNL     1      25.334   0.735  53.447  1.00  0.00    -0.050 A 
HETATM   18  C4  UNL     1      25.484  -0.491  52.813  1.00  0.00     0.007 A 
HETATM   19  C5  UNL     1      26.699  -1.148  52.885  1.00  0.00     0.001 A 
HETATM   20  C6  UNL     1      27.710  -0.543  53.594  1.00  0.00     0.000 A 
HETATM   21  C7  UNL     1      27.560   0.668  54.220  1.00  0.00     0.001 A 
HETATM   22  C8  UNL     1      26.348   1.343  54.157  1.00  0.00     0.007 A 
ENDBRANCH  16  17
ENDBRANCH   2  16
TORSDOF 6
ENDMDL
MODEL 6
REMARK VINA RESULT:      -7.1      3.972      5.467
REMARK  6 active torsions:
REMARK  status: ('A' for Active; 'I' for Inactive)
REMARK    1  A    between atoms: C1_2  and  C2_3 
REMARK       I    between atoms: C1_2  and  N1_10 
REMARK    2  A    between atoms: C2_3  and  C3_4 
REMARK    3  A    between atoms: N1_10  and  C9_11 
REMARK    4  A    between atoms: C9_11  and  S1_12 
REMARK    5  A    between atoms: S1_12  and  N2_13 
REMARK    6  A    between atoms: S1_12  and  C10_15 
ROOT
HETATM    1  O1  UNL     1      27.567   2.338  51.921  1.00  0.00    -0.273 OA
HETATM    2  C1  UNL     1      26.531   1.991  52.551  1.00  0.00     0.222 C 
HETATM    3  N1  UNL     1      25.159   1.926  52.245  1.00  0.00    -0.351 N 
HETATM    4  H8  UNL     1      24.576   1.579  53.035  1.00  0.00     0.163 HD
ENDROOT
BRANCH   3   5
HETATM    5  C9  UNL     1      24.918   2.374  50.868  1.00  0.00     0.217 C 
BRANCH   5   6
HETATM    6  S1  UNL     1      24.474   4.095  50.811  1.00  0.00    -0.018 SA
BRANCH   6   7
HETATM    7  N2  UNL     1      23.124   4.235  50.004  1.00  0.00    -0.057 NA
HETATM    8  F1  UNL     1      22.679   3.215  49.274  1.00  0.00    -0.067 F 
ENDBRANCH   6   7
BRANCH   6   9
HETATM    9  C10 UNL     1      25.736   4.939  49.858  1.00  0.00     0.015 A 
HETATM   10  C11 UNL     1      26.761   4.207  49.300  1.00  0.00     0.021 A 
HETATM   11  C12 UNL     1      27.743   4.862  48.557  1.00  0.00     0.025 A 
HETATM   12  C13 UNL     1      27.699   6.224  48.379  1.00  0.00     0.034 A 
HETATM   13 CL1  UNL     1      28.958   6.984  47.439  1.00  0.00    -0.084 Cl
HETATM   14  C14 UNL     1      26.658   6.953  48.948  1.00  0.00     0.025 A 
HETATM   15  C15 UNL     1      25.665   6.313  49.695  1.00  0.00     0.021 A 
ENDBRANCH   6   9
ENDBRANCH   5   6
ENDBRANCH   3   5
BRANCH   2  16
HETATM   16  C2  UNL     1      27.098   1.603  53.870  1.00  0.00     0.141 C 
BRANCH  16  17
HETATM   17  C3  UNL     1      27.913   0.359  53.646  1.00  0.00    -0.050 A 
HETATM   18  C4  UNL     1      27.172  -0.717  53.174  1.00  0.00     0.007 A 
HETATM   19  C5  UNL     1      27.806  -1.921  52.927  1.00  0.00     0.001 A 
HETATM   20  C6  UNL     1      29.159  -1.991  53.167  1.00  0.00     0.000 A 
HETATM   21  C7  UNL     1      29.888  -0.927  53.634  1.00  0.00     0.001 A 
HETATM   22  C8  UNL     1      29.269   0.290  53.886  1.00  0.00     0.007 A 
ENDBRANCH  16  17
ENDBRANCH   2  16
TORSDOF 6
ENDMDL
MODEL 7
REMARK VINA RESULT:      -7.1      3.927      6.357
REMARK  6 active torsions:
REMARK  status: ('A' for Active; 'I' for Inactive)
REMARK    1  A    between atoms: C1_2  and  C2_3 
REMARK       I    between atoms: C1_2  and  N1_10 
REMARK    2  A    between atoms: C2_3  and  C3_4 
REMARK    3  A    between atoms: N1_10  and  C9_11 
REMARK    4  A    between atoms: C9_11  and  S1_12 
REMARK    5  A    between atoms: S1_12  and  N2_13 
REMARK    6  A    between atoms: S1_12  and  C10_15 
ROOT
HETATM    1  O1  UNL     1      27.148   2.819  51.246  1.00  0.00    -0.273 OA
HETATM    2  C1  UNL     1      26.074   2.883  50.590  1.00  0.00     0.222 C 
HETATM    3  N1  UNL     1      24.711   2.718  50.898  1.00  0.00    -0.351 N 
HETATM    4  H8  UNL     1      24.083   2.851  50.078  1.00  0.00     0.163 HD
ENDROOT
BRANCH   3   5
HETATM    5  C9  UNL     1      24.542   2.394  52.320  1.00  0.00     0.217 C 
BRANCH   5   6
HETATM    6  S1  UNL     1      24.469   0.637  52.585  1.00  0.00    -0.018 SA
BRANCH   6   7
HETATM    7  N2  UNL     1      23.549   0.360  53.838  1.00  0.00    -0.057 NA
HETATM    8  F1  UNL     1      23.854  -0.626  54.679  1.00  0.00    -0.067 F 
ENDBRANCH   6   7
BRANCH   6   9
HETATM    9  C10 UNL     1      26.120   0.097  53.027  1.00  0.00     0.015 A 
HETATM   10  C11 UNL     1      26.627  -1.053  52.463  1.00  0.00     0.021 A 
HETATM   11  C12 UNL     1      27.911  -1.475  52.805  1.00  0.00     0.025 A 
HETATM   12  C13 UNL     1      28.673  -0.758  53.697  1.00  0.00     0.034 A 
HETATM   13 CL1  UNL     1      30.273  -1.338  54.084  1.00  0.00    -0.084 Cl
HETATM   14  C14 UNL     1      28.150   0.403  54.261  1.00  0.00     0.025 A 
HETATM   15  C15 UNL     1      26.865   0.841  53.929  1.00  0.00     0.021 A 
ENDBRANCH   6   9
ENDBRANCH   5   6
ENDBRANCH   3   5
BRANCH   2  16
HETATM   16  C2  UNL     1      26.573   3.217  49.229  1.00  0.00     0.141 C 
BRANCH  16  17
HETATM   17  C3  UNL     1      26.686   4.716  49.161  1.00  0.00    -0.050 A 
HETATM   18  C4  UNL     1      27.835   5.162  48.522  1.00  0.00     0.007 A 
HETATM   19  C5  UNL     1      28.056   6.521  48.394  1.00  0.00     0.001 A 
HETATM   20  C6  UNL     1      27.111   7.373  48.916  1.00  0.00     0.000 A 
HETATM   21  C7  UNL     1      25.977   6.930  49.548  1.00  0.00     0.001 A 
HETATM   22  C8  UNL     1      25.738   5.569  49.685  1.00  0.00     0.007 A 
ENDBRANCH  16  17
ENDBRANCH   2  16
TORSDOF 6
ENDMDL
MODEL 8
REMARK VINA RESULT:      -7.1      3.164      4.355
REMARK  6 active torsions:
REMARK  status: ('A' for Active; 'I' for Inactive)
REMARK    1  A    between atoms: C1_2  and  C2_3 
REMARK       I    between atoms: C1_2  and  N1_10 
REMARK    2  A    between atoms: C2_3  and  C3_4 
REMARK    3  A    between atoms: N1_10  and  C9_11 
REMARK    4  A    between atoms: C9_11  and  S1_12 
REMARK    5  A    between atoms: S1_12  and  N2_13 
REMARK    6  A    between atoms: S1_12  and  C10_15 
ROOT
HETATM    1  O1  UNL     1      25.514  -1.012  55.015  1.00  0.00    -0.273 OA
HETATM    2  C1  UNL     1      25.246  -0.933  53.786  1.00  0.00     0.222 C 
HETATM    3  N1  UNL     1      24.082  -0.674  53.039  1.00  0.00    -0.351 N 
HETATM    4  H8  UNL     1      24.240  -0.687  52.010  1.00  0.00     0.163 HD
ENDROOT
BRANCH   3   5
HETATM    5  C9  UNL     1      22.937  -0.452  53.932  1.00  0.00     0.217 C 
BRANCH   5   6
HETATM    6  S1  UNL     1      21.799   0.732  53.250  1.00  0.00    -0.018 SA
BRANCH   6   7
HETATM    7  N2  UNL     1      20.754  -0.041  52.353  1.00  0.00    -0.057 NA
HETATM    8  F1  UNL     1      19.580  -0.403  52.865  1.00  0.00    -0.067 F 
ENDBRANCH   6   7
BRANCH   6   9
HETATM    9  C10 UNL     1      22.733   1.798  52.152  1.00  0.00     0.015 A 
HETATM   10  C11 UNL     1      22.598   1.647  50.790  1.00  0.00     0.021 A 
HETATM   11  C12 UNL     1      23.323   2.475  49.934  1.00  0.00     0.025 A 
HETATM   12  C13 UNL     1      24.169   3.436  50.435  1.00  0.00     0.034 A 
HETATM   13 CL1  UNL     1      25.048   4.442  49.312  1.00  0.00    -0.084 Cl
HETATM   14  C14 UNL     1      24.297   3.580  51.814  1.00  0.00     0.025 A 
HETATM   15  C15 UNL     1      23.577   2.759  52.686  1.00  0.00     0.021 A 
ENDBRANCH   6   9
ENDBRANCH   5   6
ENDBRANCH   3   5
BRANCH   2  16
HETATM   16  C2  UNL     1      26.574  -1.199  53.171  1.00  0.00     0.141 C 
BRANCH  16  17
HETATM   17  C3  UNL     1      27.408   0.035  53.383  1.00  0.00    -0.050 A 
HETATM   18  C4  UNL     1      26.982   1.131  52.645  1.00  0.00     0.007 A 
HETATM   19  C5  UNL     1      27.667   2.328  52.752  1.00  0.00     0.001 A 
HETATM   20  C6  UNL     1      28.750   2.370  53.597  1.00  0.00     0.000 A 
HETATM   21  C7  UNL     1      29.169   1.286  54.326  1.00  0.00     0.001 A 
HETATM   22  C8  UNL     1      28.494   0.076  54.231  1.00  0.00     0.007 A 
ENDBRANCH  16  17
ENDBRANCH   2  16
TORSDOF 6
ENDMDL
MODEL 9
REMARK VINA RESULT:      -7.1      2.598      3.998
REMARK  6 active torsions:
REMARK  status: ('A' for Active; 'I' for Inactive)
REMARK    1  A    between atoms: C1_2  and  C2_3 
REMARK       I    between atoms: C1_2  and  N1_10 
REMARK    2  A    between atoms: C2_3  and  C3_4 
REMARK    3  A    between atoms: N1_10  and  C9_11 
REMARK    4  A    between atoms: C9_11  and  S1_12 
REMARK    5  A    between atoms: S1_12  and  N2_13 
REMARK    6  A    between atoms: S1_12  and  C10_15 
ROOT
HETATM    1  O1  UNL     1      26.314   1.886  54.306  1.00  0.00    -0.273 OA
HETATM    2  C1  UNL     1      26.485   1.040  53.387  1.00  0.00     0.222 C 
HETATM    3  N1  UNL     1      26.825   1.109  52.024  1.00  0.00    -0.351 N 
HETATM    4  H8  UNL     1      26.879   0.177  51.564  1.00  0.00     0.163 HD
ENDROOT
BRANCH   3   5
HETATM    5  C9  UNL     1      27.016   2.507  51.613  1.00  0.00     0.217 C 
BRANCH   5   6
HETATM    6  S1  UNL     1      25.994   2.921  50.219  1.00  0.00    -0.018 SA
BRANCH   6   7
HETATM    7  N2  UNL     1      26.351   4.388  49.757  1.00  0.00    -0.057 NA
HETATM    8  F1  UNL     1      27.091   4.579  48.667  1.00  0.00    -0.067 F 
ENDBRANCH   6   7
BRANCH   6   9
HETATM    9  C10 UNL     1      24.297   2.960  50.795  1.00  0.00     0.015 A 
HETATM   10  C11 UNL     1      23.311   2.380  50.028  1.00  0.00     0.021 A 
HETATM   11  C12 UNL     1      21.990   2.408  50.475  1.00  0.00     0.025 A 
HETATM   12  C13 UNL     1      21.665   3.007  51.668  1.00  0.00     0.034 A 
HETATM   13 CL1  UNL     1      19.994   3.010  52.173  1.00  0.00    -0.084 Cl
HETATM   14  C14 UNL     1      22.669   3.590  52.436  1.00  0.00     0.025 A 
HETATM   15  C15 UNL     1      23.999   3.570  52.003  1.00  0.00     0.021 A 
ENDBRANCH   6   9
ENDBRANCH   5   6
ENDBRANCH   3   5
BRANCH   2  16
HETATM   16  C2  UNL     1      26.226  -0.237  54.105  1.00  0.00     0.141 C 
BRANCH  16  17
HETATM   17  C3  UNL     1      24.736  -0.441  54.108  1.00  0.00    -0.050 A 
HETATM   18  C4  UNL     1      24.263  -1.096  55.237  1.00  0.00     0.007 A 
HETATM   19  C5  UNL     1      22.908  -1.344  55.360  1.00  0.00     0.001 A 
HETATM   20  C6  UNL     1      22.087  -0.923  54.341  1.00  0.00     0.000 A 
HETATM   21  C7  UNL     1      22.556  -0.277  53.225  1.00  0.00     0.001 A 
HETATM   22  C8  UNL     1      23.913  -0.018  53.085  1.00  0.00     0.007 A 
ENDBRANCH  16  17
ENDBRANCH   2  16
TORSDOF 6
ENDMDL
