MODEL 1
REMARK VINA RESULT:      -9.6      0.000      0.000
REMARK  6 active torsions:
REMARK  status: ('A' for Active; 'I' for Inactive)
REMARK    1  A    between atoms: O1_2  and  C2_3 
REMARK    2  A    between atoms: N2_9  and  C7_10 
REMARK    3  A    between atoms: C14_18  and  N3_19 
REMARK       I    between atoms: N3_19  and  C15_20 
REMARK    4  A    between atoms: C15_20  and  C16_22 
REMARK    5  A    between atoms: C17_23  and  C18_24 
REMARK    6  A    between atoms: C18_24  and  N4_26 
ROOT
HETATM    1  C2  UNL     1      22.643   1.881  50.497  1.00  0.00     0.096 C 
HETATM    2  C3  UNL     1      21.899   1.064  51.213  1.00  0.00     0.068 C 
HETATM    3  C4  UNL     1      22.313   0.341  52.400  1.00  0.00     0.064 C 
HETATM    4  N1  UNL     1      21.676  -0.425  53.173  1.00  0.00    -0.262 NA
HETATM    5  C5  UNL     1      22.228  -1.099  54.290  1.00  0.00     0.134 C 
HETATM    6  C6  UNL     1      23.497  -0.995  54.595  1.00  0.00     0.111 C 
HETATM    7  N2  UNL     1      24.313  -0.187  53.742  1.00  0.00    -0.344 N 
HETATM    8  C12 UNL     1      23.630   0.718  52.936  1.00  0.00     0.166 C 
HETATM    9  C13 UNL     1      24.359   1.587  52.019  1.00  0.00     0.037 C 
HETATM   10  C14 UNL     1      24.004   2.169  50.903  1.00  0.00     0.067 C 
ENDROOT
BRANCH  10  11
HETATM   11  N3  UNL     1      24.806   3.015  50.107  1.00  0.00    -0.321 N 
HETATM   12  C15 UNL     1      26.208   3.165  50.024  1.00  0.00     0.245 C 
HETATM   13  O2  UNL     1      26.914   2.444  50.767  1.00  0.00    -0.268 OA
HETATM   14  H13 UNL     1      24.313   3.666  49.443  1.00  0.00     0.169 HD
BRANCH  12  15
HETATM   15  C16 UNL     1      26.877   4.088  49.143  1.00  0.00     0.072 C 
HETATM   16  C17 UNL     1      26.835   5.409  49.119  1.00  0.00     0.013 C 
BRANCH  16  17
HETATM   17  C18 UNL     1      27.520   6.362  48.217  1.00  0.00     0.242 C 
HETATM   18  C19 UNL     1      28.969   5.996  48.118  1.00  0.00     0.047 C 
BRANCH  17  19
HETATM   19  N4  UNL     1      27.272   7.731  48.572  1.00  0.00     0.100 N 
HETATM   20  C20 UNL     1      26.366   7.852  49.679  1.00  0.00     0.299 C 
HETATM   21  C21 UNL     1      26.130   9.287  50.041  1.00  0.00     0.198 C 
HETATM   22  O3  UNL     1      27.305   9.994  50.251  1.00  0.00    -0.388 OA
HETATM   23  C22 UNL     1      28.214   9.835  49.213  1.00  0.00     0.198 C 
HETATM   24  C23 UNL     1      28.497   8.394  48.892  1.00  0.00     0.299 C 
ENDBRANCH  17  19
ENDBRANCH  16  17
ENDBRANCH  12  15
ENDBRANCH  10  11
BRANCH   1  25
HETATM   25  O1  UNL     1      22.110   2.489  49.360  1.00  0.00    -0.354 OA
HETATM   26  C1  UNL     1      21.942   1.690  48.213  1.00  0.00     0.210 C 
ENDBRANCH   1  25
BRANCH   7  27
HETATM   27  C7  UNL     1      25.716  -0.335  53.753  1.00  0.00     0.018 A 
HETATM   28  C8  UNL     1      26.604  -0.976  52.993  1.00  0.00     0.028 A 
HETATM   29  C9  UNL     1      27.968  -0.756  53.513  1.00  0.00     0.040 A 
HETATM   30  C10 UNL     1      27.848   0.028  54.591  1.00  0.00     0.099 A 
HETATM   31  F1  UNL     1      28.958   0.386  55.262  1.00  0.00    -0.210 F 
HETATM   32  C11 UNL     1      26.436   0.361  54.838  1.00  0.00     0.127 A 
ENDBRANCH   7  27
TORSDOF 6
ENDMDL
MODEL 2
REMARK VINA RESULT:      -9.0      2.371      4.366
REMARK  6 active torsions:
REMARK  status: ('A' for Active; 'I' for Inactive)
REMARK    1  A    between atoms: O1_2  and  C2_3 
REMARK    2  A    between atoms: N2_9  and  C7_10 
REMARK    3  A    between atoms: C14_18  and  N3_19 
REMARK       I    between atoms: N3_19  and  C15_20 
REMARK    4  A    between atoms: C15_20  and  C16_22 
REMARK    5  A    between atoms: C17_23  and  C18_24 
REMARK    6  A    between atoms: C18_24  and  N4_26 
ROOT
HETATM    1  C2  UNL     1      27.104   0.947  53.615  1.00  0.00     0.096 C 
HETATM    2  C3  UNL     1      26.628   0.154  54.552  1.00  0.00     0.068 C 
HETATM    3  C4  UNL     1      25.284  -0.387  54.621  1.00  0.00     0.064 C 
HETATM    4  N1  UNL     1      24.745  -1.177  55.443  1.00  0.00    -0.262 NA
HETATM    5  C5  UNL     1      23.393  -1.598  55.404  1.00  0.00     0.134 C 
HETATM    6  C6  UNL     1      22.564  -1.155  54.492  1.00  0.00     0.111 C 
HETATM    7  N2  UNL     1      23.072  -0.211  53.545  1.00  0.00    -0.344 N 
HETATM    8  C12 UNL     1      24.457  -0.165  53.424  1.00  0.00     0.166 C 
HETATM    9  C13 UNL     1      25.088   0.767  52.496  1.00  0.00     0.037 C 
HETATM   10  C14 UNL     1      26.273   1.318  52.486  1.00  0.00     0.067 C 
ENDROOT
BRANCH  10  11
HETATM   11  N3  UNL     1      26.780   2.200  51.507  1.00  0.00    -0.321 N 
HETATM   12  C15 UNL     1      26.127   3.088  50.623  1.00  0.00     0.245 C 
HETATM   13  O2  UNL     1      24.876   3.143  50.675  1.00  0.00    -0.268 OA
HETATM   14  H13 UNL     1      27.824   2.235  51.379  1.00  0.00     0.169 HD
BRANCH  12  15
HETATM   15  C16 UNL     1      26.802   3.932  49.672  1.00  0.00     0.072 C 
HETATM   16  C17 UNL     1      26.526   5.172  49.302  1.00  0.00     0.013 C 
BRANCH  16  17
HETATM   17  C18 UNL     1      27.216   6.045  48.326  1.00  0.00     0.242 C 
HETATM   18  C19 UNL     1      28.641   5.604  48.188  1.00  0.00     0.047 C 
BRANCH  17  19
HETATM   19  N4  UNL     1      27.046   7.440  48.619  1.00  0.00     0.100 N 
HETATM   20  C20 UNL     1      26.188   7.659  49.748  1.00  0.00     0.299 C 
HETATM   21  C21 UNL     1      26.033   9.121  50.045  1.00  0.00     0.198 C 
HETATM   22  O3  UNL     1      27.247   9.778  50.178  1.00  0.00    -0.388 OA
HETATM   23  C22 UNL     1      28.108   9.524  49.119  1.00  0.00     0.198 C 
HETATM   24  C23 UNL     1      28.312   8.057  48.863  1.00  0.00     0.299 C 
ENDBRANCH  17  19
ENDBRANCH  16  17
ENDBRANCH  12  15
ENDBRANCH  10  11
BRANCH   1  25
HETATM   25  O1  UNL     1      28.417   1.410  53.698  1.00  0.00    -0.354 OA
HETATM   26  C1  UNL     1      29.442   0.448  53.783  1.00  0.00     0.210 C 
ENDBRANCH   1  25
BRANCH   7  27
HETATM   27  C7  UNL     1      22.186   0.600  52.805  1.00  0.00     0.018 A 
HETATM   28  C8  UNL     1      21.785   1.870  52.875  1.00  0.00     0.028 A 
HETATM   29  C9  UNL     1      20.818   2.156  51.797  1.00  0.00     0.040 A 
HETATM   30  C10 UNL     1      20.670   1.021  51.102  1.00  0.00     0.099 A 
HETATM   31  F1  UNL     1      19.832   1.009  50.049  1.00  0.00    -0.210 F 
HETATM   32  C11 UNL     1      21.507  -0.049  51.665  1.00  0.00     0.127 A 
ENDBRANCH   7  27
TORSDOF 6
ENDMDL
MODEL 3
REMARK VINA RESULT:      -8.4      2.636      4.656
REMARK  6 active torsions:
REMARK  status: ('A' for Active; 'I' for Inactive)
REMARK    1  A    between atoms: O1_2  and  C2_3 
REMARK    2  A    between atoms: N2_9  and  C7_10 
REMARK    3  A    between atoms: C14_18  and  N3_19 
REMARK       I    between atoms: N3_19  and  C15_20 
REMARK    4  A    between atoms: C15_20  and  C16_22 
REMARK    5  A    between atoms: C17_23  and  C18_24 
REMARK    6  A    between atoms: C18_24  and  N4_26 
ROOT
HETATM    1  C2  UNL     1      27.016   1.906  52.556  1.00  0.00     0.096 C 
HETATM    2  C3  UNL     1      26.505   0.966  53.323  1.00  0.00     0.068 C 
HETATM    3  C4  UNL     1      25.133   0.498  53.311  1.00  0.00     0.064 C 
HETATM    4  N1  UNL     1      24.557  -0.412  53.968  1.00  0.00    -0.262 NA
HETATM    5  C5  UNL     1      23.182  -0.740  53.876  1.00  0.00     0.134 C 
HETATM    6  C6  UNL     1      22.370  -0.075  53.093  1.00  0.00     0.111 C 
HETATM    7  N2  UNL     1      22.923   1.013  52.345  1.00  0.00    -0.344 N 
HETATM    8  C12 UNL     1      24.306   1.005  52.205  1.00  0.00     0.166 C 
HETATM    9  C13 UNL     1      24.981   2.071  51.471  1.00  0.00     0.037 C 
HETATM   10  C14 UNL     1      26.196   2.545  51.545  1.00  0.00     0.067 C 
ENDROOT
BRANCH  10  11
HETATM   11  N3  UNL     1      26.743   3.579  50.755  1.00  0.00    -0.321 N 
HETATM   12  C15 UNL     1      26.246   4.241  49.610  1.00  0.00     0.245 C 
HETATM   13  O2  UNL     1      25.124   3.888  49.177  1.00  0.00    -0.268 OA
HETATM   14  H13 UNL     1      27.687   3.953  51.030  1.00  0.00     0.169 HD
BRANCH  12  15
HETATM   15  C16 UNL     1      26.940   5.293  48.912  1.00  0.00     0.072 C 
HETATM   16  C17 UNL     1      28.182   5.325  48.459  1.00  0.00     0.013 C 
BRANCH  16  17
HETATM   17  C18 UNL     1      28.900   6.402  47.741  1.00  0.00     0.242 C 
HETATM   18  C19 UNL     1      30.364   6.086  47.710  1.00  0.00     0.047 C 
BRANCH  17  19
HETATM   19  N4  UNL     1      28.579   7.708  48.243  1.00  0.00     0.100 N 
HETATM   20  C20 UNL     1      29.714   8.358  48.834  1.00  0.00     0.299 C 
HETATM   21  C21 UNL     1      29.362   9.725  49.341  1.00  0.00     0.198 C 
HETATM   22  O3  UNL     1      28.749  10.517  48.381  1.00  0.00    -0.388 OA
HETATM   23  C22 UNL     1      27.686   9.875  47.760  1.00  0.00     0.198 C 
HETATM   24  C23 UNL     1      28.057   8.531  47.197  1.00  0.00     0.299 C 
ENDBRANCH  17  19
ENDBRANCH  16  17
ENDBRANCH  12  15
ENDBRANCH  10  11
BRANCH   1  25
HETATM   25  O1  UNL     1      28.356   2.268  52.700  1.00  0.00    -0.354 OA
HETATM   26  C1  UNL     1      28.987   1.956  53.919  1.00  0.00     0.210 C 
ENDBRANCH   1  25
BRANCH   7  27
HETATM   27  C7  UNL     1      22.078   2.007  51.807  1.00  0.00     0.018 A 
HETATM   28  C8  UNL     1      21.732   3.245  52.158  1.00  0.00     0.028 A 
HETATM   29  C9  UNL     1      20.785   3.805  51.173  1.00  0.00     0.040 A 
HETATM   30  C10 UNL     1      20.593   2.861  50.244  1.00  0.00     0.099 A 
HETATM   31  F1  UNL     1      19.762   3.120  49.217  1.00  0.00    -0.210 F 
HETATM   32  C11 UNL     1      21.379   1.657  50.554  1.00  0.00     0.127 A 
ENDBRANCH   7  27
TORSDOF 6
ENDMDL
MODEL 4
REMARK VINA RESULT:      -8.4      2.992      8.307
REMARK  6 active torsions:
REMARK  status: ('A' for Active; 'I' for Inactive)
REMARK    1  A    between atoms: O1_2  and  C2_3 
REMARK    2  A    between atoms: N2_9  and  C7_10 
REMARK    3  A    between atoms: C14_18  and  N3_19 
REMARK       I    between atoms: N3_19  and  C15_20 
REMARK    4  A    between atoms: C15_20  and  C16_22 
REMARK    5  A    between atoms: C17_23  and  C18_24 
REMARK    6  A    between atoms: C18_24  and  N4_26 
ROOT
HETATM    1  C2  UNL     1      23.804   6.158  50.719  1.00  0.00     0.096 C 
HETATM    2  C3  UNL     1      23.691   7.288  50.051  1.00  0.00     0.068 C 
HETATM    3  C4  UNL     1      24.597   7.779  49.031  1.00  0.00     0.064 C 
HETATM    4  N1  UNL     1      24.559   8.814  48.311  1.00  0.00    -0.262 NA
HETATM    5  C5  UNL     1      25.548   9.188  47.368  1.00  0.00     0.134 C 
HETATM    6  C6  UNL     1      26.630   8.473  47.189  1.00  0.00     0.111 C 
HETATM    7  N2  UNL     1      26.787   7.305  48.001  1.00  0.00    -0.344 N 
HETATM    8  C12 UNL     1      25.624   6.821  48.591  1.00  0.00     0.166 C 
HETATM    9  C13 UNL     1      25.666   5.641  49.448  1.00  0.00     0.037 C 
HETATM   10  C14 UNL     1      24.892   5.246  50.424  1.00  0.00     0.067 C 
ENDROOT
BRANCH  10  11
HETATM   11  N3  UNL     1      25.027   4.057  51.173  1.00  0.00    -0.321 N 
HETATM   12  C15 UNL     1      24.418   2.790  51.032  1.00  0.00     0.245 C 
HETATM   13  O2  UNL     1      23.605   2.639  50.090  1.00  0.00    -0.268 OA
HETATM   14  H13 UNL     1      25.688   4.072  51.992  1.00  0.00     0.169 HD
BRANCH  12  15
HETATM   15  C16 UNL     1      24.670   1.665  51.894  1.00  0.00     0.072 C 
HETATM   16  C17 UNL     1      25.752   0.913  52.002  1.00  0.00     0.013 C 
BRANCH  16  17
HETATM   17  C18 UNL     1      26.018  -0.244  52.886  1.00  0.00     0.242 C 
HETATM   18  C19 UNL     1      24.869  -0.420  53.830  1.00  0.00     0.047 C 
BRANCH  17  19
HETATM   19  N4  UNL     1      27.306  -0.170  53.518  1.00  0.00     0.100 N 
HETATM   20  C20 UNL     1      28.207  -1.176  53.036  1.00  0.00     0.299 C 
HETATM   21  C21 UNL     1      29.549  -1.075  53.698  1.00  0.00     0.198 C 
HETATM   22  O3  UNL     1      30.097   0.197  53.618  1.00  0.00    -0.388 OA
HETATM   23  C22 UNL     1      29.211   1.185  54.026  1.00  0.00     0.198 C 
HETATM   24  C23 UNL     1      27.888   1.120  53.315  1.00  0.00     0.299 C 
ENDBRANCH  17  19
ENDBRANCH  16  17
ENDBRANCH  12  15
ENDBRANCH  10  11
BRANCH   1  25
HETATM   25  O1  UNL     1      22.862   5.830  51.693  1.00  0.00    -0.354 OA
HETATM   26  C1  UNL     1      21.582   5.440  51.256  1.00  0.00     0.210 C 
ENDBRANCH   1  25
BRANCH   7  27
HETATM   27  C7  UNL     1      28.060   6.718  48.163  1.00  0.00     0.018 A 
HETATM   28  C8  UNL     1      28.532   5.471  48.165  1.00  0.00     0.028 A 
HETATM   29  C9  UNL     1      29.992   5.483  48.388  1.00  0.00     0.040 A 
HETATM   30  C10 UNL     1      30.351   6.767  48.515  1.00  0.00     0.099 A 
HETATM   31  F1  UNL     1      31.647   7.060  48.728  1.00  0.00    -0.210 F 
HETATM   32  C11 UNL     1      29.183   7.651  48.386  1.00  0.00     0.127 A 
ENDBRANCH   7  27
TORSDOF 6
ENDMDL
MODEL 5
REMARK VINA RESULT:      -8.2      2.716      4.704
REMARK  6 active torsions:
REMARK  status: ('A' for Active; 'I' for Inactive)
REMARK    1  A    between atoms: O1_2  and  C2_3 
REMARK    2  A    between atoms: N2_9  and  C7_10 
REMARK    3  A    between atoms: C14_18  and  N3_19 
REMARK       I    between atoms: N3_19  and  C15_20 
REMARK    4  A    between atoms: C15_20  and  C16_22 
REMARK    5  A    between atoms: C17_23  and  C18_24 
REMARK    6  A    between atoms: C18_24  and  N4_26 
ROOT
HETATM    1  C2  UNL     1      25.450   0.550  52.960  1.00  0.00     0.096 C 
HETATM    2  C3  UNL     1      24.789  -0.194  53.823  1.00  0.00     0.068 C 
HETATM    3  C4  UNL     1      23.352  -0.382  53.873  1.00  0.00     0.064 C 
HETATM    4  N1  UNL     1      22.631  -1.095  54.623  1.00  0.00    -0.262 NA
HETATM    5  C5  UNL     1      21.216  -1.153  54.579  1.00  0.00     0.134 C 
HETATM    6  C6  UNL     1      20.525  -0.419  53.743  1.00  0.00     0.111 C 
HETATM    7  N2  UNL     1      21.257   0.463  52.885  1.00  0.00    -0.344 N 
HETATM    8  C12 UNL     1      22.607   0.170  52.730  1.00  0.00     0.166 C 
HETATM    9  C13 UNL     1      23.453   1.007  51.887  1.00  0.00     0.037 C 
HETATM   10  C14 UNL     1      24.740   1.238  51.900  1.00  0.00     0.067 C 
ENDROOT
BRANCH  10  11
HETATM   11  N3  UNL     1      25.453   2.065  51.005  1.00  0.00    -0.321 N 
HETATM   12  C15 UNL     1      25.317   3.435  50.690  1.00  0.00     0.245 C 
HETATM   13  O2  UNL     1      24.419   4.080  51.281  1.00  0.00    -0.268 OA
HETATM   14  H13 UNL     1      26.233   1.623  50.454  1.00  0.00     0.169 HD
BRANCH  12  15
HETATM   15  C16 UNL     1      26.140   4.137  49.739  1.00  0.00     0.072 C 
HETATM   16  C17 UNL     1      26.214   5.432  49.485  1.00  0.00     0.013 C 
BRANCH  16  17
HETATM   17  C18 UNL     1      27.058   6.160  48.511  1.00  0.00     0.242 C 
HETATM   18  C19 UNL     1      28.359   5.436  48.344  1.00  0.00     0.047 C 
BRANCH  17  19
HETATM   19  N4  UNL     1      27.185   7.555  48.825  1.00  0.00     0.100 N 
HETATM   20  C20 UNL     1      26.820   8.398  47.722  1.00  0.00     0.299 C 
HETATM   21  C21 UNL     1      26.947   9.849  48.074  1.00  0.00     0.198 C 
HETATM   22  O3  UNL     1      26.266  10.187  49.235  1.00  0.00    -0.388 OA
HETATM   23  C22 UNL     1      26.566   9.340  50.293  1.00  0.00     0.198 C 
HETATM   24  C23 UNL     1      26.378   7.887  49.958  1.00  0.00     0.299 C 
ENDBRANCH  17  19
ENDBRANCH  16  17
ENDBRANCH  12  15
ENDBRANCH  10  11
BRANCH   1  25
HETATM   25  O1  UNL     1      26.838   0.653  53.053  1.00  0.00    -0.354 OA
HETATM   26  C1  UNL     1      27.470  -0.013  54.120  1.00  0.00     0.210 C 
ENDBRANCH   1  25
BRANCH   7  27
HETATM   27  C7  UNL     1      20.605   1.547  52.260  1.00  0.00     0.018 A 
HETATM   28  C8  UNL     1      20.460   2.845  52.529  1.00  0.00     0.028 A 
HETATM   29  C9  UNL     1      19.650   3.492  51.478  1.00  0.00     0.040 A 
HETATM   30  C10 UNL     1      19.330   2.538  50.595  1.00  0.00     0.099 A 
HETATM   31  F1  UNL     1      18.586   2.867  49.524  1.00  0.00    -0.210 F 
HETATM   32  C11 UNL     1      19.896   1.242  51.001  1.00  0.00     0.127 A 
ENDBRANCH   7  27
TORSDOF 6
ENDMDL
MODEL 6
REMARK VINA RESULT:      -8.1      3.345      5.448
REMARK  6 active torsions:
REMARK  status: ('A' for Active; 'I' for Inactive)
REMARK    1  A    between atoms: O1_2  and  C2_3 
REMARK    2  A    between atoms: N2_9  and  C7_10 
REMARK    3  A    between atoms: C14_18  and  N3_19 
REMARK       I    between atoms: N3_19  and  C15_20 
REMARK    4  A    between atoms: C15_20  and  C16_22 
REMARK    5  A    between atoms: C17_23  and  C18_24 
REMARK    6  A    between atoms: C18_24  and  N4_26 
ROOT
HETATM    1  C2  UNL     1      26.749   2.071  52.085  1.00  0.00     0.096 C 
HETATM    2  C3  UNL     1      26.054   1.195  52.781  1.00  0.00     0.068 C 
HETATM    3  C4  UNL     1      24.625   0.965  52.693  1.00  0.00     0.064 C 
HETATM    4  N1  UNL     1      23.877   0.134  53.278  1.00  0.00    -0.262 NA
HETATM    5  C5  UNL     1      22.472   0.047  53.116  1.00  0.00     0.134 C 
HETATM    6  C6  UNL     1      21.818   0.875  52.340  1.00  0.00     0.111 C 
HETATM    7  N2  UNL     1      22.578   1.888  51.674  1.00  0.00    -0.344 N 
HETATM    8  C12 UNL     1      23.946   1.655  51.585  1.00  0.00     0.166 C 
HETATM    9  C13 UNL     1      24.820   2.625  50.935  1.00  0.00     0.037 C 
HETATM   10  C14 UNL     1      26.093   2.885  51.080  1.00  0.00     0.067 C 
ENDROOT
BRANCH  10  11
HETATM   11  N3  UNL     1      26.840   3.848  50.368  1.00  0.00    -0.321 N 
HETATM   12  C15 UNL     1      26.473   4.730  49.327  1.00  0.00     0.245 C 
HETATM   13  O2  UNL     1      25.286   4.694  48.927  1.00  0.00    -0.268 OA
HETATM   14  H13 UNL     1      27.854   3.963  50.625  1.00  0.00     0.169 HD
BRANCH  12  15
HETATM   15  C16 UNL     1      27.370   5.666  48.700  1.00  0.00     0.072 C 
HETATM   16  C17 UNL     1      28.676   5.584  48.512  1.00  0.00     0.013 C 
BRANCH  16  17
HETATM   17  C18 UNL     1      29.602   6.542  47.867  1.00  0.00     0.242 C 
HETATM   18  C19 UNL     1      28.852   7.352  46.855  1.00  0.00     0.047 C 
BRANCH  17  19
HETATM   19  N4  UNL     1      30.790   5.908  47.367  1.00  0.00     0.100 N 
HETATM   20  C20 UNL     1      31.540   6.767  46.496  1.00  0.00     0.299 C 
HETATM   21  C21 UNL     1      32.781   6.092  45.994  1.00  0.00     0.198 C 
HETATM   22  O3  UNL     1      33.564   5.571  47.014  1.00  0.00    -0.388 OA
HETATM   23  C22 UNL     1      32.835   4.787  47.897  1.00  0.00     0.198 C 
HETATM   24  C23 UNL     1      31.625   5.488  48.448  1.00  0.00     0.299 C 
ENDBRANCH  17  19
ENDBRANCH  16  17
ENDBRANCH  12  15
ENDBRANCH  10  11
BRANCH   1  25
HETATM   25  O1  UNL     1      28.121   2.195  52.299  1.00  0.00    -0.354 OA
HETATM   26  C1  UNL     1      28.558   2.404  53.621  1.00  0.00     0.210 C 
ENDBRANCH   1  25
BRANCH   7  27
HETATM   27  C7  UNL     1      21.935   3.034  51.158  1.00  0.00     0.018 A 
HETATM   28  C8  UNL     1      21.113   3.277  50.137  1.00  0.00     0.028 A 
HETATM   29  C9  UNL     1      20.764   4.711  50.098  1.00  0.00     0.040 A 
HETATM   30  C10 UNL     1      21.404   5.291  51.121  1.00  0.00     0.099 A 
HETATM   31  F1  UNL     1      21.254   6.614  51.316  1.00  0.00    -0.210 F 
HETATM   32  C11 UNL     1      22.190   4.301  51.873  1.00  0.00     0.127 A 
ENDBRANCH   7  27
TORSDOF 6
ENDMDL
MODEL 7
REMARK VINA RESULT:      -8.1      2.193      2.742
REMARK  6 active torsions:
REMARK  status: ('A' for Active; 'I' for Inactive)
REMARK    1  A    between atoms: O1_2  and  C2_3 
REMARK    2  A    between atoms: N2_9  and  C7_10 
REMARK    3  A    between atoms: C14_18  and  N3_19 
REMARK       I    between atoms: N3_19  and  C15_20 
REMARK    4  A    between atoms: C15_20  and  C16_22 
REMARK    5  A    between atoms: C17_23  and  C18_24 
REMARK    6  A    between atoms: C18_24  and  N4_26 
ROOT
HETATM    1  C2  UNL     1      23.305   4.515  49.388  1.00  0.00     0.096 C 
HETATM    2  C3  UNL     1      22.319   3.793  49.881  1.00  0.00     0.068 C 
HETATM    3  C4  UNL     1      22.403   2.871  50.997  1.00  0.00     0.064 C 
HETATM    4  N1  UNL     1      21.522   2.170  51.567  1.00  0.00    -0.262 NA
HETATM    5  C5  UNL     1      21.760   1.275  52.639  1.00  0.00     0.134 C 
HETATM    6  C6  UNL     1      22.964   1.080  53.115  1.00  0.00     0.111 C 
HETATM    7  N2  UNL     1      24.039   1.794  52.496  1.00  0.00    -0.344 N 
HETATM    8  C12 UNL     1      23.670   2.905  51.745  1.00  0.00     0.166 C 
HETATM    9  C13 UNL     1      24.681   3.703  51.060  1.00  0.00     0.037 C 
HETATM   10  C14 UNL     1      24.617   4.468  50.002  1.00  0.00     0.067 C 
ENDROOT
BRANCH  10  11
HETATM   11  N3  UNL     1      25.676   5.214  49.442  1.00  0.00    -0.321 N 
HETATM   12  C15 UNL     1      26.961   4.826  49.001  1.00  0.00     0.245 C 
HETATM   13  O2  UNL     1      27.268   3.615  49.103  1.00  0.00    -0.268 OA
HETATM   14  H13 UNL     1      25.525   6.248  49.311  1.00  0.00     0.169 HD
BRANCH  12  15
HETATM   15  C16 UNL     1      27.937   5.726  48.444  1.00  0.00     0.072 C 
HETATM   16  C17 UNL     1      29.214   5.518  48.169  1.00  0.00     0.013 C 
BRANCH  16  17
HETATM   17  C18 UNL     1      30.221   6.439  47.596  1.00  0.00     0.242 C 
HETATM   18  C19 UNL     1      31.594   5.905  47.871  1.00  0.00     0.047 C 
BRANCH  17  19
HETATM   19  N4  UNL     1      30.016   7.801  48.001  1.00  0.00     0.100 N 
HETATM   20  C20 UNL     1      30.868   8.179  49.092  1.00  0.00     0.299 C 
HETATM   21  C21 UNL     1      30.648   9.607  49.491  1.00  0.00     0.198 C 
HETATM   22  O3  UNL     1      30.745  10.489  48.425  1.00  0.00    -0.388 OA
HETATM   23  C22 UNL     1      29.970  10.101  47.341  1.00  0.00     0.198 C 
HETATM   24  C23 UNL     1      30.238   8.688  46.901  1.00  0.00     0.299 C 
ENDBRANCH  17  19
ENDBRANCH  16  17
ENDBRANCH  12  15
ENDBRANCH  10  11
BRANCH   1  25
HETATM   25  O1  UNL     1      23.076   5.343  48.290  1.00  0.00    -0.354 OA
HETATM   26  C1  UNL     1      22.343   4.810  47.213  1.00  0.00     0.210 C 
ENDBRANCH   1  25
BRANCH   7  27
HETATM   27  C7  UNL     1      25.370   1.359  52.664  1.00  0.00     0.018 A 
HETATM   28  C8  UNL     1      26.164   0.485  52.046  1.00  0.00     0.028 A 
HETATM   29  C9  UNL     1      27.492   0.461  52.692  1.00  0.00     0.040 A 
HETATM   30  C10 UNL     1      27.446   1.343  53.698  1.00  0.00     0.099 A 
HETATM   31  F1  UNL     1      28.543   1.519  54.458  1.00  0.00    -0.210 F 
HETATM   32  C11 UNL     1      26.123   1.981  53.772  1.00  0.00     0.127 A 
ENDBRANCH   7  27
TORSDOF 6
ENDMDL
MODEL 8
REMARK VINA RESULT:      -8.0      4.196     10.744
REMARK  6 active torsions:
REMARK  status: ('A' for Active; 'I' for Inactive)
REMARK    1  A    between atoms: O1_2  and  C2_3 
REMARK    2  A    between atoms: N2_9  and  C7_10 
REMARK    3  A    between atoms: C14_18  and  N3_19 
REMARK       I    between atoms: N3_19  and  C15_20 
REMARK    4  A    between atoms: C15_20  and  C16_22 
REMARK    5  A    between atoms: C17_23  and  C18_24 
REMARK    6  A    between atoms: C18_24  and  N4_26 
ROOT
HETATM    1  C2  UNL     1      31.538   5.621  47.713  1.00  0.00     0.096 C 
HETATM    2  C3  UNL     1      32.658   6.164  47.284  1.00  0.00     0.068 C 
HETATM    3  C4  UNL     1      32.995   7.575  47.309  1.00  0.00     0.064 C 
HETATM    4  N1  UNL     1      34.042   8.188  46.964  1.00  0.00    -0.262 NA
HETATM    5  C5  UNL     1      34.218   9.592  47.013  1.00  0.00     0.134 C 
HETATM    6  C6  UNL     1      33.257  10.391  47.405  1.00  0.00     0.111 C 
HETATM    7  N2  UNL     1      32.010   9.789  47.767  1.00  0.00    -0.344 N 
HETATM    8  C12 UNL     1      32.059   8.430  48.056  1.00  0.00     0.166 C 
HETATM    9  C13 UNL     1      30.846   7.709  48.427  1.00  0.00     0.037 C 
HETATM   10  C14 UNL     1      30.517   6.448  48.324  1.00  0.00     0.067 C 
ENDROOT
BRANCH  10  11
HETATM   11  N3  UNL     1      29.303   5.861  48.744  1.00  0.00    -0.321 N 
HETATM   12  C15 UNL     1      27.966   6.106  48.360  1.00  0.00     0.245 C 
HETATM   13  O2  UNL     1      27.763   6.991  47.496  1.00  0.00    -0.268 OA
HETATM   14  H13 UNL     1      29.357   5.103  49.472  1.00  0.00     0.169 HD
BRANCH  12  15
HETATM   15  C16 UNL     1      26.825   5.408  48.893  1.00  0.00     0.072 C 
HETATM   16  C17 UNL     1      26.713   4.147  49.275  1.00  0.00     0.013 C 
BRANCH  16  17
HETATM   17  C18 UNL     1      25.544   3.424  49.824  1.00  0.00     0.242 C 
HETATM   18  C19 UNL     1      24.288   4.125  49.409  1.00  0.00     0.047 C 
BRANCH  17  19
HETATM   19  N4  UNL     1      25.658   3.184  51.236  1.00  0.00     0.100 N 
HETATM   20  C20 UNL     1      24.422   2.738  51.814  1.00  0.00     0.299 C 
HETATM   21  C21 UNL     1      24.565   2.482  53.284  1.00  0.00     0.198 C 
HETATM   22  O3  UNL     1      25.618   1.631  53.586  1.00  0.00    -0.388 OA
HETATM   23  C22 UNL     1      26.806   2.020  52.982  1.00  0.00     0.198 C 
HETATM   24  C23 UNL     1      26.676   2.216  51.498  1.00  0.00     0.299 C 
ENDBRANCH  17  19
ENDBRANCH  16  17
ENDBRANCH  12  15
ENDBRANCH  10  11
BRANCH   1  25
HETATM   25  O1  UNL     1      31.347   4.244  47.600  1.00  0.00    -0.354 OA
HETATM   26  C1  UNL     1      32.484   3.445  47.374  1.00  0.00     0.210 C 
ENDBRANCH   1  25
BRANCH   7  27
HETATM   27  C7  UNL     1      30.833  10.565  47.811  1.00  0.00     0.018 A 
HETATM   28  C8  UNL     1      29.771  10.718  47.019  1.00  0.00     0.028 A 
HETATM   29  C9  UNL     1      28.837  11.699  47.608  1.00  0.00     0.040 A 
HETATM   30  C10 UNL     1      29.384  12.109  48.758  1.00  0.00     0.099 A 
HETATM   31  F1  UNL     1      28.727  13.016  49.504  1.00  0.00    -0.210 F 
HETATM   32  C11 UNL     1      30.675  11.441  48.989  1.00  0.00     0.127 A 
ENDBRANCH   7  27
TORSDOF 6
ENDMDL
MODEL 9
REMARK VINA RESULT:      -7.7      4.673      9.898
REMARK  6 active torsions:
REMARK  status: ('A' for Active; 'I' for Inactive)
REMARK    1  A    between atoms: O1_2  and  C2_3 
REMARK    2  A    between atoms: N2_9  and  C7_10 
REMARK    3  A    between atoms: C14_18  and  N3_19 
REMARK       I    between atoms: N3_19  and  C15_20 
REMARK    4  A    between atoms: C15_20  and  C16_22 
REMARK    5  A    between atoms: C17_23  and  C18_24 
REMARK    6  A    between atoms: C18_24  and  N4_26 
ROOT
HETATM    1  C2  UNL     1      30.026   8.695  48.845  1.00  0.00     0.096 C 
HETATM    2  C3  UNL     1      31.020   9.452  48.428  1.00  0.00     0.068 C 
HETATM    3  C4  UNL     1      32.107   9.045  47.560  1.00  0.00     0.064 C 
HETATM    4  N1  UNL     1      33.074   9.693  47.075  1.00  0.00    -0.262 NA
HETATM    5  C5  UNL     1      34.095   9.147  46.258  1.00  0.00     0.134 C 
HETATM    6  C6  UNL     1      34.126   7.872  45.961  1.00  0.00     0.111 C 
HETATM    7  N2  UNL     1      33.097   7.044  46.511  1.00  0.00    -0.344 N 
HETATM    8  C12 UNL     1      31.960   7.711  46.955  1.00  0.00     0.166 C 
HETATM    9  C13 UNL     1      30.850   6.970  47.544  1.00  0.00     0.037 C 
HETATM   10  C14 UNL     1      29.921   7.321  48.393  1.00  0.00     0.067 C 
ENDROOT
BRANCH  10  11
HETATM   11  N3  UNL     1      28.875   6.506  48.877  1.00  0.00    -0.321 N 
HETATM   12  C15 UNL     1      27.524   6.389  48.482  1.00  0.00     0.245 C 
HETATM   13  O2  UNL     1      27.130   7.114  47.538  1.00  0.00    -0.268 OA
HETATM   14  H13 UNL     1      29.096   5.855  49.673  1.00  0.00     0.169 HD
BRANCH  12  15
HETATM   15  C16 UNL     1      26.573   5.494  49.088  1.00  0.00     0.072 C 
HETATM   16  C17 UNL     1      25.289   5.678  49.347  1.00  0.00     0.013 C 
BRANCH  16  17
HETATM   17  C18 UNL     1      24.307   4.762  49.969  1.00  0.00     0.242 C 
HETATM   18  C19 UNL     1      24.403   3.416  49.317  1.00  0.00     0.047 C 
BRANCH  17  19
HETATM   19  N4  UNL     1      22.983   5.316  50.006  1.00  0.00     0.100 N 
HETATM   20  C20 UNL     1      22.921   6.527  50.774  1.00  0.00     0.299 C 
HETATM   21  C21 UNL     1      21.534   7.097  50.790  1.00  0.00     0.198 C 
HETATM   22  O3  UNL     1      21.000   7.257  49.520  1.00  0.00    -0.388 OA
HETATM   23  C22 UNL     1      21.109   6.109  48.747  1.00  0.00     0.198 C 
HETATM   24  C23 UNL     1      22.513   5.575  48.681  1.00  0.00     0.299 C 
ENDBRANCH  17  19
ENDBRANCH  16  17
ENDBRANCH  12  15
ENDBRANCH  10  11
BRANCH   1  25
HETATM   25  O1  UNL     1      29.062   9.224  49.702  1.00  0.00    -0.354 OA
HETATM   26  C1  UNL     1      28.115  10.107  49.151  1.00  0.00     0.210 C 
ENDBRANCH   1  25
BRANCH   7  27
HETATM   27  C7  UNL     1      33.270   5.646  46.579  1.00  0.00     0.018 A 
HETATM   28  C8  UNL     1      32.897   4.609  45.828  1.00  0.00     0.028 A 
HETATM   29  C9  UNL     1      33.388   3.350  46.422  1.00  0.00     0.040 A 
HETATM   30  C10 UNL     1      34.055   3.683  47.534  1.00  0.00     0.099 A 
HETATM   31  F1  UNL     1      34.612   2.708  48.274  1.00  0.00    -0.210 F 
HETATM   32  C11 UNL     1      34.042   5.141  47.733  1.00  0.00     0.127 A 
ENDBRANCH   7  27
TORSDOF 6
ENDMDL
