MODEL 1
REMARK VINA RESULT:      -7.1      0.000      0.000
REMARK  4 active torsions:
REMARK  status: ('A' for Active; 'I' for Inactive)
REMARK    1  A    between atoms: C2_2  and  C3_4 
REMARK    2  A    between atoms: C4_5  and  C5_6 
REMARK    3  A    between atoms: C6_7  and  N1_8 
REMARK    4  A    between atoms: C9_12  and  C10_13 
ROOT
HETATM    1  N1  UNL     1      26.211   1.137  51.902  1.00  0.00    -0.258 N 
HETATM    2  C7  UNL     1      26.426  -0.364  51.728  1.00  0.00     0.232 C 
HETATM    3  N2  UNL     1      26.064  -1.273  52.770  1.00  0.00    -0.241 NA
HETATM    4  C8  UNL     1      25.298  -0.522  53.872  1.00  0.00     0.071 C 
HETATM    5  C9  UNL     1      23.941  -0.296  53.770  1.00  0.00     0.062 C 
HETATM    6  C11 UNL     1      23.809   1.041  53.006  1.00  0.00     0.056 C 
HETATM    7  C12 UNL     1      22.591   1.454  52.617  1.00  0.00     0.045 C 
HETATM    8  N3  UNL     1      25.197   1.550  52.896  1.00  0.00    -0.282 N 
HETATM    9  C13 UNL     1      26.000   2.432  53.815  1.00  0.00     0.177 C 
HETATM   10  C14 UNL     1      26.444   1.409  54.926  1.00  0.00    -0.003 C 
HETATM   11  C15 UNL     1      26.366   0.023  54.839  1.00  0.00     0.030 C 
ENDROOT
BRANCH   1  12
HETATM   12  C6  UNL     1      26.858   2.220  51.290  1.00  0.00     0.117 C 
HETATM   13  C5  UNL     1      26.229   2.796  50.271  1.00  0.00     0.019 C 
BRANCH  13  14
HETATM   14  C4  UNL     1      26.792   3.931  49.551  1.00  0.00     0.002 C 
HETATM   15  C3  UNL     1      26.140   5.038  49.231  1.00  0.00     0.015 C 
BRANCH  15  16
HETATM   16  C2  UNL     1      26.787   6.122  48.507  1.00  0.00    -0.011 C 
HETATM   17  C1  UNL     1      26.099   7.149  48.035  1.00  0.00     0.051 C 
HETATM   18 BR1  UNL     1      28.662   6.174  48.169  1.00  0.00    -0.056 Br
ENDBRANCH  15  16
ENDBRANCH  13  14
ENDBRANCH   1  12
BRANCH   5  19
HETATM   19  C10 UNL     1      22.690  -0.994  54.191  1.00  0.00     0.391 C 
HETATM   20  F1  UNL     1      22.321  -1.851  53.208  1.00  0.00    -0.209 F 
HETATM   21  F2  UNL     1      22.846  -1.617  55.399  1.00  0.00    -0.209 F 
ENDBRANCH   5  19
TORSDOF 4
ENDMDL
MODEL 2
REMARK VINA RESULT:      -6.9      2.626      4.325
REMARK  4 active torsions:
REMARK  status: ('A' for Active; 'I' for Inactive)
REMARK    1  A    between atoms: C2_2  and  C3_4 
REMARK    2  A    between atoms: C4_5  and  C5_6 
REMARK    3  A    between atoms: C6_7  and  N1_8 
REMARK    4  A    between atoms: C9_12  and  C10_13 
ROOT
HETATM    1  N1  UNL     1      22.184   3.292  51.332  1.00  0.00    -0.258 N 
HETATM    2  C7  UNL     1      21.062   3.767  52.249  1.00  0.00     0.232 C 
HETATM    3  N2  UNL     1      20.041   2.860  52.674  1.00  0.00    -0.241 NA
HETATM    4  C8  UNL     1      20.405   1.430  52.245  1.00  0.00     0.071 C 
HETATM    5  C9  UNL     1      21.244   0.646  53.010  1.00  0.00     0.062 C 
HETATM    6  C11 UNL     1      22.670   0.975  52.513  1.00  0.00     0.056 C 
HETATM    7  C12 UNL     1      23.725   0.474  53.177  1.00  0.00     0.045 C 
HETATM    8  N3  UNL     1      22.465   1.839  51.326  1.00  0.00    -0.282 N 
HETATM    9  C13 UNL     1      22.297   1.493  49.871  1.00  0.00     0.177 C 
HETATM   10  C14 UNL     1      20.790   1.043  49.825  1.00  0.00    -0.003 C 
HETATM   11  C15 UNL     1      19.843   1.255  50.821  1.00  0.00     0.030 C 
ENDROOT
BRANCH   1  12
HETATM   12  C6  UNL     1      22.992   4.013  50.441  1.00  0.00     0.117 C 
HETATM   13  C5  UNL     1      24.155   4.453  50.907  1.00  0.00     0.019 C 
BRANCH  13  14
HETATM   14  C4  UNL     1      25.086   5.213  50.083  1.00  0.00     0.002 C 
HETATM   15  C3  UNL     1      26.165   4.724  49.492  1.00  0.00     0.015 C 
BRANCH  15  16
HETATM   16  C2  UNL     1      27.040   5.563  48.686  1.00  0.00    -0.011 C 
HETATM   17  C1  UNL     1      28.275   5.194  48.388  1.00  0.00     0.051 C 
HETATM   18 BR1  UNL     1      26.505   7.254  47.987  1.00  0.00    -0.056 Br
ENDBRANCH  15  16
ENDBRANCH  13  14
ENDBRANCH   1  12
BRANCH   5  19
HETATM   19  C10 UNL     1      21.093  -0.351  54.111  1.00  0.00     0.391 C 
HETATM   20  F1  UNL     1      20.982   0.317  55.286  1.00  0.00    -0.209 F 
HETATM   21  F2  UNL     1      20.038  -1.192  53.884  1.00  0.00    -0.209 F 
ENDBRANCH   5  19
TORSDOF 4
ENDMDL
MODEL 3
REMARK VINA RESULT:      -6.7      2.034      2.773
REMARK  4 active torsions:
REMARK  status: ('A' for Active; 'I' for Inactive)
REMARK    1  A    between atoms: C2_2  and  C3_4 
REMARK    2  A    between atoms: C4_5  and  C5_6 
REMARK    3  A    between atoms: C6_7  and  N1_8 
REMARK    4  A    between atoms: C9_12  and  C10_13 
ROOT
HETATM    1  N1  UNL     1      25.250   2.860  50.462  1.00  0.00    -0.258 N 
HETATM    2  C7  UNL     1      26.053   1.787  51.191  1.00  0.00     0.232 C 
HETATM    3  N2  UNL     1      25.565   1.220  52.409  1.00  0.00    -0.241 NA
HETATM    4  C8  UNL     1      24.129   1.703  52.669  1.00  0.00     0.071 C 
HETATM    5  C9  UNL     1      23.048   1.072  52.089  1.00  0.00     0.062 C 
HETATM    6  C11 UNL     1      22.854   1.772  50.724  1.00  0.00     0.056 C 
HETATM    7  C12 UNL     1      21.961   1.271  49.854  1.00  0.00     0.045 C 
HETATM    8  N3  UNL     1      23.800   2.912  50.748  1.00  0.00    -0.282 N 
HETATM    9  C13 UNL     1      23.625   4.328  51.228  1.00  0.00     0.177 C 
HETATM   10  C14 UNL     1      23.768   4.155  52.786  1.00  0.00    -0.003 C 
HETATM   11  C15 UNL     1      24.257   3.030  53.441  1.00  0.00     0.030 C 
ENDROOT
BRANCH   1  12
HETATM   12  C6  UNL     1      25.673   3.858  49.571  1.00  0.00     0.117 C 
HETATM   13  C5  UNL     1      26.982   4.065  49.480  1.00  0.00     0.019 C 
BRANCH  13  14
HETATM   14  C4  UNL     1      27.550   5.070  48.590  1.00  0.00     0.002 C 
HETATM   15  C3  UNL     1      27.154   6.330  48.504  1.00  0.00     0.015 C 
BRANCH  15  16
HETATM   16  C2  UNL     1      27.783   7.266  47.582  1.00  0.00    -0.011 C 
HETATM   17  C1  UNL     1      29.075   7.204  47.304  1.00  0.00     0.051 C 
HETATM   18 BR1  UNL     1      26.824   8.654  46.695  1.00  0.00    -0.056 Br
ENDBRANCH  15  16
ENDBRANCH  13  14
ENDBRANCH   1  12
BRANCH   5  19
HETATM   19  C10 UNL     1      22.115  -0.036  52.452  1.00  0.00     0.391 C 
HETATM   20  F1  UNL     1      22.836  -1.050  52.990  1.00  0.00    -0.209 F 
HETATM   21  F2  UNL     1      21.120   0.400  53.284  1.00  0.00    -0.209 F 
ENDBRANCH   5  19
TORSDOF 4
ENDMDL
MODEL 4
REMARK VINA RESULT:      -6.4      7.845     10.573
REMARK  4 active torsions:
REMARK  status: ('A' for Active; 'I' for Inactive)
REMARK    1  A    between atoms: C2_2  and  C3_4 
REMARK    2  A    between atoms: C4_5  and  C5_6 
REMARK    3  A    between atoms: C6_7  and  N1_8 
REMARK    4  A    between atoms: C9_12  and  C10_13 
ROOT
HETATM    1  N1  UNL     1      31.226   6.517  47.180  1.00  0.00    -0.258 N 
HETATM    2  C7  UNL     1      31.702   7.285  45.951  1.00  0.00     0.232 C 
HETATM    3  N2  UNL     1      33.075   7.243  45.556  1.00  0.00    -0.241 NA
HETATM    4  C8  UNL     1      33.827   6.202  46.402  1.00  0.00     0.071 C 
HETATM    5  C9  UNL     1      33.819   4.865  46.061  1.00  0.00     0.062 C 
HETATM    6  C11 UNL     1      32.570   4.277  46.758  1.00  0.00     0.056 C 
HETATM    7  C12 UNL     1      32.206   3.013  46.488  1.00  0.00     0.045 C 
HETATM    8  N3  UNL     1      32.063   5.377  47.613  1.00  0.00    -0.282 N 
HETATM    9  C13 UNL     1      32.386   5.748  49.036  1.00  0.00     0.177 C 
HETATM   10  C14 UNL     1      33.763   6.492  48.864  1.00  0.00    -0.003 C 
HETATM   11  C15 UNL     1      34.304   6.942  47.666  1.00  0.00     0.030 C 
ENDROOT
BRANCH   1  12
HETATM   12  C6  UNL     1      30.120   6.738  48.014  1.00  0.00     0.117 C 
HETATM   13  C5  UNL     1      28.996   6.104  47.699  1.00  0.00     0.019 C 
BRANCH  13  14
HETATM   14  C4  UNL     1      27.777   6.247  48.484  1.00  0.00     0.002 C 
HETATM   15  C3  UNL     1      26.995   5.253  48.876  1.00  0.00     0.015 C 
BRANCH  15  16
HETATM   16  C2  UNL     1      25.792   5.493  49.660  1.00  0.00    -0.011 C 
HETATM   17  C1  UNL     1      24.946   4.518  49.949  1.00  0.00     0.051 C 
HETATM   18 BR1  UNL     1      25.318   7.210  50.339  1.00  0.00    -0.056 Br
ENDBRANCH  15  16
ENDBRANCH  13  14
ENDBRANCH   1  12
BRANCH   5  19
HETATM   19  C10 UNL     1      34.666   3.949  45.242  1.00  0.00     0.391 C 
HETATM   20  F1  UNL     1      35.264   4.672  44.264  1.00  0.00    -0.209 F 
HETATM   21  F2  UNL     1      35.566   3.271  46.019  1.00  0.00    -0.209 F 
ENDBRANCH   5  19
TORSDOF 4
ENDMDL
MODEL 5
REMARK VINA RESULT:      -6.2      2.794      4.345
REMARK  4 active torsions:
REMARK  status: ('A' for Active; 'I' for Inactive)
REMARK    1  A    between atoms: C2_2  and  C3_4 
REMARK    2  A    between atoms: C4_5  and  C5_6 
REMARK    3  A    between atoms: C6_7  and  N1_8 
REMARK    4  A    between atoms: C9_12  and  C10_13 
ROOT
HETATM    1  N1  UNL     1      22.061   3.332  51.583  1.00  0.00    -0.258 N 
HETATM    2  C7  UNL     1      20.870   3.441  52.530  1.00  0.00     0.232 C 
HETATM    3  N2  UNL     1      20.138   2.273  52.911  1.00  0.00    -0.241 NA
HETATM    4  C8  UNL     1      20.864   1.016  52.405  1.00  0.00     0.071 C 
HETATM    5  C9  UNL     1      21.897   0.451  53.123  1.00  0.00     0.062 C 
HETATM    6  C11 UNL     1      23.173   1.175  52.637  1.00  0.00     0.056 C 
HETATM    7  C12 UNL     1      24.336   0.944  53.269  1.00  0.00     0.045 C 
HETATM    8  N3  UNL     1      22.721   2.011  51.499  1.00  0.00    -0.282 N 
HETATM    9  C13 UNL     1      22.625   1.705  50.028  1.00  0.00     0.177 C 
HETATM   10  C14 UNL     1      21.292   0.869  49.966  1.00  0.00    -0.003 C 
HETATM   11  C15 UNL     1      20.343   0.768  50.977  1.00  0.00     0.030 C 
ENDROOT
BRANCH   1  12
HETATM   12  C6  UNL     1      22.628   4.287  50.728  1.00  0.00     0.117 C 
HETATM   13  C5  UNL     1      23.520   5.115  51.261  1.00  0.00     0.019 C 
BRANCH  13  14
HETATM   14  C4  UNL     1      24.183   6.152  50.479  1.00  0.00     0.002 C 
HETATM   15  C3  UNL     1      23.984   7.454  50.607  1.00  0.00     0.015 C 
BRANCH  15  16
HETATM   16  C2  UNL     1      24.694   8.418  49.778  1.00  0.00    -0.011 C 
HETATM   17  C1  UNL     1      24.134   8.960  48.709  1.00  0.00     0.051 C 
HETATM   18 BR1  UNL     1      26.476   8.990  50.142  1.00  0.00    -0.056 Br
ENDBRANCH  15  16
ENDBRANCH  13  14
ENDBRANCH   1  12
BRANCH   5  19
HETATM   19  C10 UNL     1      22.040  -0.604  54.170  1.00  0.00     0.391 C 
HETATM   20  F1  UNL     1      21.324  -0.231  55.260  1.00  0.00    -0.209 F 
HETATM   21  F2  UNL     1      21.673  -1.834  53.696  1.00  0.00    -0.209 F 
ENDBRANCH   5  19
TORSDOF 4
ENDMDL
MODEL 6
REMARK VINA RESULT:      -6.0      4.492      6.648
REMARK  4 active torsions:
REMARK  status: ('A' for Active; 'I' for Inactive)
REMARK    1  A    between atoms: C2_2  and  C3_4 
REMARK    2  A    between atoms: C4_5  and  C5_6 
REMARK    3  A    between atoms: C6_7  and  N1_8 
REMARK    4  A    between atoms: C9_12  and  C10_13 
ROOT
HETATM    1  N1  UNL     1      21.206   1.682  52.362  1.00  0.00    -0.258 N 
HETATM    2  C7  UNL     1      20.508   3.010  52.638  1.00  0.00     0.232 C 
HETATM    3  N2  UNL     1      19.343   3.383  51.898  1.00  0.00    -0.241 NA
HETATM    4  C8  UNL     1      18.876   2.201  51.033  1.00  0.00     0.071 C 
HETATM    5  C9  UNL     1      18.072   1.209  51.555  1.00  0.00     0.062 C 
HETATM    6  C11 UNL     1      19.048   0.167  52.148  1.00  0.00     0.056 C 
HETATM    7  C12 UNL     1      18.555  -0.854  52.869  1.00  0.00     0.045 C 
HETATM    8  N3  UNL     1      20.392   0.625  51.723  1.00  0.00    -0.282 N 
HETATM    9  C13 UNL     1      21.193   0.316  50.486  1.00  0.00     0.177 C 
HETATM   10  C14 UNL     1      20.516   1.262  49.426  1.00  0.00    -0.003 C 
HETATM   11  C15 UNL     1      19.647   2.312  49.704  1.00  0.00     0.030 C 
ENDROOT
BRANCH   1  12
HETATM   12  C6  UNL     1      22.536   1.295  52.583  1.00  0.00     0.117 C 
HETATM   13  C5  UNL     1      23.433   2.269  52.694  1.00  0.00     0.019 C 
BRANCH  13  14
HETATM   14  C4  UNL     1      24.847   2.001  52.926  1.00  0.00     0.002 C 
HETATM   15  C3  UNL     1      25.472   0.871  52.636  1.00  0.00     0.015 C 
BRANCH  15  16
HETATM   16  C2  UNL     1      26.892   0.694  52.906  1.00  0.00    -0.011 C 
HETATM   17  C1  UNL     1      27.471  -0.494  52.829  1.00  0.00     0.051 C 
HETATM   18 BR1  UNL     1      28.045   2.131  53.393  1.00  0.00    -0.056 Br
ENDBRANCH  15  16
ENDBRANCH  13  14
ENDBRANCH   1  12
BRANCH   5  19
HETATM   19  C10 UNL     1      16.607   0.946  51.667  1.00  0.00     0.391 C 
HETATM   20  F1  UNL     1      15.993   2.085  52.073  1.00  0.00    -0.209 F 
HETATM   21  F2  UNL     1      16.094   0.462  50.495  1.00  0.00    -0.209 F 
ENDBRANCH   5  19
TORSDOF 4
ENDMDL
MODEL 7
REMARK VINA RESULT:      -5.9      4.522      6.774
REMARK  4 active torsions:
REMARK  status: ('A' for Active; 'I' for Inactive)
REMARK    1  A    between atoms: C2_2  and  C3_4 
REMARK    2  A    between atoms: C4_5  and  C5_6 
REMARK    3  A    between atoms: C6_7  and  N1_8 
REMARK    4  A    between atoms: C9_12  and  C10_13 
ROOT
HETATM    1  N1  UNL     1      23.366   2.530  51.358  1.00  0.00    -0.258 N 
HETATM    2  C7  UNL     1      22.144   2.817  52.224  1.00  0.00     0.232 C 
HETATM    3  N2  UNL     1      21.412   4.035  52.063  1.00  0.00    -0.241 NA
HETATM    4  C8  UNL     1      21.926   4.791  50.827  1.00  0.00     0.071 C 
HETATM    5  C9  UNL     1      21.462   4.492  49.564  1.00  0.00     0.062 C 
HETATM    6  C11 UNL     1      22.386   3.366  49.047  1.00  0.00     0.056 C 
HETATM    7  C12 UNL     1      22.086   2.753  47.890  1.00  0.00     0.045 C 
HETATM    8  N3  UNL     1      23.452   3.255  50.072  1.00  0.00    -0.282 N 
HETATM    9  C13 UNL     1      24.777   3.957  50.196  1.00  0.00     0.177 C 
HETATM   10  C14 UNL     1      24.342   5.355  50.775  1.00  0.00    -0.003 C 
HETATM   11  C15 UNL     1      23.098   5.663  51.316  1.00  0.00     0.030 C 
ENDROOT
BRANCH   1  12
HETATM   12  C6  UNL     1      24.471   1.700  51.599  1.00  0.00     0.117 C 
HETATM   13  C5  UNL     1      24.314   0.739  52.502  1.00  0.00     0.019 C 
BRANCH  13  14
HETATM   14  C4  UNL     1      25.384  -0.190  52.843  1.00  0.00     0.002 C 
HETATM   15  C3  UNL     1      26.665  -0.026  52.553  1.00  0.00     0.015 C 
BRANCH  15  16
HETATM   16  C2  UNL     1      27.665  -1.013  52.934  1.00  0.00    -0.011 C 
HETATM   17  C1  UNL     1      27.456  -2.310  52.778  1.00  0.00     0.051 C 
HETATM   18 BR1  UNL     1      29.353  -0.545  53.687  1.00  0.00    -0.056 Br
ENDBRANCH  15  16
ENDBRANCH  13  14
ENDBRANCH   1  12
BRANCH   5  19
HETATM   19  C10 UNL     1      20.364   4.967  48.670  1.00  0.00     0.391 C 
HETATM   20  F1  UNL     1      19.213   5.014  49.387  1.00  0.00    -0.209 F 
HETATM   21  F2  UNL     1      20.672   6.169  48.094  1.00  0.00    -0.209 F 
ENDBRANCH   5  19
TORSDOF 4
ENDMDL
MODEL 8
REMARK VINA RESULT:      -5.9      5.888      8.698
REMARK  4 active torsions:
REMARK  status: ('A' for Active; 'I' for Inactive)
REMARK    1  A    between atoms: C2_2  and  C3_4 
REMARK    2  A    between atoms: C4_5  and  C5_6 
REMARK    3  A    between atoms: C6_7  and  N1_8 
REMARK    4  A    between atoms: C9_12  and  C10_13 
ROOT
HETATM    1  N1  UNL     1      20.230   1.288  51.777  1.00  0.00    -0.258 N 
HETATM    2  C7  UNL     1      20.110   2.759  52.162  1.00  0.00     0.232 C 
HETATM    3  N2  UNL     1      21.270   3.594  52.207  1.00  0.00    -0.241 NA
HETATM    4  C8  UNL     1      22.478   2.836  51.634  1.00  0.00     0.071 C 
HETATM    5  C9  UNL     1      22.716   2.794  50.276  1.00  0.00     0.062 C 
HETATM    6  C11 UNL     1      21.922   1.570  49.763  1.00  0.00     0.056 C 
HETATM    7  C12 UNL     1      21.834   1.357  48.440  1.00  0.00     0.045 C 
HETATM    8  N3  UNL     1      21.422   0.905  50.990  1.00  0.00    -0.282 N 
HETATM    9  C13 UNL     1      22.040  -0.161  51.854  1.00  0.00     0.177 C 
HETATM   10  C14 UNL     1      23.065   0.677  52.706  1.00  0.00    -0.003 C 
HETATM   11  C15 UNL     1      23.097   2.063  52.814  1.00  0.00     0.030 C 
ENDROOT
BRANCH   1  12
HETATM   12  C6  UNL     1      19.399   0.201  52.085  1.00  0.00     0.117 C 
HETATM   13  C5  UNL     1      18.141   0.270  51.664  1.00  0.00     0.019 C 
BRANCH  13  14
HETATM   14  C4  UNL     1      17.177  -0.793  51.917  1.00  0.00     0.002 C 
HETATM   15  C3  UNL     1      17.374  -1.837  52.707  1.00  0.00     0.015 C 
BRANCH  15  16
HETATM   16  C2  UNL     1      16.350  -2.853  52.898  1.00  0.00    -0.011 C 
HETATM   17  C1  UNL     1      15.114  -2.686  52.455  1.00  0.00     0.051 C 
HETATM   18 BR1  UNL     1      16.677  -4.504  53.794  1.00  0.00    -0.056 Br
ENDBRANCH  15  16
ENDBRANCH  13  14
ENDBRANCH   1  12
BRANCH   5  19
HETATM   19  C10 UNL     1      23.493   3.596  49.285  1.00  0.00     0.391 C 
HETATM   20  F1  UNL     1      23.456   4.899  49.659  1.00  0.00    -0.209 F 
HETATM   21  F2  UNL     1      24.770   3.125  49.151  1.00  0.00    -0.209 F 
ENDBRANCH   5  19
TORSDOF 4
ENDMDL
MODEL 9
REMARK VINA RESULT:      -5.7      5.463      8.506
REMARK  4 active torsions:
REMARK  status: ('A' for Active; 'I' for Inactive)
REMARK    1  A    between atoms: C2_2  and  C3_4 
REMARK    2  A    between atoms: C4_5  and  C5_6 
REMARK    3  A    between atoms: C6_7  and  N1_8 
REMARK    4  A    between atoms: C9_12  and  C10_13 
ROOT
HETATM    1  N1  UNL     1      23.810   5.004  49.488  1.00  0.00    -0.258 N 
HETATM    2  C7  UNL     1      23.030   5.208  48.194  1.00  0.00     0.232 C 
HETATM    3  N2  UNL     1      23.045   6.475  47.532  1.00  0.00    -0.241 NA
HETATM    4  C8  UNL     1      24.072   7.401  48.203  1.00  0.00     0.071 C 
HETATM    5  C9  UNL     1      25.408   7.349  47.863  1.00  0.00     0.062 C 
HETATM    6  C11 UNL     1      26.022   6.277  48.792  1.00  0.00     0.056 C 
HETATM    7  C12 UNL     1      27.293   5.890  48.593  1.00  0.00     0.045 C 
HETATM    8  N3  UNL     1      24.934   5.932  49.739  1.00  0.00    -0.282 N 
HETATM    9  C13 UNL     1      24.560   6.527  51.070  1.00  0.00     0.177 C 
HETATM   10  C14 UNL     1      23.788   7.827  50.630  1.00  0.00    -0.003 C 
HETATM   11  C15 UNL     1      23.325   8.108  49.350  1.00  0.00     0.030 C 
ENDROOT
BRANCH   1  12
HETATM   12  C6  UNL     1      23.613   4.083  50.528  1.00  0.00     0.117 C 
HETATM   13  C5  UNL     1      24.447   3.051  50.582  1.00  0.00     0.019 C 
BRANCH  13  14
HETATM   14  C4  UNL     1      24.351   2.025  51.613  1.00  0.00     0.002 C 
HETATM   15  C3  UNL     1      25.283   1.129  51.895  1.00  0.00     0.015 C 
BRANCH  15  16
HETATM   16  C2  UNL     1      25.097   0.139  52.945  1.00  0.00    -0.011 C 
HETATM   17  C1  UNL     1      26.125  -0.402  53.580  1.00  0.00     0.051 C 
HETATM   18 BR1  UNL     1      23.381  -0.471  53.507  1.00  0.00    -0.056 Br
ENDBRANCH  15  16
ENDBRANCH  13  14
ENDBRANCH   1  12
BRANCH   5  19
HETATM   19  C10 UNL     1      26.306   8.033  46.885  1.00  0.00     0.391 C 
HETATM   20  F1  UNL     1      25.692   8.054  45.677  1.00  0.00    -0.209 F 
HETATM   21  F2  UNL     1      26.659   9.282  47.317  1.00  0.00    -0.209 F 
ENDBRANCH   5  19
TORSDOF 4
ENDMDL
