MODEL 1
REMARK VINA RESULT:      -9.2      0.000      0.000
REMARK  5 active torsions:
REMARK  status: ('A' for Active; 'I' for Inactive)
REMARK    1  A    between atoms: C1_2  and  C2_3 
REMARK    2  A    between atoms: C7_9  and  O1_10 
REMARK    3  A    between atoms: O1_10  and  C8_11 
REMARK    4  A    between atoms: C10_13  and  N2_14 
REMARK    5  A    between atoms: N2_14  and  C11_15 
ROOT
HETATM    1  C8  UNL     1      27.443   2.029  52.307  1.00  0.00     0.174 A 
HETATM    2  C9  UNL     1      26.723   1.023  52.892  1.00  0.00     0.108 A 
HETATM    3  C10 UNL     1      27.061   0.465  54.105  1.00  0.00     0.133 A 
HETATM    4  N3  UNL     1      28.153   0.998  54.654  1.00  0.00    -0.224 NA
HETATM    5  C17 UNL     1      28.908   1.973  54.156  1.00  0.00     0.238 A 
HETATM    6  N4  UNL     1      28.530   2.480  52.970  1.00  0.00    -0.217 NA
ENDROOT
BRANCH   1   7
HETATM    7  O1  UNL     1      27.219   2.660  51.127  1.00  0.00    -0.291 OA
BRANCH   7   8
HETATM    8  C7  UNL     1      26.026   3.115  50.606  1.00  0.00     0.089 A 
HETATM    9  C2  UNL     1      25.871   4.079  49.636  1.00  0.00     0.016 A 
HETATM   10  C3  UNL     1      24.681   4.534  49.114  1.00  0.00     0.034 A 
HETATM   11  C4  UNL     1      23.557   3.939  49.643  1.00  0.00     0.011 A 
HETATM   12 BR1  UNL     1      21.839   4.485  49.001  1.00  0.00    -0.051 Br
HETATM   13  C5  UNL     1      23.686   2.971  50.614  1.00  0.00     0.022 A 
HETATM   14  C6  UNL     1      24.877   2.540  51.111  1.00  0.00     0.039 A 
BRANCH   9  15
HETATM   15  C1  UNL     1      27.063   4.689  49.076  1.00  0.00     0.121 C 
HETATM   16  N1  UNL     1      28.269   5.067  48.975  1.00  0.00    -0.311 NA
HETATM   17  H1  UNL     1      29.048   4.927  49.649  1.00  0.00     0.186 HD
ENDBRANCH   9  15
ENDBRANCH   7   8
ENDBRANCH   1   7
BRANCH   3  18
HETATM   18  N2  UNL     1      26.254  -0.574  54.631  1.00  0.00    -0.341 N 
HETATM   19  H7  UNL     1      26.742  -1.336  55.181  1.00  0.00     0.167 HD
BRANCH  18  20
HETATM   20  C11 UNL     1      24.850  -0.736  54.517  1.00  0.00     0.035 A 
HETATM   21  C12 UNL     1      24.102  -1.323  55.526  1.00  0.00     0.032 A 
HETATM   22  C13 UNL     1      22.742  -1.497  55.451  1.00  0.00     0.046 A 
HETATM   23  C14 UNL     1      22.042  -1.084  54.339  1.00  0.00     0.138 A 
HETATM   24  F1  UNL     1      20.700  -1.268  54.293  1.00  0.00    -0.204 F 
HETATM   25  C15 UNL     1      22.738  -0.500  53.320  1.00  0.00     0.074 A 
HETATM   26 CL1  UNL     1      21.848   0.026  51.904  1.00  0.00    -0.081 Cl
HETATM   27  C16 UNL     1      24.101  -0.344  53.433  1.00  0.00     0.056 A 
ENDBRANCH  18  20
ENDBRANCH   3  18
TORSDOF 5
ENDMDL
MODEL 2
REMARK VINA RESULT:      -8.9      3.990      5.239
REMARK  5 active torsions:
REMARK  status: ('A' for Active; 'I' for Inactive)
REMARK    1  A    between atoms: C1_2  and  C2_3 
REMARK    2  A    between atoms: C7_9  and  O1_10 
REMARK    3  A    between atoms: O1_10  and  C8_11 
REMARK    4  A    between atoms: C10_13  and  N2_14 
REMARK    5  A    between atoms: N2_14  and  C11_15 
ROOT
HETATM    1  C8  UNL     1      24.787   3.831  50.730  1.00  0.00     0.174 A 
HETATM    2  C9  UNL     1      25.204   2.705  51.386  1.00  0.00     0.108 A 
HETATM    3  C10 UNL     1      24.860   2.426  52.690  1.00  0.00     0.133 A 
HETATM    4  N3  UNL     1      24.084   3.354  53.250  1.00  0.00    -0.224 NA
HETATM    5  C17 UNL     1      23.635   4.472  52.687  1.00  0.00     0.238 A 
HETATM    6  N4  UNL     1      24.002   4.692  51.412  1.00  0.00    -0.217 NA
ENDROOT
BRANCH   1   7
HETATM    7  O1  UNL     1      25.053   4.221  49.457  1.00  0.00    -0.291 OA
BRANCH   7   8
HETATM    8  C7  UNL     1      26.067   5.037  48.999  1.00  0.00     0.089 A 
HETATM    9  C2  UNL     1      25.956   6.365  48.658  1.00  0.00     0.016 A 
HETATM   10  C3  UNL     1      26.966   7.181  48.202  1.00  0.00     0.034 A 
HETATM   11  C4  UNL     1      28.195   6.568  48.090  1.00  0.00     0.011 A 
HETATM   12 BR1  UNL     1      29.683   7.596  47.465  1.00  0.00    -0.051 Br
HETATM   13  C5  UNL     1      28.330   5.239  48.426  1.00  0.00     0.022 A 
HETATM   14  C6  UNL     1      27.312   4.456  48.876  1.00  0.00     0.039 A 
BRANCH   9  15
HETATM   15  C1  UNL     1      24.660   7.005  48.793  1.00  0.00     0.121 C 
HETATM   16  N1  UNL     1      23.457   7.188  49.146  1.00  0.00    -0.311 NA
HETATM   17  H1  UNL     1      22.851   6.568  49.719  1.00  0.00     0.186 HD
ENDBRANCH   9  15
ENDBRANCH   7   8
ENDBRANCH   1   7
BRANCH   3  18
HETATM   18  N2  UNL     1      25.342   1.234  53.286  1.00  0.00    -0.341 N 
HETATM   19  H7  UNL     1      24.626   0.587  53.723  1.00  0.00     0.167 HD
BRANCH  18  20
HETATM   20  C11 UNL     1      26.682   0.781  53.381  1.00  0.00     0.035 A 
HETATM   21  C12 UNL     1      27.722   1.648  53.675  1.00  0.00     0.032 A 
HETATM   22  C13 UNL     1      29.032   1.247  53.774  1.00  0.00     0.046 A 
HETATM   23  C14 UNL     1      29.378  -0.072  53.582  1.00  0.00     0.138 A 
HETATM   24  F1  UNL     1      30.678  -0.440  53.687  1.00  0.00    -0.204 F 
HETATM   25  C15 UNL     1      28.385  -0.962  53.291  1.00  0.00     0.074 A 
HETATM   26 CL1  UNL     1      28.824  -2.642  53.047  1.00  0.00    -0.081 Cl
HETATM   27  C16 UNL     1      27.085  -0.521  53.200  1.00  0.00     0.056 A 
ENDBRANCH  18  20
ENDBRANCH   3  18
TORSDOF 5
ENDMDL
MODEL 3
REMARK VINA RESULT:      -8.7      4.036      6.880
REMARK  5 active torsions:
REMARK  status: ('A' for Active; 'I' for Inactive)
REMARK    1  A    between atoms: C1_2  and  C2_3 
REMARK    2  A    between atoms: C7_9  and  O1_10 
REMARK    3  A    between atoms: O1_10  and  C8_11 
REMARK    4  A    between atoms: C10_13  and  N2_14 
REMARK    5  A    between atoms: N2_14  and  C11_15 
ROOT
HETATM    1  C8  UNL     1      22.689   1.689  52.714  1.00  0.00     0.174 A 
HETATM    2  C9  UNL     1      24.013   1.903  52.984  1.00  0.00     0.108 A 
HETATM    3  C10 UNL     1      24.947   2.158  52.005  1.00  0.00     0.133 A 
HETATM    4  N3  UNL     1      24.440   2.179  50.772  1.00  0.00    -0.224 NA
HETATM    5  C17 UNL     1      23.172   1.983  50.423  1.00  0.00     0.238 A 
HETATM    6  N4  UNL     1      22.304   1.738  51.420  1.00  0.00    -0.217 NA
ENDROOT
BRANCH   1   7
HETATM    7  O1  UNL     1      21.675   1.430  53.579  1.00  0.00    -0.291 OA
BRANCH   7   8
HETATM    8  C7  UNL     1      20.791   0.372  53.577  1.00  0.00     0.089 A 
HETATM    9  C2  UNL     1      20.967  -0.842  54.201  1.00  0.00     0.016 A 
HETATM   10  C3  UNL     1      20.085  -1.900  54.201  1.00  0.00     0.034 A 
HETATM   11  C4  UNL     1      18.923  -1.679  53.494  1.00  0.00     0.011 A 
HETATM   12 BR1  UNL     1      17.615  -3.073  53.416  1.00  0.00    -0.051 Br
HETATM   13  C5  UNL     1      18.725  -0.472  52.861  1.00  0.00     0.022 A 
HETATM   14  C6  UNL     1      19.615   0.557  52.879  1.00  0.00     0.039 A 
BRANCH   9  15
HETATM   15  C1  UNL     1      22.188  -1.058  54.955  1.00  0.00     0.121 C 
HETATM   16  N1  UNL     1      23.027  -1.619  55.723  1.00  0.00    -0.311 NA
HETATM   17  H1  UNL     1      22.936  -2.523  56.227  1.00  0.00     0.186 HD
ENDBRANCH   9  15
ENDBRANCH   7   8
ENDBRANCH   1   7
BRANCH   3  18
HETATM   18  N2  UNL     1      26.298   2.365  52.382  1.00  0.00    -0.341 N 
HETATM   19  H7  UNL     1      26.659   3.361  52.364  1.00  0.00     0.167 HD
BRANCH  18  20
HETATM   20  C11 UNL     1      27.252   1.399  52.788  1.00  0.00     0.035 A 
HETATM   21  C12 UNL     1      28.435   1.763  53.410  1.00  0.00     0.032 A 
HETATM   22  C13 UNL     1      29.383   0.856  53.817  1.00  0.00     0.046 A 
HETATM   23  C14 UNL     1      29.193  -0.494  53.619  1.00  0.00     0.138 A 
HETATM   24  F1  UNL     1      30.144  -1.366  54.031  1.00  0.00    -0.204 F 
HETATM   25  C15 UNL     1      28.040  -0.898  53.010  1.00  0.00     0.074 A 
HETATM   26 CL1  UNL     1      27.796  -2.617  52.758  1.00  0.00    -0.081 Cl
HETATM   27  C16 UNL     1      27.115   0.042  52.617  1.00  0.00     0.056 A 
ENDBRANCH  18  20
ENDBRANCH   3  18
TORSDOF 5
ENDMDL
MODEL 4
REMARK VINA RESULT:      -8.6      3.766      5.028
REMARK  5 active torsions:
REMARK  status: ('A' for Active; 'I' for Inactive)
REMARK    1  A    between atoms: C1_2  and  C2_3 
REMARK    2  A    between atoms: C7_9  and  O1_10 
REMARK    3  A    between atoms: O1_10  and  C8_11 
REMARK    4  A    between atoms: C10_13  and  N2_14 
REMARK    5  A    between atoms: N2_14  and  C11_15 
ROOT
HETATM    1  C8  UNL     1      23.403   1.880  51.013  1.00  0.00     0.174 A 
HETATM    2  C9  UNL     1      24.217   1.178  51.860  1.00  0.00     0.108 A 
HETATM    3  C10 UNL     1      23.794   0.693  53.077  1.00  0.00     0.133 A 
HETATM    4  N3  UNL     1      22.520   0.972  53.352  1.00  0.00    -0.224 NA
HETATM    5  C17 UNL     1      21.663   1.645  52.590  1.00  0.00     0.238 A 
HETATM    6  N4  UNL     1      22.130   2.094  51.412  1.00  0.00    -0.217 NA
ENDROOT
BRANCH   1   7
HETATM    7  O1  UNL     1      23.693   2.408  49.797  1.00  0.00    -0.291 OA
BRANCH   7   8
HETATM    8  C7  UNL     1      24.549   3.445  49.490  1.00  0.00     0.089 A 
HETATM    9  C2  UNL     1      24.188   4.724  49.134  1.00  0.00     0.016 A 
HETATM   10  C3  UNL     1      25.041   5.761  48.827  1.00  0.00     0.034 A 
HETATM   11  C4  UNL     1      26.380   5.444  48.895  1.00  0.00     0.011 A 
HETATM   12 BR1  UNL     1      27.668   6.800  48.491  1.00  0.00    -0.051 Br
HETATM   13  C5  UNL     1      26.765   4.170  49.250  1.00  0.00     0.022 A 
HETATM   14  C6  UNL     1      25.899   3.164  49.549  1.00  0.00     0.039 A 
BRANCH   9  15
HETATM   15  C1  UNL     1      22.775   5.051  49.078  1.00  0.00     0.121 C 
HETATM   16  N1  UNL     1      21.519   4.888  49.031  1.00  0.00    -0.311 NA
HETATM   17  H1  UNL     1      20.984   3.997  49.014  1.00  0.00     0.186 HD
ENDBRANCH   9  15
ENDBRANCH   7   8
ENDBRANCH   1   7
BRANCH   3  18
HETATM   18  N2  UNL     1      24.711  -0.023  53.887  1.00  0.00    -0.341 N 
HETATM   19  H7  UNL     1      24.315  -0.564  54.706  1.00  0.00     0.167 HD
BRANCH  18  20
HETATM   20  C11 UNL     1      26.119  -0.113  53.746  1.00  0.00     0.035 A 
HETATM   21  C12 UNL     1      26.718  -1.198  53.125  1.00  0.00     0.032 A 
HETATM   22  C13 UNL     1      28.077  -1.321  52.970  1.00  0.00     0.046 A 
HETATM   23  C14 UNL     1      28.928  -0.344  53.438  1.00  0.00     0.138 A 
HETATM   24  F1  UNL     1      30.264  -0.491  53.270  1.00  0.00    -0.204 F 
HETATM   25  C15 UNL     1      28.381   0.743  54.056  1.00  0.00     0.074 A 
HETATM   26 CL1  UNL     1      29.463   1.988  54.652  1.00  0.00    -0.081 Cl
HETATM   27  C16 UNL     1      27.014   0.829  54.192  1.00  0.00     0.056 A 
ENDBRANCH  18  20
ENDBRANCH   3  18
TORSDOF 5
ENDMDL
MODEL 5
REMARK VINA RESULT:      -8.5      4.483      6.508
REMARK  5 active torsions:
REMARK  status: ('A' for Active; 'I' for Inactive)
REMARK    1  A    between atoms: C1_2  and  C2_3 
REMARK    2  A    between atoms: C7_9  and  O1_10 
REMARK    3  A    between atoms: O1_10  and  C8_11 
REMARK    4  A    between atoms: C10_13  and  N2_14 
REMARK    5  A    between atoms: N2_14  and  C11_15 
ROOT
HETATM    1  C8  UNL     1      27.674   5.766  48.521  1.00  0.00     0.174 A 
HETATM    2  C9  UNL     1      27.371   4.494  48.927  1.00  0.00     0.108 A 
HETATM    3  C10 UNL     1      26.282   4.198  49.716  1.00  0.00     0.133 A 
HETATM    4  N3  UNL     1      25.552   5.264  50.045  1.00  0.00    -0.224 NA
HETATM    5  C17 UNL     1      25.774   6.528  49.696  1.00  0.00     0.238 A 
HETATM    6  N4  UNL     1      26.851   6.758  48.925  1.00  0.00    -0.217 NA
ENDROOT
BRANCH   1   7
HETATM    7  O1  UNL     1      28.708   6.188  47.750  1.00  0.00    -0.291 OA
BRANCH   7   8
HETATM    8  C7  UNL     1      30.061   6.099  48.000  1.00  0.00     0.089 A 
HETATM    9  C2  UNL     1      30.838   7.036  48.643  1.00  0.00     0.016 A 
HETATM   10  C3  UNL     1      32.189   6.948  48.893  1.00  0.00     0.034 A 
HETATM   11  C4  UNL     1      32.785   5.792  48.438  1.00  0.00     0.011 A 
HETATM   12 BR1  UNL     1      34.661   5.550  48.723  1.00  0.00    -0.051 Br
HETATM   13  C5  UNL     1      32.028   4.840  47.791  1.00  0.00     0.022 A 
HETATM   14  C6  UNL     1      30.692   4.954  47.558  1.00  0.00     0.039 A 
BRANCH   9  15
HETATM   15  C1  UNL     1      30.198   8.243  49.131  1.00  0.00     0.121 C 
HETATM   16  N1  UNL     1      29.292   9.013  49.572  1.00  0.00    -0.311 NA
HETATM   17  H1  UNL     1      28.297   8.789  49.773  1.00  0.00     0.186 HD
ENDBRANCH   9  15
ENDBRANCH   7   8
ENDBRANCH   1   7
BRANCH   3  18
HETATM   18  N2  UNL     1      26.050   2.850  50.087  1.00  0.00    -0.341 N 
HETATM   19  H7  UNL     1      25.778   2.175  49.318  1.00  0.00     0.167 HD
BRANCH  18  20
HETATM   20  C11 UNL     1      26.133   2.270  51.378  1.00  0.00     0.035 A 
HETATM   21  C12 UNL     1      25.004   1.825  52.048  1.00  0.00     0.032 A 
HETATM   22  C13 UNL     1      25.045   1.259  53.299  1.00  0.00     0.046 A 
HETATM   23  C14 UNL     1      26.243   1.104  53.960  1.00  0.00     0.138 A 
HETATM   24  F1  UNL     1      26.253   0.542  55.192  1.00  0.00    -0.204 F 
HETATM   25  C15 UNL     1      27.381   1.529  53.338  1.00  0.00     0.074 A 
HETATM   26 CL1  UNL     1      28.907   1.333  54.179  1.00  0.00    -0.081 Cl
HETATM   27  C16 UNL     1      27.298   2.091  52.084  1.00  0.00     0.056 A 
ENDBRANCH  18  20
ENDBRANCH   3  18
TORSDOF 5
ENDMDL
MODEL 6
REMARK VINA RESULT:      -8.3      5.410      8.786
REMARK  5 active torsions:
REMARK  status: ('A' for Active; 'I' for Inactive)
REMARK    1  A    between atoms: C1_2  and  C2_3 
REMARK    2  A    between atoms: C7_9  and  O1_10 
REMARK    3  A    between atoms: O1_10  and  C8_11 
REMARK    4  A    between atoms: C10_13  and  N2_14 
REMARK    5  A    between atoms: N2_14  and  C11_15 
ROOT
HETATM    1  C8  UNL     1      25.863   5.108  49.651  1.00  0.00     0.174 A 
HETATM    2  C9  UNL     1      26.959   5.262  48.847  1.00  0.00     0.108 A 
HETATM    3  C10 UNL     1      27.531   6.487  48.585  1.00  0.00     0.133 A 
HETATM    4  N3  UNL     1      26.917   7.506  49.188  1.00  0.00    -0.224 NA
HETATM    5  C17 UNL     1      25.852   7.445  49.982  1.00  0.00     0.238 A 
HETATM    6  N4  UNL     1      25.336   6.223  50.203  1.00  0.00    -0.217 NA
ENDROOT
BRANCH   1   7
HETATM    7  O1  UNL     1      25.208   3.967  49.987  1.00  0.00    -0.291 OA
BRANCH   7   8
HETATM    8  C7  UNL     1      25.426   3.135  51.065  1.00  0.00     0.089 A 
HETATM    9  C2  UNL     1      24.730   3.137  52.253  1.00  0.00     0.016 A 
HETATM   10  C3  UNL     1      24.946   2.307  53.330  1.00  0.00     0.034 A 
HETATM   11  C4  UNL     1      25.968   1.398  53.161  1.00  0.00     0.011 A 
HETATM   12 BR1  UNL     1      26.368   0.187  54.587  1.00  0.00    -0.051 Br
HETATM   13  C5  UNL     1      26.678   1.378  51.981  1.00  0.00     0.022 A 
HETATM   14  C6  UNL     1      26.442   2.211  50.931  1.00  0.00     0.039 A 
BRANCH   9  15
HETATM   15  C1  UNL     1      23.647   4.088  52.415  1.00  0.00     0.121 C 
HETATM   16  N1  UNL     1      23.035   5.198  52.449  1.00  0.00    -0.311 NA
HETATM   17  H1  UNL     1      23.413   6.149  52.264  1.00  0.00     0.186 HD
ENDBRANCH   9  15
ENDBRANCH   7   8
ENDBRANCH   1   7
BRANCH   3  18
HETATM   18  N2  UNL     1      28.666   6.548  47.738  1.00  0.00    -0.341 N 
HETATM   19  H7  UNL     1      28.500   6.802  46.723  1.00  0.00     0.167 HD
BRANCH  18  20
HETATM   20  C11 UNL     1      30.023   6.308  48.073  1.00  0.00     0.035 A 
HETATM   21  C12 UNL     1      30.774   7.241  48.770  1.00  0.00     0.032 A 
HETATM   22  C13 UNL     1      32.089   7.045  49.112  1.00  0.00     0.046 A 
HETATM   23  C14 UNL     1      32.738   5.879  48.767  1.00  0.00     0.138 A 
HETATM   24  F1  UNL     1      34.035   5.713  49.118  1.00  0.00    -0.204 F 
HETATM   25  C15 UNL     1      32.036   4.932  48.079  1.00  0.00     0.074 A 
HETATM   26 CL1  UNL     1      32.860   3.448  47.639  1.00  0.00    -0.081 Cl
HETATM   27  C16 UNL     1      30.719   5.167  47.755  1.00  0.00     0.056 A 
ENDBRANCH  18  20
ENDBRANCH   3  18
TORSDOF 5
ENDMDL
MODEL 7
REMARK VINA RESULT:      -8.3      3.461      4.894
REMARK  5 active torsions:
REMARK  status: ('A' for Active; 'I' for Inactive)
REMARK    1  A    between atoms: C1_2  and  C2_3 
REMARK    2  A    between atoms: C7_9  and  O1_10 
REMARK    3  A    between atoms: O1_10  and  C8_11 
REMARK    4  A    between atoms: C10_13  and  N2_14 
REMARK    5  A    between atoms: N2_14  and  C11_15 
ROOT
HETATM    1  C8  UNL     1      24.178   3.536  50.386  1.00  0.00     0.174 A 
HETATM    2  C9  UNL     1      25.181   3.315  51.290  1.00  0.00     0.108 A 
HETATM    3  C10 UNL     1      24.970   2.727  52.517  1.00  0.00     0.133 A 
HETATM    4  N3  UNL     1      23.698   2.394  52.740  1.00  0.00    -0.224 NA
HETATM    5  C17 UNL     1      22.666   2.571  51.920  1.00  0.00     0.238 A 
HETATM    6  N4  UNL     1      22.931   3.149  50.736  1.00  0.00    -0.217 NA
ENDROOT
BRANCH   1   7
HETATM    7  O1  UNL     1      24.252   4.101  49.154  1.00  0.00    -0.291 OA
BRANCH   7   8
HETATM    8  C7  UNL     1      24.415   5.430  48.824  1.00  0.00     0.089 A 
HETATM    9  C2  UNL     1      25.611   6.084  48.630  1.00  0.00     0.016 A 
HETATM   10  C3  UNL     1      25.775   7.410  48.301  1.00  0.00     0.034 A 
HETATM   11  C4  UNL     1      24.602   8.119  48.161  1.00  0.00     0.011 A 
HETATM   12 BR1  UNL     1      24.695   9.974  47.704  1.00  0.00    -0.051 Br
HETATM   13  C5  UNL     1      23.393   7.485  48.350  1.00  0.00     0.022 A 
HETATM   14  C6  UNL     1      23.260   6.171  48.675  1.00  0.00     0.039 A 
BRANCH   9  15
HETATM   15  C1  UNL     1      26.840   5.325  48.767  1.00  0.00     0.121 C 
HETATM   16  N1  UNL     1      27.890   4.848  49.294  1.00  0.00    -0.311 NA
HETATM   17  H1  UNL     1      28.257   5.003  50.255  1.00  0.00     0.186 HD
ENDBRANCH   9  15
ENDBRANCH   7   8
ENDBRANCH   1   7
BRANCH   3  18
HETATM   18  N2  UNL     1      26.072   2.541  53.388  1.00  0.00    -0.341 N 
HETATM   19  H7  UNL     1      26.229   3.275  54.135  1.00  0.00     0.167 HD
BRANCH  18  20
HETATM   20  C11 UNL     1      27.015   1.482  53.394  1.00  0.00     0.035 A 
HETATM   21  C12 UNL     1      28.328   1.681  53.788  1.00  0.00     0.032 A 
HETATM   22  C13 UNL     1      29.269   0.681  53.806  1.00  0.00     0.046 A 
HETATM   23  C14 UNL     1      28.938  -0.601  53.424  1.00  0.00     0.138 A 
HETATM   24  F1  UNL     1      29.886  -1.568  53.453  1.00  0.00    -0.204 F 
HETATM   25  C15 UNL     1      27.654  -0.843  53.029  1.00  0.00     0.074 A 
HETATM   26 CL1  UNL     1      27.231  -2.474  52.542  1.00  0.00    -0.081 Cl
HETATM   27  C16 UNL     1      26.741   0.187  53.024  1.00  0.00     0.056 A 
ENDBRANCH  18  20
ENDBRANCH   3  18
TORSDOF 5
ENDMDL
MODEL 8
REMARK VINA RESULT:      -8.3      4.716      8.089
REMARK  5 active torsions:
REMARK  status: ('A' for Active; 'I' for Inactive)
REMARK    1  A    between atoms: C1_2  and  C2_3 
REMARK    2  A    between atoms: C7_9  and  O1_10 
REMARK    3  A    between atoms: O1_10  and  C8_11 
REMARK    4  A    between atoms: C10_13  and  N2_14 
REMARK    5  A    between atoms: N2_14  and  C11_15 
ROOT
HETATM    1  C8  UNL     1      23.734   1.998  52.375  1.00  0.00     0.174 A 
HETATM    2  C9  UNL     1      24.428   2.201  51.214  1.00  0.00     0.108 A 
HETATM    3  C10 UNL     1      24.708   3.454  50.716  1.00  0.00     0.133 A 
HETATM    4  N3  UNL     1      24.241   4.448  51.473  1.00  0.00    -0.224 NA
HETATM    5  C17 UNL     1      23.561   4.340  52.610  1.00  0.00     0.238 A 
HETATM    6  N4  UNL     1      23.316   3.092  53.048  1.00  0.00    -0.217 NA
ENDROOT
BRANCH   1   7
HETATM    7  O1  UNL     1      23.394   0.825  52.969  1.00  0.00    -0.291 OA
BRANCH   7   8
HETATM    8  C7  UNL     1      22.147   0.252  53.092  1.00  0.00     0.089 A 
HETATM    9  C2  UNL     1      21.775  -0.710  54.004  1.00  0.00     0.016 A 
HETATM   10  C3  UNL     1      20.529  -1.284  54.129  1.00  0.00     0.034 A 
HETATM   11  C4  UNL     1      19.591  -0.821  53.233  1.00  0.00     0.011 A 
HETATM   12 BR1  UNL     1      17.819  -1.541  53.302  1.00  0.00    -0.051 Br
HETATM   13  C5  UNL     1      19.939   0.141  52.311  1.00  0.00     0.022 A 
HETATM   14  C6  UNL     1      21.180   0.692  52.211  1.00  0.00     0.039 A 
BRANCH   9  15
HETATM   15  C1  UNL     1      22.768  -1.180  54.953  1.00  0.00     0.121 C 
HETATM   16  N1  UNL     1      23.262  -1.761  55.965  1.00  0.00    -0.311 NA
HETATM   17  H1  UNL     1      22.769  -2.303  56.703  1.00  0.00     0.186 HD
ENDBRANCH   9  15
ENDBRANCH   7   8
ENDBRANCH   1   7
BRANCH   3  18
HETATM   18  N2  UNL     1      25.433   3.565  49.503  1.00  0.00    -0.341 N 
HETATM   19  H7  UNL     1      25.396   2.740  48.840  1.00  0.00     0.167 HD
BRANCH  18  20
HETATM   20  C11 UNL     1      26.219   4.654  49.049  1.00  0.00     0.035 A 
HETATM   21  C12 UNL     1      25.670   5.910  48.847  1.00  0.00     0.032 A 
HETATM   22  C13 UNL     1      26.398   6.988  48.407  1.00  0.00     0.046 A 
HETATM   23  C14 UNL     1      27.744   6.864  48.141  1.00  0.00     0.138 A 
HETATM   24  F1  UNL     1      28.438   7.944  47.710  1.00  0.00    -0.204 F 
HETATM   25  C15 UNL     1      28.327   5.644  48.327  1.00  0.00     0.074 A 
HETATM   26 CL1  UNL     1      30.040   5.484  47.989  1.00  0.00    -0.081 Cl
HETATM   27  C16 UNL     1      27.562   4.588  48.768  1.00  0.00     0.056 A 
ENDBRANCH  18  20
ENDBRANCH   3  18
TORSDOF 5
ENDMDL
MODEL 9
REMARK VINA RESULT:      -8.1      3.941      4.917
REMARK  5 active torsions:
REMARK  status: ('A' for Active; 'I' for Inactive)
REMARK    1  A    between atoms: C1_2  and  C2_3 
REMARK    2  A    between atoms: C7_9  and  O1_10 
REMARK    3  A    between atoms: O1_10  and  C8_11 
REMARK    4  A    between atoms: C10_13  and  N2_14 
REMARK    5  A    between atoms: N2_14  and  C11_15 
ROOT
HETATM    1  C8  UNL     1      22.790   3.444  49.545  1.00  0.00     0.174 A 
HETATM    2  C9  UNL     1      22.164   2.751  50.546  1.00  0.00     0.108 A 
HETATM    3  C10 UNL     1      21.534   1.544  50.341  1.00  0.00     0.133 A 
HETATM    4  N3  UNL     1      21.591   1.116  49.080  1.00  0.00    -0.224 NA
HETATM    5  C17 UNL     1      22.176   1.723  48.052  1.00  0.00     0.238 A 
HETATM    6  N4  UNL     1      22.777   2.898  48.310  1.00  0.00    -0.217 NA
ENDROOT
BRANCH   1   7
HETATM    7  O1  UNL     1      23.443   4.633  49.613  1.00  0.00    -0.291 OA
BRANCH   7   8
HETATM    8  C7  UNL     1      24.749   4.919  49.274  1.00  0.00     0.089 A 
HETATM    9  C2  UNL     1      25.211   6.090  48.719  1.00  0.00     0.016 A 
HETATM   10  C3  UNL     1      26.514   6.378  48.380  1.00  0.00     0.034 A 
HETATM   11  C4  UNL     1      27.413   5.367  48.639  1.00  0.00     0.011 A 
HETATM   12 BR1  UNL     1      29.258   5.643  48.213  1.00  0.00    -0.051 Br
HETATM   13  C5  UNL     1      26.973   4.186  49.195  1.00  0.00     0.022 A 
HETATM   14  C6  UNL     1      25.677   3.929  49.521  1.00  0.00     0.039 A 
BRANCH   9  15
HETATM   15  C1  UNL     1      24.258   7.154  48.463  1.00  0.00     0.121 C 
HETATM   16  N1  UNL     1      23.156   7.726  48.206  1.00  0.00    -0.311 NA
HETATM   17  H1  UNL     1      22.226   7.291  48.044  1.00  0.00     0.186 HD
ENDBRANCH   9  15
ENDBRANCH   7   8
ENDBRANCH   1   7
BRANCH   3  18
HETATM   18  N2  UNL     1      20.911   0.901  51.440  1.00  0.00    -0.341 N 
HETATM   19  H7  UNL     1      19.853   0.904  51.467  1.00  0.00     0.167 HD
BRANCH  18  20
HETATM   20  C11 UNL     1      21.528   0.240  52.532  1.00  0.00     0.035 A 
HETATM   21  C12 UNL     1      20.780  -0.350  53.539  1.00  0.00     0.032 A 
HETATM   22  C13 UNL     1      21.341  -0.998  54.612  1.00  0.00     0.046 A 
HETATM   23  C14 UNL     1      22.710  -1.094  54.737  1.00  0.00     0.138 A 
HETATM   24  F1  UNL     1      23.236  -1.740  55.805  1.00  0.00    -0.204 F 
HETATM   25  C15 UNL     1      23.485  -0.527  53.767  1.00  0.00     0.074 A 
HETATM   26 CL1  UNL     1      25.228  -0.648  53.924  1.00  0.00    -0.081 Cl
HETATM   27  C16 UNL     1      22.885   0.114  52.708  1.00  0.00     0.056 A 
ENDBRANCH  18  20
ENDBRANCH   3  18
TORSDOF 5
ENDMDL
