MODEL 1
REMARK VINA RESULT:      -8.7      0.000      0.000
REMARK  3 active torsions:
REMARK  status: ('A' for Active; 'I' for Inactive)
REMARK    1  A    between atoms: N3_12  and  C8_13 
REMARK    2  A    between atoms: C9_14  and  N4_15 
REMARK    3  A    between atoms: N4_15  and  C10_16 
ROOT
HETATM    1  C1  UNL     1      20.093   1.190  52.241  1.00  0.00     0.020 C 
HETATM    2  C2  UNL     1      21.027   0.498  52.875  1.00  0.00    -0.051 A 
HETATM    3  C3  UNL     1      20.779  -0.880  53.435  1.00  0.00     0.068 A 
HETATM    4  C4  UNL     1      22.131  -1.156  53.980  1.00  0.00     0.015 A 
HETATM    5  C5  UNL     1      23.032  -0.162  53.822  1.00  0.00     0.075 A 
HETATM    6  O1  UNL     1      24.163  -0.498  54.324  1.00  0.00    -0.348 OA
HETATM    7  C6  UNL     1      25.309  -0.839  54.834  1.00  0.00     0.202 C 
HETATM    8  O2  UNL     1      26.232  -1.480  53.963  1.00  0.00     0.000 OA
HETATM    9  N1  UNL     1      26.544  -0.702  52.929  1.00  0.00    -0.292 N 
HETATM   10  C7  UNL     1      26.783   0.229  51.851  1.00  0.00     0.245 C 
HETATM   11  N2  UNL     1      25.855   0.869  52.366  1.00  0.00    -0.167 NA
HETATM   12  N3  UNL     1      25.266   2.067  52.009  1.00  0.00    -0.275 N 
HETATM   13  C16 UNL     1      24.410   2.229  53.144  1.00  0.00     0.178 C 
HETATM   14  C17 UNL     1      22.999   2.025  52.714  1.00  0.00     0.009 C 
HETATM   15  C18 UNL     1      22.393   0.928  53.129  1.00  0.00     0.001 A 
HETATM   16  H8  UNL     1      26.950  -1.608  53.211  1.00  0.00     0.188 HD
ENDROOT
BRANCH  12  17
HETATM   17  C8  UNL     1      25.420   2.893  50.872  1.00  0.00     0.129 C 
HETATM   18  C9  UNL     1      26.427   3.551  50.323  1.00  0.00     0.107 C 
BRANCH  18  19
HETATM   19  N4  UNL     1      26.390   4.351  49.148  1.00  0.00    -0.364 N 
HETATM   20  H12 UNL     1      25.649   4.187  48.426  1.00  0.00     0.165 HD
BRANCH  19  21
HETATM   21  C10 UNL     1      27.144   5.431  48.596  1.00  0.00     0.033 A 
HETATM   22  C11 UNL     1      26.646   6.681  48.237  1.00  0.00     0.029 A 
HETATM   23  C12 UNL     1      27.476   7.649  47.711  1.00  0.00     0.004 A 
HETATM   24  C13 UNL     1      28.802   7.342  47.554  1.00  0.00     0.019 A 
HETATM   25  C14 UNL     1      29.335   6.122  47.896  1.00  0.00     0.013 A 
HETATM   26 BR1  UNL     1      31.196   5.766  47.650  1.00  0.00    -0.051 Br
HETATM   27  C15 UNL     1      28.496   5.155  48.423  1.00  0.00     0.048 A 
ENDBRANCH  19  21
ENDBRANCH  18  19
ENDBRANCH  12  17
TORSDOF 3
ENDMDL
MODEL 2
REMARK VINA RESULT:      -8.5      6.191      8.627
REMARK  3 active torsions:
REMARK  status: ('A' for Active; 'I' for Inactive)
REMARK    1  A    between atoms: N3_12  and  C8_13 
REMARK    2  A    between atoms: C9_14  and  N4_15 
REMARK    3  A    between atoms: N4_15  and  C10_16 
ROOT
HETATM    1  C1  UNL     1      26.258   3.773  49.436  1.00  0.00     0.020 C 
HETATM    2  C2  UNL     1      26.155   5.089  49.536  1.00  0.00    -0.051 A 
HETATM    3  C3  UNL     1      25.097   5.760  50.375  1.00  0.00     0.068 A 
HETATM    4  C4  UNL     1      25.474   7.176  50.137  1.00  0.00     0.015 A 
HETATM    5  C5  UNL     1      26.526   7.362  49.310  1.00  0.00     0.075 A 
HETATM    6  O1  UNL     1      26.771   8.613  49.170  1.00  0.00    -0.348 OA
HETATM    7  C6  UNL     1      27.018   9.881  49.029  1.00  0.00     0.202 C 
HETATM    8  O2  UNL     1      27.947  10.457  49.938  1.00  0.00     0.000 OA
HETATM    9  N1  UNL     1      29.139   9.872  49.850  1.00  0.00    -0.292 N 
HETATM   10  C7  UNL     1      30.373   9.143  49.670  1.00  0.00     0.245 C 
HETATM   11  N2  UNL     1      29.682   8.396  48.964  1.00  0.00    -0.167 NA
HETATM   12  N3  UNL     1      30.007   7.256  48.254  1.00  0.00    -0.275 N 
HETATM   13  C16 UNL     1      28.760   7.063  47.580  1.00  0.00     0.178 C 
HETATM   14  C17 UNL     1      28.085   5.865  48.151  1.00  0.00     0.009 C 
HETATM   15  C18 UNL     1      27.006   6.071  48.884  1.00  0.00     0.001 A 
HETATM   16  H8  UNL     1      28.860  10.710  50.385  1.00  0.00     0.188 HD
ENDROOT
BRANCH  12  17
HETATM   17  C8  UNL     1      31.188   6.480  48.202  1.00  0.00     0.129 C 
HETATM   18  C9  UNL     1      32.156   6.192  49.055  1.00  0.00     0.107 C 
BRANCH  18  19
HETATM   19  N4  UNL     1      33.293   5.372  48.817  1.00  0.00    -0.364 N 
HETATM   20  H12 UNL     1      33.909   5.087  49.616  1.00  0.00     0.165 HD
BRANCH  19  21
HETATM   21  C10 UNL     1      33.916   4.750  47.693  1.00  0.00     0.033 A 
HETATM   22  C11 UNL     1      34.615   3.545  47.704  1.00  0.00     0.029 A 
HETATM   23  C12 UNL     1      35.176   3.041  46.548  1.00  0.00     0.004 A 
HETATM   24  C13 UNL     1      35.023   3.763  45.393  1.00  0.00     0.019 A 
HETATM   25  C14 UNL     1      34.341   4.956  45.339  1.00  0.00     0.013 A 
HETATM   26 BR1  UNL     1      34.168   5.906  43.690  1.00  0.00    -0.051 Br
HETATM   27  C15 UNL     1      33.782   5.454  46.502  1.00  0.00     0.048 A 
ENDBRANCH  19  21
ENDBRANCH  18  19
ENDBRANCH  12  17
TORSDOF 3
ENDMDL
MODEL 3
REMARK VINA RESULT:      -8.5      2.365      3.695
REMARK  3 active torsions:
REMARK  status: ('A' for Active; 'I' for Inactive)
REMARK    1  A    between atoms: N3_12  and  C8_13 
REMARK    2  A    between atoms: C9_14  and  N4_15 
REMARK    3  A    between atoms: N4_15  and  C10_16 
ROOT
HETATM    1  C1  UNL     1      24.675  -0.779  54.059  1.00  0.00     0.020 C 
HETATM    2  C2  UNL     1      23.444  -0.331  53.870  1.00  0.00    -0.051 A 
HETATM    3  C3  UNL     1      22.321  -0.605  54.837  1.00  0.00     0.068 A 
HETATM    4  C4  UNL     1      21.235   0.137  54.149  1.00  0.00     0.015 A 
HETATM    5  C5  UNL     1      21.587   0.730  52.988  1.00  0.00     0.075 A 
HETATM    6  O1  UNL     1      20.583   1.342  52.475  1.00  0.00    -0.348 OA
HETATM    7  C6  UNL     1      19.566   1.961  51.955  1.00  0.00     0.202 C 
HETATM    8  O2  UNL     1      19.394   3.326  52.315  1.00  0.00     0.000 OA
HETATM    9  N1  UNL     1      20.448   4.057  51.960  1.00  0.00    -0.292 N 
HETATM   10  C7  UNL     1      21.655   4.731  51.541  1.00  0.00     0.245 C 
HETATM   11  N2  UNL     1      22.070   3.584  51.322  1.00  0.00    -0.167 NA
HETATM   12  N3  UNL     1      23.283   3.130  50.840  1.00  0.00    -0.275 N 
HETATM   13  C16 UNL     1      22.955   1.744  50.712  1.00  0.00     0.178 C 
HETATM   14  C17 UNL     1      23.692   0.977  51.754  1.00  0.00     0.009 C 
HETATM   15  C18 UNL     1      22.983   0.467  52.745  1.00  0.00     0.001 A 
HETATM   16  H8  UNL     1      19.538   4.363  52.340  1.00  0.00     0.188 HD
ENDROOT
BRANCH  12  17
HETATM   17  C8  UNL     1      24.500   3.796  50.568  1.00  0.00     0.129 C 
HETATM   18  C9  UNL     1      25.576   3.522  49.850  1.00  0.00     0.107 C 
BRANCH  18  19
HETATM   19  N4  UNL     1      26.731   4.335  49.691  1.00  0.00    -0.364 N 
HETATM   20  H12 UNL     1      27.582   4.155  50.275  1.00  0.00     0.165 HD
BRANCH  19  21
HETATM   21  C10 UNL     1      27.124   5.446  48.885  1.00  0.00     0.033 A 
HETATM   22  C11 UNL     1      26.298   6.482  48.455  1.00  0.00     0.029 A 
HETATM   23  C12 UNL     1      26.795   7.506  47.675  1.00  0.00     0.004 A 
HETATM   24  C13 UNL     1      28.123   7.471  47.339  1.00  0.00     0.019 A 
HETATM   25  C14 UNL     1      28.973   6.468  47.743  1.00  0.00     0.013 A 
HETATM   26 BR1  UNL     1      30.815   6.487  47.235  1.00  0.00    -0.051 Br
HETATM   27  C15 UNL     1      28.467   5.444  48.524  1.00  0.00     0.048 A 
ENDBRANCH  19  21
ENDBRANCH  18  19
ENDBRANCH  12  17
TORSDOF 3
ENDMDL
MODEL 4
REMARK VINA RESULT:      -8.2      3.432      5.192
REMARK  3 active torsions:
REMARK  status: ('A' for Active; 'I' for Inactive)
REMARK    1  A    between atoms: N3_12  and  C8_13 
REMARK    2  A    between atoms: C9_14  and  N4_15 
REMARK    3  A    between atoms: N4_15  and  C10_16 
ROOT
HETATM    1  C1  UNL     1      26.610   1.061  51.699  1.00  0.00     0.020 C 
HETATM    2  C2  UNL     1      25.506   1.765  51.893  1.00  0.00    -0.051 A 
HETATM    3  C3  UNL     1      24.604   1.554  53.083  1.00  0.00     0.068 A 
HETATM    4  C4  UNL     1      23.591   2.599  52.795  1.00  0.00     0.015 A 
HETATM    5  C5  UNL     1      23.792   3.302  51.659  1.00  0.00     0.075 A 
HETATM    6  O1  UNL     1      22.866   4.176  51.502  1.00  0.00    -0.348 OA
HETATM    7  C6  UNL     1      21.928   5.060  51.343  1.00  0.00     0.202 C 
HETATM    8  O2  UNL     1      22.164   6.350  51.892  1.00  0.00     0.000 OA
HETATM    9  N1  UNL     1      23.247   6.912  51.361  1.00  0.00    -0.292 N 
HETATM   10  C7  UNL     1      24.447   7.400  50.721  1.00  0.00     0.245 C 
HETATM   11  N2  UNL     1      24.524   6.249  50.269  1.00  0.00    -0.167 NA
HETATM   12  N3  UNL     1      25.454   5.657  49.437  1.00  0.00    -0.275 N 
HETATM   13  C16 UNL     1      24.794   4.403  49.239  1.00  0.00     0.178 C 
HETATM   14  C17 UNL     1      25.554   3.341  49.953  1.00  0.00     0.009 C 
HETATM   15  C18 UNL     1      24.995   2.818  51.029  1.00  0.00     0.001 A 
HETATM   16  H8  UNL     1      22.546   7.320  51.999  1.00  0.00     0.188 HD
ENDROOT
BRANCH  12  17
HETATM   17  C8  UNL     1      26.695   6.110  48.934  1.00  0.00     0.129 C 
HETATM   18  C9  UNL     1      27.775   5.526  48.444  1.00  0.00     0.107 C 
BRANCH  18  19
HETATM   19  N4  UNL     1      28.957   6.162  47.976  1.00  0.00    -0.364 N 
HETATM   20  H12 UNL     1      28.893   6.927  47.262  1.00  0.00     0.165 HD
BRANCH  19  21
HETATM   21  C10 UNL     1      30.362   6.062  48.213  1.00  0.00     0.033 A 
HETATM   22  C11 UNL     1      31.152   6.998  48.875  1.00  0.00     0.029 A 
HETATM   23  C12 UNL     1      32.506   6.788  49.044  1.00  0.00     0.004 A 
HETATM   24  C13 UNL     1      33.045   5.633  48.541  1.00  0.00     0.019 A 
HETATM   25  C14 UNL     1      32.300   4.683  47.882  1.00  0.00     0.013 A 
HETATM   26 BR1  UNL     1      33.122   3.095  47.207  1.00  0.00    -0.051 Br
HETATM   27  C15 UNL     1      30.944   4.901  47.715  1.00  0.00     0.048 A 
ENDBRANCH  19  21
ENDBRANCH  18  19
ENDBRANCH  12  17
TORSDOF 3
ENDMDL
MODEL 5
REMARK VINA RESULT:      -8.0      2.235      2.973
REMARK  3 active torsions:
REMARK  status: ('A' for Active; 'I' for Inactive)
REMARK    1  A    between atoms: N3_12  and  C8_13 
REMARK    2  A    between atoms: C9_14  and  N4_15 
REMARK    3  A    between atoms: N4_15  and  C10_16 
ROOT
HETATM    1  C1  UNL     1      18.569   1.265  49.983  1.00  0.00     0.020 C 
HETATM    2  C2  UNL     1      18.957   0.698  51.115  1.00  0.00    -0.051 A 
HETATM    3  C3  UNL     1      18.230  -0.471  51.730  1.00  0.00     0.068 A 
HETATM    4  C4  UNL     1      19.097  -0.686  52.915  1.00  0.00     0.015 A 
HETATM    5  C5  UNL     1      20.132   0.172  53.038  1.00  0.00     0.075 A 
HETATM    6  O1  UNL     1      20.817  -0.097  54.088  1.00  0.00    -0.348 OA
HETATM    7  C6  UNL     1      21.510  -0.370  55.152  1.00  0.00     0.202 C 
HETATM    8  O2  UNL     1      22.598  -1.272  54.994  1.00  0.00     0.000 OA
HETATM    9  N1  UNL     1      23.491  -0.808  54.124  1.00  0.00    -0.292 N 
HETATM   10  C7  UNL     1      24.370  -0.202  53.150  1.00  0.00     0.245 C 
HETATM   11  N2  UNL     1      23.443   0.608  53.005  1.00  0.00    -0.167 NA
HETATM   12  N3  UNL     1      23.318   1.711  52.182  1.00  0.00    -0.275 N 
HETATM   13  C16 UNL     1      22.078   2.214  52.687  1.00  0.00     0.178 C 
HETATM   14  C17 UNL     1      21.019   2.001  51.664  1.00  0.00     0.009 C 
HETATM   15  C18 UNL     1      20.100   1.088  51.925  1.00  0.00     0.001 A 
HETATM   16  H8  UNL     1      23.546  -1.636  54.737  1.00  0.00     0.188 HD
ENDROOT
BRANCH  12  17
HETATM   17  C8  UNL     1      24.131   2.207  51.137  1.00  0.00     0.129 C 
HETATM   18  C9  UNL     1      25.176   3.014  51.067  1.00  0.00     0.107 C 
BRANCH  18  19
HETATM   19  N4  UNL     1      25.880   3.407  49.896  1.00  0.00    -0.364 N 
HETATM   20  H12 UNL     1      26.092   2.702  49.150  1.00  0.00     0.165 HD
BRANCH  19  21
HETATM   21  C10 UNL     1      26.447   4.608  49.372  1.00  0.00     0.033 A 
HETATM   22  C11 UNL     1      27.649   4.714  48.677  1.00  0.00     0.029 A 
HETATM   23  C12 UNL     1      28.096   5.936  48.217  1.00  0.00     0.004 A 
HETATM   24  C13 UNL     1      27.320   7.038  48.465  1.00  0.00     0.019 A 
HETATM   25  C14 UNL     1      26.127   6.978  49.146  1.00  0.00     0.013 A 
HETATM   26 BR1  UNL     1      25.099   8.559  49.454  1.00  0.00    -0.051 Br
HETATM   27  C15 UNL     1      25.686   5.749  49.605  1.00  0.00     0.048 A 
ENDBRANCH  19  21
ENDBRANCH  18  19
ENDBRANCH  12  17
TORSDOF 3
ENDMDL
MODEL 6
REMARK VINA RESULT:      -8.0      6.938     10.449
REMARK  3 active torsions:
REMARK  status: ('A' for Active; 'I' for Inactive)
REMARK    1  A    between atoms: N3_12  and  C8_13 
REMARK    2  A    between atoms: C9_14  and  N4_15 
REMARK    3  A    between atoms: N4_15  and  C10_16 
ROOT
HETATM    1  C1  UNL     1      32.218   2.230  46.635  1.00  0.00     0.020 C 
HETATM    2  C2  UNL     1      33.203   3.081  46.877  1.00  0.00    -0.051 A 
HETATM    3  C3  UNL     1      34.567   2.946  46.249  1.00  0.00     0.068 A 
HETATM    4  C4  UNL     1      35.215   4.143  46.839  1.00  0.00     0.015 A 
HETATM    5  C5  UNL     1      34.440   4.866  47.677  1.00  0.00     0.075 A 
HETATM    6  O1  UNL     1      35.088   5.875  48.131  1.00  0.00    -0.348 OA
HETATM    7  C6  UNL     1      35.746   6.896  48.591  1.00  0.00     0.202 C 
HETATM    8  O2  UNL     1      35.648   8.107  47.852  1.00  0.00     0.000 OA
HETATM    9  N1  UNL     1      34.388   8.528  47.776  1.00  0.00    -0.292 N 
HETATM   10  C7  UNL     1      32.983   8.863  47.751  1.00  0.00     0.245 C 
HETATM   11  N2  UNL     1      32.834   7.738  48.248  1.00  0.00    -0.167 NA
HETATM   12  N3  UNL     1      31.697   7.057  48.638  1.00  0.00    -0.275 N 
HETATM   13  C16 UNL     1      32.325   5.928  49.251  1.00  0.00     0.178 C 
HETATM   14  C17 UNL     1      32.099   4.729  48.397  1.00  0.00     0.009 C 
HETATM   15  C18 UNL     1      33.143   4.241  47.752  1.00  0.00     0.001 A 
HETATM   16  H8  UNL     1      35.254   9.002  47.477  1.00  0.00     0.188 HD
ENDROOT
BRANCH  12  17
HETATM   17  C8  UNL     1      30.322   7.345  48.478  1.00  0.00     0.129 C 
HETATM   18  C9  UNL     1      29.473   7.320  47.465  1.00  0.00     0.107 C 
BRANCH  18  19
HETATM   19  N4  UNL     1      28.091   7.652  47.495  1.00  0.00    -0.364 N 
HETATM   20  H12 UNL     1      27.765   8.572  47.114  1.00  0.00     0.165 HD
BRANCH  19  21
HETATM   21  C10 UNL     1      26.879   7.040  47.937  1.00  0.00     0.033 A 
HETATM   22  C11 UNL     1      25.593   7.548  47.768  1.00  0.00     0.029 A 
HETATM   23  C12 UNL     1      24.493   6.862  48.241  1.00  0.00     0.004 A 
HETATM   24  C13 UNL     1      24.706   5.668  48.880  1.00  0.00     0.019 A 
HETATM   25  C14 UNL     1      25.958   5.131  49.067  1.00  0.00     0.013 A 
HETATM   26 BR1  UNL     1      26.178   3.460  49.968  1.00  0.00    -0.051 Br
HETATM   27  C15 UNL     1      27.056   5.825  48.591  1.00  0.00     0.048 A 
ENDBRANCH  19  21
ENDBRANCH  18  19
ENDBRANCH  12  17
TORSDOF 3
ENDMDL
MODEL 7
REMARK VINA RESULT:      -7.8      5.014      9.157
REMARK  3 active torsions:
REMARK  status: ('A' for Active; 'I' for Inactive)
REMARK    1  A    between atoms: N3_12  and  C8_13 
REMARK    2  A    between atoms: C9_14  and  N4_15 
REMARK    3  A    between atoms: N4_15  and  C10_16 
ROOT
HETATM    1  C1  UNL     1      21.501   3.708  46.463  1.00  0.00     0.020 C 
HETATM    2  C2  UNL     1      22.266   4.577  47.104  1.00  0.00    -0.051 A 
HETATM    3  C3  UNL     1      22.359   6.028  46.706  1.00  0.00     0.068 A 
HETATM    4  C4  UNL     1      23.300   6.497  47.753  1.00  0.00     0.015 A 
HETATM    5  C5  UNL     1      23.729   5.547  48.612  1.00  0.00     0.075 A 
HETATM    6  O1  UNL     1      24.534   6.051  49.474  1.00  0.00    -0.348 OA
HETATM    7  C6  UNL     1      25.350   6.562  50.346  1.00  0.00     0.202 C 
HETATM    8  O2  UNL     1      24.775   7.045  51.554  1.00  0.00     0.000 OA
HETATM    9  N1  UNL     1      24.145   6.076  52.213  1.00  0.00    -0.292 N 
HETATM   10  C7  UNL     1      23.483   4.943  52.817  1.00  0.00     0.245 C 
HETATM   11  N2  UNL     1      23.736   4.381  51.742  1.00  0.00    -0.167 NA
HETATM   12  N3  UNL     1      23.465   3.102  51.295  1.00  0.00    -0.275 N 
HETATM   13  C16 UNL     1      24.192   3.148  50.064  1.00  0.00     0.178 C 
HETATM   14  C17 UNL     1      23.223   3.169  48.934  1.00  0.00     0.009 C 
HETATM   15  C18 UNL     1      23.113   4.294  48.252  1.00  0.00     0.001 A 
HETATM   16  H8  UNL     1      24.346   7.044  52.509  1.00  0.00     0.188 HD
ENDROOT
BRANCH  12  17
HETATM   17  C8  UNL     1      22.694   2.053  51.847  1.00  0.00     0.129 C 
HETATM   18  C9  UNL     1      21.445   1.639  51.713  1.00  0.00     0.107 C 
BRANCH  18  19
HETATM   19  N4  UNL     1      20.832   0.536  52.366  1.00  0.00    -0.364 N 
HETATM   20  H12 UNL     1      21.387  -0.053  53.032  1.00  0.00     0.165 HD
BRANCH  19  21
HETATM   21  C10 UNL     1      19.544  -0.079  52.392  1.00  0.00     0.033 A 
HETATM   22  C11 UNL     1      19.040  -0.890  53.406  1.00  0.00     0.029 A 
HETATM   23  C12 UNL     1      17.773  -1.429  53.318  1.00  0.00     0.004 A 
HETATM   24  C13 UNL     1      17.029  -1.142  52.204  1.00  0.00     0.019 A 
HETATM   25  C14 UNL     1      17.487  -0.345  51.180  1.00  0.00     0.013 A 
HETATM   26 BR1  UNL     1      16.391   0.012  49.656  1.00  0.00    -0.051 Br
HETATM   27  C15 UNL     1      18.759   0.191  51.276  1.00  0.00     0.048 A 
ENDBRANCH  19  21
ENDBRANCH  18  19
ENDBRANCH  12  17
TORSDOF 3
ENDMDL
MODEL 8
REMARK VINA RESULT:      -7.5      8.702     11.271
REMARK  3 active torsions:
REMARK  status: ('A' for Active; 'I' for Inactive)
REMARK    1  A    between atoms: N3_12  and  C8_13 
REMARK    2  A    between atoms: C9_14  and  N4_15 
REMARK    3  A    between atoms: N4_15  and  C10_16 
ROOT
HETATM    1  C1  UNL     1      28.838   8.821  44.949  1.00  0.00     0.020 C 
HETATM    2  C2  UNL     1      29.321   8.207  46.018  1.00  0.00    -0.051 A 
HETATM    3  C3  UNL     1      28.526   8.040  47.289  1.00  0.00     0.068 A 
HETATM    4  C4  UNL     1      29.523   7.286  48.089  1.00  0.00     0.015 A 
HETATM    5  C5  UNL     1      30.700   7.048  47.471  1.00  0.00     0.075 A 
HETATM    6  O1  UNL     1      31.488   6.393  48.242  1.00  0.00    -0.348 OA
HETATM    7  C6  UNL     1      32.286   5.731  49.024  1.00  0.00     0.202 C 
HETATM    8  O2  UNL     1      32.235   4.313  48.939  1.00  0.00     0.000 OA
HETATM    9  N1  UNL     1      32.540   3.890  47.714  1.00  0.00    -0.292 N 
HETATM   10  C7  UNL     1      32.869   3.564  46.345  1.00  0.00     0.245 C 
HETATM   11  N2  UNL     1      32.783   4.787  46.166  1.00  0.00    -0.167 NA
HETATM   12  N3  UNL     1      32.951   5.556  45.030  1.00  0.00    -0.275 N 
HETATM   13  C16 UNL     1      32.859   6.850  45.634  1.00  0.00     0.178 C 
HETATM   14  C17 UNL     1      31.577   7.483  45.222  1.00  0.00     0.009 C 
HETATM   15  C18 UNL     1      30.642   7.614  46.146  1.00  0.00     0.001 A 
HETATM   16  H8  UNL     1      32.390   3.342  48.576  1.00  0.00     0.188 HD
ENDROOT
BRANCH  12  17
HETATM   17  C8  UNL     1      33.135   5.207  43.673  1.00  0.00     0.129 C 
HETATM   18  C9  UNL     1      34.182   5.036  42.884  1.00  0.00     0.107 C 
BRANCH  18  19
HETATM   19  N4  UNL     1      34.171   4.676  41.509  1.00  0.00    -0.364 N 
HETATM   20  H12 UNL     1      34.646   5.288  40.803  1.00  0.00     0.165 HD
BRANCH  19  21
HETATM   21  C10 UNL     1      33.650   3.613  40.711  1.00  0.00     0.033 A 
HETATM   22  C11 UNL     1      34.350   2.486  40.285  1.00  0.00     0.029 A 
HETATM   23  C12 UNL     1      33.736   1.521  39.515  1.00  0.00     0.004 A 
HETATM   24  C13 UNL     1      32.419   1.705  39.183  1.00  0.00     0.019 A 
HETATM   25  C14 UNL     1      31.691   2.801  39.584  1.00  0.00     0.013 A 
HETATM   26 BR1  UNL     1      29.857   2.989  39.083  1.00  0.00    -0.051 Br
HETATM   27  C15 UNL     1      32.314   3.765  40.356  1.00  0.00     0.048 A 
ENDBRANCH  19  21
ENDBRANCH  18  19
ENDBRANCH  12  17
TORSDOF 3
ENDMDL
MODEL 9
REMARK VINA RESULT:      -7.4      5.487      9.328
REMARK  3 active torsions:
REMARK  status: ('A' for Active; 'I' for Inactive)
REMARK    1  A    between atoms: N3_12  and  C8_13 
REMARK    2  A    between atoms: C9_14  and  N4_15 
REMARK    3  A    between atoms: N4_15  and  C10_16 
ROOT
HETATM    1  C1  UNL     1      21.540   4.741  51.698  1.00  0.00     0.020 C 
HETATM    2  C2  UNL     1      22.434   3.876  52.150  1.00  0.00    -0.051 A 
HETATM    3  C3  UNL     1      23.734   4.304  52.782  1.00  0.00     0.068 A 
HETATM    4  C4  UNL     1      24.287   2.966  53.106  1.00  0.00     0.015 A 
HETATM    5  C5  UNL     1      23.519   1.918  52.738  1.00  0.00     0.075 A 
HETATM    6  O1  UNL     1      24.082   0.812  53.060  1.00  0.00    -0.348 OA
HETATM    7  C6  UNL     1      24.655  -0.308  53.387  1.00  0.00     0.202 C 
HETATM    8  O2  UNL     1      24.336  -0.840  54.666  1.00  0.00     0.000 OA
HETATM    9  N1  UNL     1      23.033  -1.085  54.779  1.00  0.00    -0.292 N 
HETATM   10  C7  UNL     1      21.602  -1.287  54.778  1.00  0.00     0.245 C 
HETATM   11  N2  UNL     1      21.642  -0.670  53.704  1.00  0.00    -0.167 NA
HETATM   12  N3  UNL     1      20.641  -0.310  52.822  1.00  0.00    -0.275 N 
HETATM   13  C16 UNL     1      21.461   0.212  51.772  1.00  0.00     0.178 C 
HETATM   14  C17 UNL     1      21.297   1.691  51.723  1.00  0.00     0.009 C 
HETATM   15  C18 UNL     1      22.322   2.426  52.115  1.00  0.00     0.001 A 
HETATM   16  H8  UNL     1      23.800  -1.323  55.426  1.00  0.00     0.188 HD
ENDROOT
BRANCH  12  17
HETATM   17  C8  UNL     1      19.233  -0.393  52.907  1.00  0.00     0.129 C 
HETATM   18  C9  UNL     1      18.373  -1.302  53.335  1.00  0.00     0.107 C 
BRANCH  18  19
HETATM   19  N4  UNL     1      16.955  -1.207  53.342  1.00  0.00    -0.364 N 
HETATM   20  H12 UNL     1      16.405  -1.631  54.126  1.00  0.00     0.165 HD
BRANCH  19  21
HETATM   21  C10 UNL     1      15.942  -0.643  52.508  1.00  0.00     0.033 A 
HETATM   22  C11 UNL     1      14.920   0.210  52.919  1.00  0.00     0.029 A 
HETATM   23  C12 UNL     1      13.995   0.693  52.016  1.00  0.00     0.004 A 
HETATM   24  C13 UNL     1      14.114   0.307  50.706  1.00  0.00     0.019 A 
HETATM   25  C14 UNL     1      15.107  -0.532  50.259  1.00  0.00     0.013 A 
HETATM   26 BR1  UNL     1      15.210  -1.026  48.416  1.00  0.00    -0.051 Br
HETATM   27  C15 UNL     1      16.031  -1.013  51.170  1.00  0.00     0.048 A 
ENDBRANCH  19  21
ENDBRANCH  18  19
ENDBRANCH  12  17
TORSDOF 3
ENDMDL
