MODEL 1
REMARK VINA RESULT:      -8.8      0.000      0.000
REMARK  2 active torsions:
REMARK  status: ('A' for Active; 'I' for Inactive)
REMARK    1  A    between atoms: C1_2  and  C2_3 
REMARK    2  A    between atoms: C7_8  and  O1_9 
ROOT
HETATM    1  C2  UNL     1      19.451  -0.233  52.593  1.00  0.00     0.082 C 
HETATM    2  C3  UNL     1      20.617  -0.480  53.110  1.00  0.00     0.020 C 
HETATM    3  C4  UNL     1      21.972   0.021  52.890  1.00  0.00     0.038 C 
HETATM    4  C5  UNL     1      22.123   1.493  53.023  1.00  0.00    -0.003 C 
HETATM    5  C6  UNL     1      23.348   1.857  52.663  1.00  0.00     0.003 C 
HETATM    6  C7  UNL     1      23.614   3.176  52.049  1.00  0.00     0.098 C 
HETATM    7  C8  UNL     1      22.880   3.843  51.187  1.00  0.00     0.172 C 
HETATM    8  O2  UNL     1      21.758   4.044  50.353  1.00  0.00    -0.359 OA
HETATM    9  C9  UNL     1      20.691   4.739  50.906  1.00  0.00     0.193 C 
HETATM   10  C10 UNL     1      19.327   4.418  50.378  1.00  0.00     0.140 C 
HETATM   11  N2  UNL     1      18.994   3.053  50.558  1.00  0.00    -0.417 N 
HETATM   12  C11 UNL     1      19.653   2.086  49.762  1.00  0.00     0.140 C 
HETATM   13  C12 UNL     1      19.200   0.703  50.296  1.00  0.00     0.195 C 
HETATM   14  O3  UNL     1      19.657   0.726  51.646  1.00  0.00    -0.348 OA
HETATM   15  C13 UNL     1      24.493   0.942  52.881  1.00  0.00    -0.034 A 
HETATM   16  C14 UNL     1      24.303  -0.263  53.442  1.00  0.00    -0.048 A 
HETATM   17  C15 UNL     1      25.609  -0.948  53.526  1.00  0.00     0.027 A 
HETATM   18  C16 UNL     1      26.536  -0.125  53.009  1.00  0.00     0.016 A 
HETATM   19 CL1  UNL     1      28.178  -0.713  52.995  1.00  0.00    -0.089 Cl
HETATM   20  C17 UNL     1      25.927   1.149  52.552  1.00  0.00     0.091 A 
HETATM   21  C18 UNL     1      22.919  -0.673  53.855  1.00  0.00     0.051 C 
HETATM   22  H12 UNL     1      18.067   2.828  50.927  1.00  0.00     0.153 HD
ENDROOT
BRANCH   1  23
HETATM   23  C1  UNL     1      18.086  -0.688  52.760  1.00  0.00     0.143 C 
HETATM   24  N1  UNL     1      17.757  -1.280  53.882  1.00  0.00    -0.310 NA
HETATM   25  H1  UNL     1      18.468  -1.413  54.627  1.00  0.00     0.186 HD
ENDBRANCH   1  23
BRANCH   6  26
HETATM   26  O1  UNL     1      24.805   3.721  52.481  1.00  0.00    -0.358 OA
HETATM   27  H6  UNL     1      25.533   4.000  51.836  1.00  0.00     0.217 HD
ENDBRANCH   6  26
TORSDOF 2
ENDMDL
MODEL 2
REMARK VINA RESULT:      -8.6      1.894      2.216
REMARK  2 active torsions:
REMARK  status: ('A' for Active; 'I' for Inactive)
REMARK    1  A    between atoms: C1_2  and  C2_3 
REMARK    2  A    between atoms: C7_8  and  O1_9 
ROOT
HETATM    1  C2  UNL     1      20.944   0.584  51.652  1.00  0.00     0.082 C 
HETATM    2  C3  UNL     1      21.967   0.221  52.365  1.00  0.00     0.020 C 
HETATM    3  C4  UNL     1      23.417   0.354  52.238  1.00  0.00     0.038 C 
HETATM    4  C5  UNL     1      23.903   1.749  52.082  1.00  0.00    -0.003 C 
HETATM    5  C6  UNL     1      25.207   1.749  51.828  1.00  0.00     0.003 C 
HETATM    6  C7  UNL     1      25.834   2.800  50.997  1.00  0.00     0.098 C 
HETATM    7  C8  UNL     1      25.360   3.387  49.922  1.00  0.00     0.172 C 
HETATM    8  O2  UNL     1      24.395   3.623  48.917  1.00  0.00    -0.359 OA
HETATM    9  C9  UNL     1      23.483   4.640  49.161  1.00  0.00     0.193 C 
HETATM   10  C10 UNL     1      22.133   4.505  48.526  1.00  0.00     0.140 C 
HETATM   11  N2  UNL     1      21.468   3.324  48.937  1.00  0.00    -0.417 N 
HETATM   12  C11 UNL     1      21.943   2.080  48.458  1.00  0.00     0.140 C 
HETATM   13  C12 UNL     1      21.126   0.989  49.199  1.00  0.00     0.195 C 
HETATM   14  O3  UNL     1      21.455   1.228  50.565  1.00  0.00    -0.348 OA
HETATM   15  C13 UNL     1      26.075   0.686  52.387  1.00  0.00    -0.034 A 
HETATM   16  C14 UNL     1      25.553  -0.285  53.155  1.00  0.00    -0.048 A 
HETATM   17  C15 UNL     1      26.645  -1.194  53.559  1.00  0.00     0.027 A 
HETATM   18  C16 UNL     1      27.784  -0.733  53.017  1.00  0.00     0.016 A 
HETATM   19 CL1  UNL     1      29.232  -1.646  53.353  1.00  0.00    -0.089 Cl
HETATM   20  C17 UNL     1      27.540   0.499  52.226  1.00  0.00     0.091 A 
HETATM   21  C18 UNL     1      24.081  -0.281  53.447  1.00  0.00     0.051 C 
HETATM   22  H12 UNL     1      20.485   3.395  49.212  1.00  0.00     0.153 HD
ENDROOT
BRANCH   1  23
HETATM   23  C1  UNL     1      19.500   0.484  51.719  1.00  0.00     0.143 C 
HETATM   24  N1  UNL     1      18.969  -0.320  52.606  1.00  0.00    -0.310 NA
HETATM   25  H1  UNL     1      19.581  -0.867  53.244  1.00  0.00     0.186 HD
ENDBRANCH   1  23
BRANCH   6  26
HETATM   26  O1  UNL     1      27.079   3.162  51.468  1.00  0.00    -0.358 OA
HETATM   27  H6  UNL     1      27.789   3.551  50.862  1.00  0.00     0.217 HD
ENDBRANCH   6  26
TORSDOF 2
ENDMDL
MODEL 3
REMARK VINA RESULT:      -8.4      3.719      6.657
REMARK  2 active torsions:
REMARK  status: ('A' for Active; 'I' for Inactive)
REMARK    1  A    between atoms: C1_2  and  C2_3 
REMARK    2  A    between atoms: C7_8  and  O1_9 
ROOT
HETATM    1  C2  UNL     1      23.876   5.039  51.132  1.00  0.00     0.082 C 
HETATM    2  C3  UNL     1      22.711   4.556  51.442  1.00  0.00     0.020 C 
HETATM    3  C4  UNL     1      22.190   3.224  51.741  1.00  0.00     0.038 C 
HETATM    4  C5  UNL     1      22.881   2.519  52.852  1.00  0.00    -0.003 C 
HETATM    5  C6  UNL     1      22.432   1.272  52.945  1.00  0.00     0.003 C 
HETATM    6  C7  UNL     1      23.300   0.171  53.418  1.00  0.00     0.098 C 
HETATM    7  C8  UNL     1      24.577  -0.028  53.179  1.00  0.00     0.172 C 
HETATM    8  O2  UNL     1      25.832   0.283  52.611  1.00  0.00    -0.359 OA
HETATM    9  C9  UNL     1      26.697   1.035  53.393  1.00  0.00     0.193 C 
HETATM   10  C10 UNL     1      27.673   1.912  52.672  1.00  0.00     0.140 C 
HETATM   11  N2  UNL     1      27.024   2.862  51.845  1.00  0.00    -0.417 N 
HETATM   12  C11 UNL     1      26.387   2.409  50.666  1.00  0.00     0.140 C 
HETATM   13  C12 UNL     1      25.644   3.635  50.075  1.00  0.00     0.195 C 
HETATM   14  O3  UNL     1      24.730   3.975  51.113  1.00  0.00    -0.348 OA
HETATM   15  C13 UNL     1      21.032   0.954  52.580  1.00  0.00    -0.034 A 
HETATM   16  C14 UNL     1      20.203   1.920  52.153  1.00  0.00    -0.048 A 
HETATM   17  C15 UNL     1      18.889   1.311  51.863  1.00  0.00     0.027 A 
HETATM   18  C16 UNL     1      18.979  -0.002  52.127  1.00  0.00     0.016 A 
HETATM   19 CL1  UNL     1      17.541  -0.951  51.860  1.00  0.00    -0.089 Cl
HETATM   20  C17 UNL     1      20.338  -0.360  52.608  1.00  0.00     0.091 A 
HETATM   21  C18 UNL     1      20.708   3.331  52.054  1.00  0.00     0.051 C 
HETATM   22  H12 UNL     1      27.348   3.832  51.880  1.00  0.00     0.153 HD
ENDROOT
BRANCH   1  23
HETATM   23  C1  UNL     1      24.455   6.332  50.825  1.00  0.00     0.143 C 
HETATM   24  N1  UNL     1      24.504   7.235  51.773  1.00  0.00    -0.310 NA
HETATM   25  H1  UNL     1      24.135   7.017  52.719  1.00  0.00     0.186 HD
ENDBRANCH   1  23
BRANCH   6  26
HETATM   26  O1  UNL     1      22.615  -0.729  54.206  1.00  0.00    -0.358 OA
HETATM   27  H6  UNL     1      22.614  -1.722  54.011  1.00  0.00     0.217 HD
ENDBRANCH   6  26
TORSDOF 2
ENDMDL
MODEL 4
REMARK VINA RESULT:      -8.3      3.509      5.888
REMARK  2 active torsions:
REMARK  status: ('A' for Active; 'I' for Inactive)
REMARK    1  A    between atoms: C1_2  and  C2_3 
REMARK    2  A    between atoms: C7_8  and  O1_9 
ROOT
HETATM    1  C2  UNL     1      26.707   4.556  49.401  1.00  0.00     0.082 C 
HETATM    2  C3  UNL     1      26.673   3.409  50.010  1.00  0.00     0.020 C 
HETATM    3  C4  UNL     1      25.712   2.722  50.870  1.00  0.00     0.038 C 
HETATM    4  C5  UNL     1      24.359   2.553  50.281  1.00  0.00    -0.003 C 
HETATM    5  C6  UNL     1      23.528   2.054  51.190  1.00  0.00     0.003 C 
HETATM    6  C7  UNL     1      22.086   2.382  51.183  1.00  0.00     0.098 C 
HETATM    7  C8  UNL     1      21.507   3.527  50.901  1.00  0.00     0.172 C 
HETATM    8  O2  UNL     1      21.487   4.890  50.527  1.00  0.00    -0.359 OA
HETATM    9  C9  UNL     1      21.350   5.158  49.172  1.00  0.00     0.193 C 
HETATM   10  C10 UNL     1      21.962   6.429  48.670  1.00  0.00     0.140 C 
HETATM   11  N2  UNL     1      23.358   6.477  48.904  1.00  0.00    -0.417 N 
HETATM   12  C11 UNL     1      23.815   6.650  50.231  1.00  0.00     0.140 C 
HETATM   13  C12 UNL     1      25.358   6.501  50.182  1.00  0.00     0.195 C 
HETATM   14  O3  UNL     1      25.527   5.172  49.698  1.00  0.00    -0.348 OA
HETATM   15  C13 UNL     1      24.034   1.139  52.240  1.00  0.00    -0.034 A 
HETATM   16  C14 UNL     1      25.334   0.804  52.282  1.00  0.00    -0.048 A 
HETATM   17  C15 UNL     1      25.542  -0.108  53.426  1.00  0.00     0.027 A 
HETATM   18  C16 UNL     1      24.356  -0.286  54.028  1.00  0.00     0.016 A 
HETATM   19 CL1  UNL     1      24.339  -1.335  55.422  1.00  0.00    -0.089 Cl
HETATM   20  C17 UNL     1      23.285   0.480  53.341  1.00  0.00     0.091 A 
HETATM   21  C18 UNL     1      26.272   1.362  51.251  1.00  0.00     0.051 C 
HETATM   22  H12 UNL     1      23.965   6.781  48.138  1.00  0.00     0.153 HD
ENDROOT
BRANCH   1  23
HETATM   23  C1  UNL     1      27.617   5.290  48.545  1.00  0.00     0.143 C 
HETATM   24  N1  UNL     1      28.874   5.382  48.903  1.00  0.00    -0.310 NA
HETATM   25  H1  UNL     1      29.198   4.933  49.781  1.00  0.00     0.186 HD
ENDBRANCH   1  23
BRANCH   6  26
HETATM   26  O1  UNL     1      21.304   1.301  51.529  1.00  0.00    -0.358 OA
HETATM   27  H6  UNL     1      20.383   1.410  51.932  1.00  0.00     0.217 HD
ENDBRANCH   6  26
TORSDOF 2
ENDMDL
MODEL 5
REMARK VINA RESULT:      -7.9      3.575      5.896
REMARK  2 active torsions:
REMARK  status: ('A' for Active; 'I' for Inactive)
REMARK    1  A    between atoms: C1_2  and  C2_3 
REMARK    2  A    between atoms: C7_8  and  O1_9 
ROOT
HETATM    1  C2  UNL     1      24.249   0.368  53.498  1.00  0.00     0.082 C 
HETATM    2  C3  UNL     1      23.101  -0.238  53.474  1.00  0.00     0.020 C 
HETATM    3  C4  UNL     1      21.795   0.044  52.883  1.00  0.00     0.038 C 
HETATM    4  C5  UNL     1      21.810   0.270  51.415  1.00  0.00    -0.003 C 
HETATM    5  C6  UNL     1      20.609   0.659  51.003  1.00  0.00     0.003 C 
HETATM    6  C7  UNL     1      20.444   1.567  49.847  1.00  0.00     0.098 C 
HETATM    7  C8  UNL     1      21.185   2.594  49.498  1.00  0.00     0.172 C 
HETATM    8  O2  UNL     1      22.264   3.495  49.637  1.00  0.00    -0.359 OA
HETATM    9  C9  UNL     1      23.433   3.171  48.962  1.00  0.00     0.193 C 
HETATM   10  C10 UNL     1      24.717   3.658  49.559  1.00  0.00     0.140 C 
HETATM   11  N2  UNL     1      24.915   3.162  50.871  1.00  0.00    -0.417 N 
HETATM   12  C11 UNL     1      24.106   3.671  51.915  1.00  0.00     0.140 C 
HETATM   13  C12 UNL     1      24.444   2.832  53.175  1.00  0.00     0.195 C 
HETATM   14  O3  UNL     1      24.084   1.513  52.776  1.00  0.00    -0.348 OA
HETATM   15  C13 UNL     1      19.391   0.180  51.698  1.00  0.00    -0.034 A 
HETATM   16  C14 UNL     1      19.490  -0.652  52.747  1.00  0.00    -0.048 A 
HETATM   17  C15 UNL     1      18.126  -0.952  53.232  1.00  0.00     0.027 A 
HETATM   18  C16 UNL     1      17.259  -0.286  52.452  1.00  0.00     0.016 A 
HETATM   19 CL1  UNL     1      15.567  -0.480  52.827  1.00  0.00    -0.089 Cl
HETATM   20  C17 UNL     1      17.968   0.493  51.405  1.00  0.00     0.091 A 
HETATM   21  C18 UNL     1      20.847  -1.098  53.208  1.00  0.00     0.051 C 
HETATM   22  H12 UNL     1      25.836   2.786  51.110  1.00  0.00     0.153 HD
ENDROOT
BRANCH   1  23
HETATM   23  C1  UNL     1      25.567   0.148  54.059  1.00  0.00     0.143 C 
HETATM   24  N1  UNL     1      25.695  -0.719  55.032  1.00  0.00    -0.310 NA
HETATM   25  H1  UNL     1      24.864  -1.233  55.384  1.00  0.00     0.186 HD
ENDBRANCH   1  23
BRANCH   6  26
HETATM   26  O1  UNL     1      19.349   1.236  49.077  1.00  0.00    -0.358 OA
HETATM   27  H6  UNL     1      19.191   0.294  48.745  1.00  0.00     0.217 HD
ENDBRANCH   6  26
TORSDOF 2
ENDMDL
MODEL 6
REMARK VINA RESULT:      -7.6      4.038      6.441
REMARK  2 active torsions:
REMARK  status: ('A' for Active; 'I' for Inactive)
REMARK    1  A    between atoms: C1_2  and  C2_3 
REMARK    2  A    between atoms: C7_8  and  O1_9 
ROOT
HETATM    1  C2  UNL     1      25.473   5.917  49.366  1.00  0.00     0.082 C 
HETATM    2  C3  UNL     1      25.400   4.820  50.056  1.00  0.00     0.020 C 
HETATM    3  C4  UNL     1      24.375   3.800  50.272  1.00  0.00     0.038 C 
HETATM    4  C5  UNL     1      23.856   3.166  49.033  1.00  0.00    -0.003 C 
HETATM    5  C6  UNL     1      22.836   2.368  49.326  1.00  0.00     0.003 C 
HETATM    6  C7  UNL     1      21.729   2.144  48.370  1.00  0.00     0.098 C 
HETATM    7  C8  UNL     1      21.162   3.005  47.555  1.00  0.00     0.172 C 
HETATM    8  O2  UNL     1      20.982   4.276  46.966  1.00  0.00    -0.359 OA
HETATM    9  C9  UNL     1      21.681   4.520  45.793  1.00  0.00     0.193 C 
HETATM   10  C10 UNL     1      22.054   5.943  45.510  1.00  0.00     0.140 C 
HETATM   11  N2  UNL     1      22.869   6.492  46.531  1.00  0.00    -0.417 N 
HETATM   12  C11 UNL     1      22.280   6.777  47.785  1.00  0.00     0.140 C 
HETATM   13  C12 UNL     1      23.439   7.206  48.722  1.00  0.00     0.195 C 
HETATM   14  O3  UNL     1      24.268   6.048  48.740  1.00  0.00    -0.348 OA
HETATM   15  C13 UNL     1      22.787   1.668  50.631  1.00  0.00    -0.034 A 
HETATM   16  C14 UNL     1      23.772   1.832  51.528  1.00  0.00    -0.048 A 
HETATM   17  C15 UNL     1      23.452   1.024  52.723  1.00  0.00     0.027 A 
HETATM   18  C16 UNL     1      22.283   0.403  52.496  1.00  0.00     0.016 A 
HETATM   19 CL1  UNL     1      21.685  -0.623  53.773  1.00  0.00    -0.089 Cl
HETATM   20  C17 UNL     1      21.747   0.744  51.154  1.00  0.00     0.091 A 
HETATM   21  C18 UNL     1      24.929   2.729  51.195  1.00  0.00     0.051 C 
HETATM   22  H12 UNL     1      23.698   7.022  46.252  1.00  0.00     0.153 HD
ENDROOT
BRANCH   1  23
HETATM   23  C1  UNL     1      26.445   6.962  49.112  1.00  0.00     0.143 C 
HETATM   24  N1  UNL     1      26.768   7.767  50.094  1.00  0.00    -0.310 NA
HETATM   25  H1  UNL     1      26.331   7.648  51.029  1.00  0.00     0.186 HD
ENDBRANCH   1  23
BRANCH   6  26
HETATM   26  O1  UNL     1      21.281   0.840  48.388  1.00  0.00    -0.358 OA
HETATM   27  H6  UNL     1      21.258   0.292  49.237  1.00  0.00     0.217 HD
ENDBRANCH   6  26
TORSDOF 2
ENDMDL
MODEL 7
REMARK VINA RESULT:      -7.5      9.638     12.384
REMARK  2 active torsions:
REMARK  status: ('A' for Active; 'I' for Inactive)
REMARK    1  A    between atoms: C1_2  and  C2_3 
REMARK    2  A    between atoms: C7_8  and  O1_9 
ROOT
HETATM    1  C2  UNL     1      31.398  10.480  47.412  1.00  0.00     0.082 C 
HETATM    2  C3  UNL     1      30.955   9.262  47.323  1.00  0.00     0.020 C 
HETATM    3  C4  UNL     1      29.724   8.578  47.712  1.00  0.00     0.038 C 
HETATM    4  C5  UNL     1      28.479   9.170  47.157  1.00  0.00    -0.003 C 
HETATM    5  C6  UNL     1      27.418   8.571  47.684  1.00  0.00     0.003 C 
HETATM    6  C7  UNL     1      26.143   9.293  47.888  1.00  0.00     0.098 C 
HETATM    7  C8  UNL     1      25.956  10.536  48.270  1.00  0.00     0.172 C 
HETATM    8  O2  UNL     1      26.375  11.823  48.674  1.00  0.00    -0.359 OA
HETATM    9  C9  UNL     1      26.521  12.771  47.671  1.00  0.00     0.193 C 
HETATM   10  C10 UNL     1      27.532  13.852  47.902  1.00  0.00     0.140 C 
HETATM   11  N2  UNL     1      28.835  13.330  48.091  1.00  0.00    -0.417 N 
HETATM   12  C11 UNL     1      29.121  12.648  49.297  1.00  0.00     0.140 C 
HETATM   13  C12 UNL     1      30.550  12.066  49.139  1.00  0.00     0.195 C 
HETATM   14  O3  UNL     1      30.408  11.195  48.020  1.00  0.00    -0.348 OA
HETATM   15  C13 UNL     1      27.486   7.144  48.077  1.00  0.00    -0.034 A 
HETATM   16  C14 UNL     1      28.619   6.443  47.903  1.00  0.00    -0.048 A 
HETATM   17  C15 UNL     1      28.391   5.065  48.385  1.00  0.00     0.027 A 
HETATM   18  C16 UNL     1      27.127   4.991  48.831  1.00  0.00     0.016 A 
HETATM   19 CL1  UNL     1      26.612   3.447  49.458  1.00  0.00    -0.089 Cl
HETATM   20  C17 UNL     1      26.428   6.292  48.680  1.00  0.00     0.091 A 
HETATM   21  C18 UNL     1      29.816   7.119  47.301  1.00  0.00     0.051 C 
HETATM   22  H12 UNL     1      29.608  13.771  47.588  1.00  0.00     0.153 HD
ENDROOT
BRANCH   1  23
HETATM   23  C1  UNL     1      32.594  11.216  47.053  1.00  0.00     0.143 C 
HETATM   24  N1  UNL     1      32.508  12.128  46.117  1.00  0.00    -0.310 NA
HETATM   25  H1  UNL     1      31.597  12.312  45.653  1.00  0.00     0.186 HD
ENDBRANCH   1  23
BRANCH   6  26
HETATM   26  O1  UNL     1      25.047   8.498  47.628  1.00  0.00    -0.358 OA
HETATM   27  H6  UNL     1      24.474   8.114  48.368  1.00  0.00     0.217 HD
ENDBRANCH   6  26
TORSDOF 2
ENDMDL
MODEL 8
REMARK VINA RESULT:      -7.4      7.216      9.856
REMARK  2 active torsions:
REMARK  status: ('A' for Active; 'I' for Inactive)
REMARK    1  A    between atoms: C1_2  and  C2_3 
REMARK    2  A    between atoms: C7_8  and  O1_9 
ROOT
HETATM    1  C2  UNL     1      29.986   6.371  47.785  1.00  0.00     0.082 C 
HETATM    2  C3  UNL     1      29.048   5.528  48.099  1.00  0.00     0.020 C 
HETATM    3  C4  UNL     1      27.799   5.605  48.854  1.00  0.00     0.038 C 
HETATM    4  C5  UNL     1      26.841   6.632  48.371  1.00  0.00    -0.003 C 
HETATM    5  C6  UNL     1      25.812   6.720  49.206  1.00  0.00     0.003 C 
HETATM    6  C7  UNL     1      25.091   7.995  49.415  1.00  0.00     0.098 C 
HETATM    7  C8  UNL     1      25.579   9.213  49.473  1.00  0.00     0.172 C 
HETATM    8  O2  UNL     1      26.611  10.177  49.443  1.00  0.00    -0.359 OA
HETATM    9  C9  UNL     1      26.879  10.760  48.213  1.00  0.00     0.193 C 
HETATM   10  C10 UNL     1      28.281  11.230  47.977  1.00  0.00     0.140 C 
HETATM   11  N2  UNL     1      29.220  10.176  48.083  1.00  0.00    -0.417 N 
HETATM   12  C11 UNL     1      29.495   9.642  49.364  1.00  0.00     0.140 C 
HETATM   13  C12 UNL     1      30.422   8.419  49.136  1.00  0.00     0.195 C 
HETATM   14  O3  UNL     1      29.615   7.564  48.331  1.00  0.00    -0.348 OA
HETATM   15  C13 UNL     1      25.352   5.524  49.951  1.00  0.00    -0.034 A 
HETATM   16  C14 UNL     1      25.970   4.343  49.789  1.00  0.00    -0.048 A 
HETATM   17  C15 UNL     1      25.302   3.348  50.653  1.00  0.00     0.027 A 
HETATM   18  C16 UNL     1      24.307   3.972  51.304  1.00  0.00     0.016 A 
HETATM   19 CL1  UNL     1      23.360   2.998  52.398  1.00  0.00    -0.089 Cl
HETATM   20  C17 UNL     1      24.237   5.406  50.925  1.00  0.00     0.091 A 
HETATM   21  C18 UNL     1      27.128   4.242  48.840  1.00  0.00     0.051 C 
HETATM   22  H12 UNL     1      29.940  10.097  47.360  1.00  0.00     0.153 HD
ENDROOT
BRANCH   1  23
HETATM   23  C1  UNL     1      31.235   6.361  47.050  1.00  0.00     0.143 C 
HETATM   24  N1  UNL     1      32.036   5.335  47.193  1.00  0.00    -0.310 NA
HETATM   25  H1  UNL     1      31.769   4.550  47.820  1.00  0.00     0.186 HD
ENDBRANCH   1  23
BRANCH   6  26
HETATM   26  O1  UNL     1      23.733   7.807  49.560  1.00  0.00    -0.358 OA
HETATM   27  H6  UNL     1      23.315   6.886  49.563  1.00  0.00     0.217 HD
ENDBRANCH   6  26
TORSDOF 2
ENDMDL
MODEL 9
REMARK VINA RESULT:      -7.3      8.384     11.105
REMARK  2 active torsions:
REMARK  status: ('A' for Active; 'I' for Inactive)
REMARK    1  A    between atoms: C1_2  and  C2_3 
REMARK    2  A    between atoms: C7_8  and  O1_9 
ROOT
HETATM    1  C2  UNL     1      31.054   6.058  48.450  1.00  0.00     0.082 C 
HETATM    2  C3  UNL     1      29.874   5.517  48.499  1.00  0.00     0.020 C 
HETATM    3  C4  UNL     1      28.506   6.024  48.584  1.00  0.00     0.038 C 
HETATM    4  C5  UNL     1      28.126   6.977  47.509  1.00  0.00    -0.003 C 
HETATM    5  C6  UNL     1      26.926   7.487  47.759  1.00  0.00     0.003 C 
HETATM    6  C7  UNL     1      26.562   8.856  47.333  1.00  0.00     0.098 C 
HETATM    7  C8  UNL     1      27.308   9.938  47.325  1.00  0.00     0.172 C 
HETATM    8  O2  UNL     1      28.498  10.669  47.537  1.00  0.00    -0.359 OA
HETATM    9  C9  UNL     1      29.361  10.776  46.456  1.00  0.00     0.193 C 
HETATM   10  C10 UNL     1      30.819  10.923  46.765  1.00  0.00     0.140 C 
HETATM   11  N2  UNL     1      31.317   9.827  47.511  1.00  0.00    -0.417 N 
HETATM   12  C11 UNL     1      30.927   9.698  48.865  1.00  0.00     0.140 C 
HETATM   13  C12 UNL     1      31.494   8.339  49.353  1.00  0.00     0.195 C 
HETATM   14  O3  UNL     1      30.850   7.406  48.491  1.00  0.00    -0.348 OA
HETATM   15  C13 UNL     1      25.907   6.681  48.472  1.00  0.00    -0.034 A 
HETATM   16  C14 UNL     1      26.187   5.430  48.872  1.00  0.00    -0.048 A 
HETATM   17  C15 UNL     1      24.995   4.882  49.552  1.00  0.00     0.027 A 
HETATM   18  C16 UNL     1      24.043   5.828  49.535  1.00  0.00     0.016 A 
HETATM   19 CL1  UNL     1      22.523   5.417  50.285  1.00  0.00    -0.089 Cl
HETATM   20  C17 UNL     1      24.520   7.057  48.851  1.00  0.00     0.091 A 
HETATM   21  C18 UNL     1      27.542   4.851  48.583  1.00  0.00     0.051 C 
HETATM   22  H12 UNL     1      32.205   9.409  47.220  1.00  0.00     0.153 HD
ENDROOT
BRANCH   1  23
HETATM   23  C1  UNL     1      32.433   5.619  48.368  1.00  0.00     0.143 C 
HETATM   24  N1  UNL     1      32.694   4.346  48.529  1.00  0.00    -0.310 NA
HETATM   25  H1  UNL     1      31.922   3.676  48.709  1.00  0.00     0.186 HD
ENDBRANCH   1  23
BRANCH   6  26
HETATM   26  O1  UNL     1      25.255   8.937  46.901  1.00  0.00    -0.358 OA
HETATM   27  H6  UNL     1      24.872   8.292  46.224  1.00  0.00     0.217 HD
ENDBRANCH   6  26
TORSDOF 2
ENDMDL
