MODEL 1
REMARK VINA RESULT:      -7.2      0.000      0.000
REMARK  8 active torsions:
REMARK  status: ('A' for Active; 'I' for Inactive)
REMARK    1  A    between atoms: O1_2  and  C2_3 
REMARK    2  A    between atoms: C5_6  and  C6_7 
REMARK    3  A    between atoms: C7_8  and  C8_9 
REMARK    4  A    between atoms: C8_9  and  N1_10 
REMARK    5  A    between atoms: C8_9  and  O5_20 
REMARK       I    between atoms: N1_10  and  C9_11 
REMARK    6  A    between atoms: C9_11  and  O3_13 
REMARK    7  A    between atoms: O3_13  and  C10_14 
REMARK    8  A    between atoms: C15_22  and  O6_23 
ROOT
HETATM    1  C8  UNL     1      27.138   1.221  52.046  1.00  0.00     0.248 C 
ENDROOT
BRANCH   1   2
HETATM    2  C7  UNL     1      26.722   2.410  51.341  1.00  0.00     0.027 C 
HETATM    3  C6  UNL     1      26.451   2.956  50.180  1.00  0.00     0.014 C 
BRANCH   3   4
HETATM    4  C5  UNL     1      26.025   4.212  49.589  1.00  0.00    -0.003 A 
HETATM    5  C4  UNL     1      24.688   4.478  49.768  1.00  0.00     0.017 A 
HETATM    6  C3  UNL     1      24.205   5.651  49.241  1.00  0.00     0.038 A 
HETATM    7  C2  UNL     1      25.086   6.473  48.577  1.00  0.00     0.070 A 
HETATM    8  C17 UNL     1      26.419   6.179  48.413  1.00  0.00     0.074 A 
HETATM    9  C15 UNL     1      26.931   5.009  48.931  1.00  0.00     0.081 A 
BRANCH   7  10
HETATM   10  O1  UNL     1      24.547   7.645  48.065  1.00  0.00    -0.356 OA
HETATM   11  C1  UNL     1      23.248   7.653  47.515  1.00  0.00     0.210 C 
ENDBRANCH   7  10
BRANCH   9  12
HETATM   12  O6  UNL     1      28.269   4.700  48.775  1.00  0.00    -0.355 OA
HETATM   13  C16 UNL     1      29.135   5.647  48.199  1.00  0.00     0.210 C 
ENDBRANCH   9  12
ENDBRANCH   3   4
ENDBRANCH   1   2
BRANCH   1  14
HETATM   14  N1  UNL     1      26.213   0.893  53.149  1.00  0.00    -0.307 N 
HETATM   15  C9  UNL     1      25.821  -0.433  53.407  1.00  0.00     0.363 C 
HETATM   16  O2  UNL     1      26.317  -1.295  52.633  1.00  0.00    -0.238 OA
HETATM   17  H9  UNL     1      25.854   1.679  53.734  1.00  0.00     0.167 HD
BRANCH  15  18
HETATM   18  O3  UNL     1      24.970  -0.795  54.419  1.00  0.00    -0.296 OA
BRANCH  18  19
HETATM   19  C10 UNL     1      23.605  -0.670  54.498  1.00  0.00     0.165 C 
HETATM   20  C11 UNL     1      22.876  -1.560  55.438  1.00  0.00     0.209 C 
HETATM   21  O4  UNL     1      21.537  -1.469  54.986  1.00  0.00    -0.341 OA
HETATM   22  C12 UNL     1      21.459  -0.830  53.745  1.00  0.00     0.115 C 
HETATM   23  S1  UNL     1      19.977  -0.278  53.281  1.00  0.00    -0.058 SA
HETATM   24  C13 UNL     1      22.848  -0.862  53.213  1.00  0.00     0.111 C 
ENDBRANCH  18  19
ENDBRANCH  15  18
ENDBRANCH   1  14
BRANCH   1  25
HETATM   25  O5  UNL     1      28.384   1.347  52.676  1.00  0.00    -0.368 OA
HETATM   26  C14 UNL     1      28.373   2.406  53.583  1.00  0.00     0.204 C 
ENDBRANCH   1  25
TORSDOF 8
ENDMDL
MODEL 2
REMARK VINA RESULT:      -7.1      1.204      2.088
REMARK  8 active torsions:
REMARK  status: ('A' for Active; 'I' for Inactive)
REMARK    1  A    between atoms: O1_2  and  C2_3 
REMARK    2  A    between atoms: C5_6  and  C6_7 
REMARK    3  A    between atoms: C7_8  and  C8_9 
REMARK    4  A    between atoms: C8_9  and  N1_10 
REMARK    5  A    between atoms: C8_9  and  O5_20 
REMARK       I    between atoms: N1_10  and  C9_11 
REMARK    6  A    between atoms: C9_11  and  O3_13 
REMARK    7  A    between atoms: O3_13  and  C10_14 
REMARK    8  A    between atoms: C15_22  and  O6_23 
ROOT
HETATM    1  C8  UNL     1      27.119   1.065  52.315  1.00  0.00     0.248 C 
ENDROOT
BRANCH   1   2
HETATM    2  C7  UNL     1      26.808   2.276  51.592  1.00  0.00     0.027 C 
HETATM    3  C6  UNL     1      26.492   2.812  50.438  1.00  0.00     0.014 C 
BRANCH   3   4
HETATM    4  C5  UNL     1      26.194   4.095  49.826  1.00  0.00    -0.003 A 
HETATM    5  C4  UNL     1      27.221   4.586  49.054  1.00  0.00     0.017 A 
HETATM    6  C3  UNL     1      27.018   5.796  48.435  1.00  0.00     0.038 A 
HETATM    7  C2  UNL     1      25.810   6.426  48.628  1.00  0.00     0.070 A 
HETATM    8  C17 UNL     1      24.802   5.909  49.407  1.00  0.00     0.074 A 
HETATM    9  C15 UNL     1      24.978   4.698  50.040  1.00  0.00     0.081 A 
BRANCH   7  10
HETATM   10  O1  UNL     1      25.657   7.644  47.980  1.00  0.00    -0.356 OA
HETATM   11  C1  UNL     1      26.742   8.233  47.300  1.00  0.00     0.210 C 
ENDBRANCH   7  10
BRANCH   9  12
HETATM   12  O6  UNL     1      23.974   4.165  50.825  1.00  0.00    -0.355 OA
HETATM   13  C16 UNL     1      23.526   4.877  51.953  1.00  0.00     0.210 C 
ENDBRANCH   9  12
ENDBRANCH   3   4
ENDBRANCH   1   2
BRANCH   1  14
HETATM   14  N1  UNL     1      26.127   0.796  53.373  1.00  0.00    -0.307 N 
HETATM   15  C9  UNL     1      25.683  -0.511  53.646  1.00  0.00     0.363 C 
HETATM   16  O2  UNL     1      26.194  -1.408  52.924  1.00  0.00    -0.238 OA
HETATM   17  H9  UNL     1      25.761   1.609  53.917  1.00  0.00     0.167 HD
BRANCH  15  18
HETATM   18  O3  UNL     1      24.767  -0.818  54.619  1.00  0.00    -0.296 OA
BRANCH  18  19
HETATM   19  C10 UNL     1      23.400  -0.711  54.597  1.00  0.00     0.165 C 
HETATM   20  C11 UNL     1      22.610  -1.682  55.397  1.00  0.00     0.209 C 
HETATM   21  O4  UNL     1      21.310  -1.562  54.846  1.00  0.00    -0.341 OA
HETATM   22  C12 UNL     1      21.324  -0.823  53.660  1.00  0.00     0.115 C 
HETATM   23  S1  UNL     1      19.876  -0.245  53.124  1.00  0.00    -0.058 SA
HETATM   24  C13 UNL     1      22.752  -0.799  53.243  1.00  0.00     0.111 C 
ENDBRANCH  18  19
ENDBRANCH  15  18
ENDBRANCH   1  14
BRANCH   1  25
HETATM   25  O5  UNL     1      28.340   1.118  53.001  1.00  0.00    -0.368 OA
HETATM   26  C14 UNL     1      28.533   2.376  53.569  1.00  0.00     0.204 C 
ENDBRANCH   1  25
TORSDOF 8
ENDMDL
MODEL 3
REMARK VINA RESULT:      -7.0      2.962      4.738
REMARK  8 active torsions:
REMARK  status: ('A' for Active; 'I' for Inactive)
REMARK    1  A    between atoms: O1_2  and  C2_3 
REMARK    2  A    between atoms: C5_6  and  C6_7 
REMARK    3  A    between atoms: C7_8  and  C8_9 
REMARK    4  A    between atoms: C8_9  and  N1_10 
REMARK    5  A    between atoms: C8_9  and  O5_20 
REMARK       I    between atoms: N1_10  and  C9_11 
REMARK    6  A    between atoms: C9_11  and  O3_13 
REMARK    7  A    between atoms: O3_13  and  C10_14 
REMARK    8  A    between atoms: C15_22  and  O6_23 
ROOT
HETATM    1  C8  UNL     1      23.509   2.804  50.864  1.00  0.00     0.248 C 
ENDROOT
BRANCH   1   2
HETATM    2  C7  UNL     1      24.585   3.591  50.308  1.00  0.00     0.027 C 
HETATM    3  C6  UNL     1      24.924   4.567  49.501  1.00  0.00     0.014 C 
BRANCH   3   4
HETATM    4  C5  UNL     1      26.089   5.286  49.017  1.00  0.00    -0.003 A 
HETATM    5  C4  UNL     1      27.210   4.498  48.896  1.00  0.00     0.017 A 
HETATM    6  C3  UNL     1      28.356   5.102  48.439  1.00  0.00     0.038 A 
HETATM    7  C2  UNL     1      28.303   6.442  48.135  1.00  0.00     0.070 A 
HETATM    8  C17 UNL     1      27.167   7.205  48.267  1.00  0.00     0.074 A 
HETATM    9  C15 UNL     1      26.003   6.626  48.724  1.00  0.00     0.081 A 
BRANCH   7  10
HETATM   10  O1  UNL     1      29.487   7.003  47.678  1.00  0.00    -0.356 OA
HETATM   11  C1  UNL     1      30.630   7.031  48.504  1.00  0.00     0.210 C 
ENDBRANCH   7  10
BRANCH   9  12
HETATM   12  O6  UNL     1      24.852   7.379  48.862  1.00  0.00    -0.355 OA
HETATM   13  C16 UNL     1      24.759   8.315  49.907  1.00  0.00     0.210 C 
ENDBRANCH   9  12
ENDBRANCH   3   4
ENDBRANCH   1   2
BRANCH   1  14
HETATM   14  N1  UNL     1      23.976   1.470  51.286  1.00  0.00    -0.307 N 
HETATM   15  C9  UNL     1      24.271   1.189  52.633  1.00  0.00     0.363 C 
HETATM   16  O2  UNL     1      24.106   2.154  53.426  1.00  0.00    -0.238 OA
HETATM   17  H9  UNL     1      24.083   0.736  50.552  1.00  0.00     0.167 HD
BRANCH  15  18
HETATM   18  O3  UNL     1      24.704  -0.032  53.081  1.00  0.00    -0.296 OA
BRANCH  18  19
HETATM   19  C10 UNL     1      25.937  -0.401  53.556  1.00  0.00     0.165 C 
HETATM   20  C11 UNL     1      26.274  -0.064  54.962  1.00  0.00     0.209 C 
HETATM   21  O4  UNL     1      27.685  -0.199  54.991  1.00  0.00    -0.341 OA
HETATM   22  C12 UNL     1      28.211  -0.327  53.702  1.00  0.00     0.115 C 
HETATM   23  S1  UNL     1      29.752  -0.902  53.581  1.00  0.00    -0.058 SA
HETATM   24  C13 UNL     1      27.123   0.131  52.798  1.00  0.00     0.111 C 
ENDBRANCH  18  19
ENDBRANCH  15  18
ENDBRANCH   1  14
BRANCH   1  25
HETATM   25  O5  UNL     1      22.483   2.529  49.949  1.00  0.00    -0.368 OA
HETATM   26  C14 UNL     1      21.324   3.229  50.283  1.00  0.00     0.204 C 
ENDBRANCH   1  25
TORSDOF 8
ENDMDL
MODEL 4
REMARK VINA RESULT:      -7.0      2.634      7.604
REMARK  8 active torsions:
REMARK  status: ('A' for Active; 'I' for Inactive)
REMARK    1  A    between atoms: O1_2  and  C2_3 
REMARK    2  A    between atoms: C5_6  and  C6_7 
REMARK    3  A    between atoms: C7_8  and  C8_9 
REMARK    4  A    between atoms: C8_9  and  N1_10 
REMARK    5  A    between atoms: C8_9  and  O5_20 
REMARK       I    between atoms: N1_10  and  C9_11 
REMARK    6  A    between atoms: C9_11  and  O3_13 
REMARK    7  A    between atoms: O3_13  and  C10_14 
REMARK    8  A    between atoms: C15_22  and  O6_23 
ROOT
HETATM    1  C8  UNL     1      26.101  -0.285  53.330  1.00  0.00     0.248 C 
ENDROOT
BRANCH   1   2
HETATM    2  C7  UNL     1      24.668  -0.456  53.362  1.00  0.00     0.027 C 
HETATM    3  C6  UNL     1      23.502  -0.010  52.960  1.00  0.00     0.014 C 
BRANCH   3   4
HETATM    4  C5  UNL     1      22.082  -0.288  53.070  1.00  0.00    -0.003 A 
HETATM    5  C4  UNL     1      21.769  -1.153  54.092  1.00  0.00     0.017 A 
HETATM    6  C3  UNL     1      20.442  -1.466  54.267  1.00  0.00     0.038 A 
HETATM    7  C2  UNL     1      19.526  -0.896  53.413  1.00  0.00     0.070 A 
HETATM    8  C17 UNL     1      19.870  -0.034  52.398  1.00  0.00     0.074 A 
HETATM    9  C15 UNL     1      21.193   0.296  52.200  1.00  0.00     0.081 A 
BRANCH   7  10
HETATM   10  O1  UNL     1      18.201  -1.244  53.633  1.00  0.00    -0.356 OA
HETATM   11  C1  UNL     1      17.804  -2.597  53.606  1.00  0.00     0.210 C 
ENDBRANCH   7  10
BRANCH   9  12
HETATM   12  O6  UNL     1      21.555   1.161  51.184  1.00  0.00    -0.355 OA
HETATM   13  C16 UNL     1      21.199   0.857  49.857  1.00  0.00     0.210 C 
ENDBRANCH   9  12
ENDBRANCH   3   4
ENDBRANCH   1   2
BRANCH   1  14
HETATM   14  N1  UNL     1      26.528   0.497  52.154  1.00  0.00    -0.307 N 
HETATM   15  C9  UNL     1      26.732   1.887  52.232  1.00  0.00     0.363 C 
HETATM   16  O2  UNL     1      26.524   2.392  53.368  1.00  0.00    -0.238 OA
HETATM   17  H9  UNL     1      26.672  -0.013  51.255  1.00  0.00     0.167 HD
BRANCH  15  18
HETATM   18  O3  UNL     1      27.131   2.661  51.174  1.00  0.00    -0.296 OA
BRANCH  18  19
HETATM   19  C10 UNL     1      26.376   3.268  50.202  1.00  0.00     0.165 C 
HETATM   20  C11 UNL     1      27.002   4.360  49.412  1.00  0.00     0.209 C 
HETATM   21  O4  UNL     1      25.885   5.009  48.830  1.00  0.00    -0.341 OA
HETATM   22  C12 UNL     1      24.686   4.570  49.398  1.00  0.00     0.115 C 
HETATM   23  S1  UNL     1      23.301   4.904  48.569  1.00  0.00    -0.058 SA
HETATM   24  C13 UNL     1      25.088   3.894  50.661  1.00  0.00     0.111 C 
ENDBRANCH  18  19
ENDBRANCH  15  18
ENDBRANCH   1  14
BRANCH   1  25
HETATM   25  O5  UNL     1      26.810  -1.489  53.211  1.00  0.00    -0.368 OA
HETATM   26  C14 UNL     1      28.183  -1.251  53.178  1.00  0.00     0.204 C 
ENDBRANCH   1  25
TORSDOF 8
ENDMDL
MODEL 5
REMARK VINA RESULT:      -6.7      3.640      7.325
REMARK  8 active torsions:
REMARK  status: ('A' for Active; 'I' for Inactive)
REMARK    1  A    between atoms: O1_2  and  C2_3 
REMARK    2  A    between atoms: C5_6  and  C6_7 
REMARK    3  A    between atoms: C7_8  and  C8_9 
REMARK    4  A    between atoms: C8_9  and  N1_10 
REMARK    5  A    between atoms: C8_9  and  O5_20 
REMARK       I    between atoms: N1_10  and  C9_11 
REMARK    6  A    between atoms: C9_11  and  O3_13 
REMARK    7  A    between atoms: O3_13  and  C10_14 
REMARK    8  A    between atoms: C15_22  and  O6_23 
ROOT
HETATM    1  C8  UNL     1      21.845   3.454  51.365  1.00  0.00     0.248 C 
ENDROOT
BRANCH   1   2
HETATM    2  C7  UNL     1      22.938   2.764  52.010  1.00  0.00     0.027 C 
HETATM    3  C6  UNL     1      23.310   1.737  52.735  1.00  0.00     0.014 C 
BRANCH   3   4
HETATM    4  C5  UNL     1      24.488   1.139  53.337  1.00  0.00    -0.003 A 
HETATM    5  C4  UNL     1      25.569   1.988  53.387  1.00  0.00     0.017 A 
HETATM    6  C3  UNL     1      26.725   1.499  53.947  1.00  0.00     0.038 A 
HETATM    7  C2  UNL     1      26.720   0.206  54.415  1.00  0.00     0.070 A 
HETATM    8  C17 UNL     1      25.623  -0.620  54.350  1.00  0.00     0.074 A 
HETATM    9  C15 UNL     1      24.450  -0.157  53.793  1.00  0.00     0.081 A 
BRANCH   7  10
HETATM   10  O1  UNL     1      27.912  -0.237  54.971  1.00  0.00    -0.356 OA
HETATM   11  C1  UNL     1      29.029  -0.498  54.150  1.00  0.00     0.210 C 
ENDBRANCH   7  10
BRANCH   9  12
HETATM   12  O6  UNL     1      23.338  -0.974  53.721  1.00  0.00    -0.355 OA
HETATM   13  C16 UNL     1      22.655  -1.318  54.901  1.00  0.00     0.210 C 
ENDBRANCH   9  12
ENDBRANCH   3   4
ENDBRANCH   1   2
BRANCH   1  14
HETATM   14  N1  UNL     1      20.869   2.506  50.795  1.00  0.00    -0.307 N 
HETATM   15  C9  UNL     1      19.561   2.405  51.306  1.00  0.00     0.363 C 
HETATM   16  O2  UNL     1      19.306   3.175  52.269  1.00  0.00    -0.238 OA
HETATM   17  H9  UNL     1      21.177   1.908  49.997  1.00  0.00     0.167 HD
BRANCH  15  18
HETATM   18  O3  UNL     1      18.613   1.546  50.812  1.00  0.00    -0.296 OA
BRANCH  18  19
HETATM   19  C10 UNL     1      18.048   0.441  51.396  1.00  0.00     0.165 C 
HETATM   20  C11 UNL     1      16.667   0.562  51.930  1.00  0.00     0.209 C 
HETATM   21  O4  UNL     1      16.559  -0.561  52.787  1.00  0.00    -0.341 OA
HETATM   22  C12 UNL     1      17.802  -1.165  52.996  1.00  0.00     0.115 C 
HETATM   23  S1  UNL     1      17.794  -2.694  53.613  1.00  0.00    -0.058 SA
HETATM   24  C13 UNL     1      18.797  -0.149  52.559  1.00  0.00     0.111 C 
ENDBRANCH  18  19
ENDBRANCH  15  18
ENDBRANCH   1  14
BRANCH   1  25
HETATM   25  O5  UNL     1      22.240   4.233  50.269  1.00  0.00    -0.368 OA
HETATM   26  C14 UNL     1      22.883   3.449  49.312  1.00  0.00     0.204 C 
ENDBRANCH   1  25
TORSDOF 8
ENDMDL
MODEL 6
REMARK VINA RESULT:      -6.7      3.050      4.830
REMARK  8 active torsions:
REMARK  status: ('A' for Active; 'I' for Inactive)
REMARK    1  A    between atoms: O1_2  and  C2_3 
REMARK    2  A    between atoms: C5_6  and  C6_7 
REMARK    3  A    between atoms: C7_8  and  C8_9 
REMARK    4  A    between atoms: C8_9  and  N1_10 
REMARK    5  A    between atoms: C8_9  and  O5_20 
REMARK       I    between atoms: N1_10  and  C9_11 
REMARK    6  A    between atoms: C9_11  and  O3_13 
REMARK    7  A    between atoms: O3_13  and  C10_14 
REMARK    8  A    between atoms: C15_22  and  O6_23 
ROOT
HETATM    1  C8  UNL     1      23.292   3.104  49.828  1.00  0.00     0.248 C 
ENDROOT
BRANCH   1   2
HETATM    2  C7  UNL     1      24.423   3.854  49.335  1.00  0.00     0.027 C 
HETATM    3  C6  UNL     1      25.348   4.745  49.602  1.00  0.00     0.014 C 
BRANCH   3   4
HETATM    4  C5  UNL     1      26.468   5.436  48.991  1.00  0.00    -0.003 A 
HETATM    5  C4  UNL     1      27.579   4.642  48.826  1.00  0.00     0.017 A 
HETATM    6  C3  UNL     1      28.684   5.221  48.249  1.00  0.00     0.038 A 
HETATM    7  C2  UNL     1      28.602   6.543  47.879  1.00  0.00     0.070 A 
HETATM    8  C17 UNL     1      27.476   7.312  48.058  1.00  0.00     0.074 A 
HETATM    9  C15 UNL     1      26.354   6.758  48.634  1.00  0.00     0.081 A 
BRANCH   7  10
HETATM   10  O1  UNL     1      29.745   7.077  47.301  1.00  0.00    -0.356 OA
HETATM   11  C1  UNL     1      30.759   7.635  48.107  1.00  0.00     0.210 C 
ENDBRANCH   7  10
BRANCH   9  12
HETATM   12  O6  UNL     1      25.214   7.518  48.820  1.00  0.00    -0.355 OA
HETATM   13  C16 UNL     1      25.268   8.653  49.649  1.00  0.00     0.210 C 
ENDBRANCH   9  12
ENDBRANCH   3   4
ENDBRANCH   1   2
BRANCH   1  14
HETATM   14  N1  UNL     1      23.709   2.061  50.785  1.00  0.00    -0.307 N 
HETATM   15  C9  UNL     1      23.536   2.227  52.172  1.00  0.00     0.363 C 
HETATM   16  O2  UNL     1      23.006   3.317  52.515  1.00  0.00    -0.238 OA
HETATM   17  H9  UNL     1      24.141   1.192  50.402  1.00  0.00     0.167 HD
BRANCH  15  18
HETATM   18  O3  UNL     1      23.901   1.291  53.104  1.00  0.00    -0.296 OA
BRANCH  18  19
HETATM   19  C10 UNL     1      25.133   0.743  53.356  1.00  0.00     0.165 C 
HETATM   20  C11 UNL     1      25.202  -0.445  54.245  1.00  0.00     0.209 C 
HETATM   21  O4  UNL     1      26.570  -0.490  54.610  1.00  0.00    -0.341 OA
HETATM   22  C12 UNL     1      27.236   0.681  54.234  1.00  0.00     0.115 C 
HETATM   23  S1  UNL     1      28.884   0.624  54.206  1.00  0.00    -0.058 SA
HETATM   24  C13 UNL     1      26.154   1.665  53.963  1.00  0.00     0.111 C 
ENDBRANCH  18  19
ENDBRANCH  15  18
ENDBRANCH   1  14
BRANCH   1  25
HETATM   25  O5  UNL     1      22.609   2.394  48.831  1.00  0.00    -0.368 OA
HETATM   26  C14 UNL     1      21.267   2.768  48.791  1.00  0.00     0.204 C 
ENDBRANCH   1  25
TORSDOF 8
ENDMDL
MODEL 7
REMARK VINA RESULT:      -6.5      3.278      7.658
REMARK  8 active torsions:
REMARK  status: ('A' for Active; 'I' for Inactive)
REMARK    1  A    between atoms: O1_2  and  C2_3 
REMARK    2  A    between atoms: C5_6  and  C6_7 
REMARK    3  A    between atoms: C7_8  and  C8_9 
REMARK    4  A    between atoms: C8_9  and  N1_10 
REMARK    5  A    between atoms: C8_9  and  O5_20 
REMARK       I    between atoms: N1_10  and  C9_11 
REMARK    6  A    between atoms: C9_11  and  O3_13 
REMARK    7  A    between atoms: O3_13  and  C10_14 
REMARK    8  A    between atoms: C15_22  and  O6_23 
ROOT
HETATM    1  C8  UNL     1      23.179   4.185  51.254  1.00  0.00     0.248 C 
ENDROOT
BRANCH   1   2
HETATM    2  C7  UNL     1      22.198   3.195  51.631  1.00  0.00     0.027 C 
HETATM    3  C6  UNL     1      21.722   1.990  51.425  1.00  0.00     0.014 C 
BRANCH   3   4
HETATM    4  C5  UNL     1      20.691   1.082  51.894  1.00  0.00    -0.003 A 
HETATM    5  C4  UNL     1      19.598   1.017  51.062  1.00  0.00     0.017 A 
HETATM    6  C3  UNL     1      18.576   0.176  51.433  1.00  0.00     0.038 A 
HETATM    7  C2  UNL     1      18.719  -0.539  52.600  1.00  0.00     0.070 A 
HETATM    8  C17 UNL     1      19.825  -0.452  53.411  1.00  0.00     0.074 A 
HETATM    9  C15 UNL     1      20.864   0.385  53.065  1.00  0.00     0.081 A 
BRANCH   7  10
HETATM   10  O1  UNL     1      17.660  -1.374  52.927  1.00  0.00    -0.356 OA
HETATM   11  C1  UNL     1      17.880  -2.547  53.676  1.00  0.00     0.210 C 
ENDBRANCH   7  10
BRANCH   9  12
HETATM   12  O6  UNL     1      21.983   0.483  53.870  1.00  0.00    -0.355 OA
HETATM   13  C16 UNL     1      22.794  -0.650  54.068  1.00  0.00     0.210 C 
ENDBRANCH   9  12
ENDBRANCH   3   4
ENDBRANCH   1   2
BRANCH   1  14
HETATM   14  N1  UNL     1      24.540   3.782  51.659  1.00  0.00    -0.307 N 
HETATM   15  C9  UNL     1      25.488   3.350  50.714  1.00  0.00     0.363 C 
HETATM   16  O2  UNL     1      25.083   3.339  49.521  1.00  0.00    -0.238 OA
HETATM   17  H9  UNL     1      24.779   3.825  52.674  1.00  0.00     0.167 HD
BRANCH  15  18
HETATM   18  O3  UNL     1      26.765   2.969  51.033  1.00  0.00    -0.296 OA
BRANCH  18  19
HETATM   19  C10 UNL     1      27.196   1.921  51.808  1.00  0.00     0.165 C 
HETATM   20  C11 UNL     1      26.315   0.731  51.926  1.00  0.00     0.209 C 
HETATM   21  O4  UNL     1      26.833   0.065  53.063  1.00  0.00    -0.341 OA
HETATM   22  C12 UNL     1      27.746   0.868  53.754  1.00  0.00     0.115 C 
HETATM   23  S1  UNL     1      28.736   0.112  54.834  1.00  0.00    -0.058 SA
HETATM   24  C13 UNL     1      27.504   2.244  53.244  1.00  0.00     0.111 C 
ENDBRANCH  18  19
ENDBRANCH  15  18
ENDBRANCH   1  14
BRANCH   1  25
HETATM   25  O5  UNL     1      22.995   5.427  51.879  1.00  0.00    -0.368 OA
HETATM   26  C14 UNL     1      23.603   6.444  51.144  1.00  0.00     0.204 C 
ENDBRANCH   1  25
TORSDOF 8
ENDMDL
MODEL 8
REMARK VINA RESULT:      -6.4      3.684      8.574
REMARK  8 active torsions:
REMARK  status: ('A' for Active; 'I' for Inactive)
REMARK    1  A    between atoms: O1_2  and  C2_3 
REMARK    2  A    between atoms: C5_6  and  C6_7 
REMARK    3  A    between atoms: C7_8  and  C8_9 
REMARK    4  A    between atoms: C8_9  and  N1_10 
REMARK    5  A    between atoms: C8_9  and  O5_20 
REMARK       I    between atoms: N1_10  and  C9_11 
REMARK    6  A    between atoms: C9_11  and  O3_13 
REMARK    7  A    between atoms: O3_13  and  C10_14 
REMARK    8  A    between atoms: C15_22  and  O6_23 
ROOT
HETATM    1  C8  UNL     1      22.012   3.274  51.418  1.00  0.00     0.248 C 
ENDROOT
BRANCH   1   2
HETATM    2  C7  UNL     1      23.117   2.486  51.913  1.00  0.00     0.027 C 
HETATM    3  C6  UNL     1      23.794   2.087  52.962  1.00  0.00     0.014 C 
BRANCH   3   4
HETATM    4  C5  UNL     1      24.929   1.262  53.333  1.00  0.00    -0.003 A 
HETATM    5  C4  UNL     1      26.114   1.957  53.402  1.00  0.00     0.017 A 
HETATM    6  C3  UNL     1      27.238   1.248  53.752  1.00  0.00     0.038 A 
HETATM    7  C2  UNL     1      27.101  -0.096  54.008  1.00  0.00     0.070 A 
HETATM    8  C17 UNL     1      25.902  -0.764  53.930  1.00  0.00     0.074 A 
HETATM    9  C15 UNL     1      24.758  -0.079  53.581  1.00  0.00     0.081 A 
BRANCH   7  10
HETATM   10  O1  UNL     1      28.267  -0.764  54.357  1.00  0.00    -0.356 OA
HETATM   11  C1  UNL     1      29.504  -0.378  53.803  1.00  0.00     0.210 C 
ENDBRANCH   7  10
BRANCH   9  12
HETATM   12  O6  UNL     1      23.545  -0.736  53.499  1.00  0.00    -0.355 OA
HETATM   13  C16 UNL     1      22.841  -1.038  54.679  1.00  0.00     0.210 C 
ENDBRANCH   9  12
ENDBRANCH   3   4
ENDBRANCH   1   2
BRANCH   1  14
HETATM   14  N1  UNL     1      22.447   4.625  51.015  1.00  0.00    -0.307 N 
HETATM   15  C9  UNL     1      22.515   4.999  49.660  1.00  0.00     0.363 C 
HETATM   16  O2  UNL     1      22.180   4.101  48.842  1.00  0.00    -0.238 OA
HETATM   17  H9  UNL     1      22.706   5.299  51.768  1.00  0.00     0.167 HD
BRANCH  15  18
HETATM   18  O3  UNL     1      22.908   6.240  49.229  1.00  0.00    -0.296 OA
BRANCH  18  19
HETATM   19  C10 UNL     1      24.164   6.789  49.178  1.00  0.00     0.165 C 
HETATM   20  C11 UNL     1      25.321   5.872  49.014  1.00  0.00     0.209 C 
HETATM   21  O4  UNL     1      26.420   6.677  49.403  1.00  0.00    -0.341 OA
HETATM   22  C12 UNL     1      25.995   7.863  50.010  1.00  0.00     0.115 C 
HETATM   23  S1  UNL     1      27.106   9.074  50.139  1.00  0.00    -0.058 SA
HETATM   24  C13 UNL     1      24.571   7.621  50.363  1.00  0.00     0.111 C 
ENDBRANCH  18  19
ENDBRANCH  15  18
ENDBRANCH   1  14
BRANCH   1  25
HETATM   25  O5  UNL     1      21.016   3.511  52.376  1.00  0.00    -0.368 OA
HETATM   26  C14 UNL     1      20.030   2.527  52.317  1.00  0.00     0.204 C 
ENDBRANCH   1  25
TORSDOF 8
ENDMDL
MODEL 9
REMARK VINA RESULT:      -6.4      4.779      9.696
REMARK  8 active torsions:
REMARK  status: ('A' for Active; 'I' for Inactive)
REMARK    1  A    between atoms: O1_2  and  C2_3 
REMARK    2  A    between atoms: C5_6  and  C6_7 
REMARK    3  A    between atoms: C7_8  and  C8_9 
REMARK    4  A    between atoms: C8_9  and  N1_10 
REMARK    5  A    between atoms: C8_9  and  O5_20 
REMARK       I    between atoms: N1_10  and  C9_11 
REMARK    6  A    between atoms: C9_11  and  O3_13 
REMARK    7  A    between atoms: O3_13  and  C10_14 
REMARK    8  A    between atoms: C15_22  and  O6_23 
ROOT
HETATM    1  C8  UNL     1      27.480   5.593  48.376  1.00  0.00     0.248 C 
ENDROOT
BRANCH   1   2
HETATM    2  C7  UNL     1      26.977   4.571  49.265  1.00  0.00     0.027 C 
HETATM    3  C6  UNL     1      25.979   3.776  49.566  1.00  0.00     0.014 C 
BRANCH   3   4
HETATM    4  C5  UNL     1      25.589   2.757  50.524  1.00  0.00    -0.003 A 
HETATM    5  C4  UNL     1      26.655   2.082  51.071  1.00  0.00     0.017 A 
HETATM    6  C3  UNL     1      26.372   1.102  51.992  1.00  0.00     0.038 A 
HETATM    7  C2  UNL     1      25.052   0.868  52.300  1.00  0.00     0.070 A 
HETATM    8  C17 UNL     1      24.007   1.559  51.735  1.00  0.00     0.074 A 
HETATM    9  C15 UNL     1      24.261   2.547  50.808  1.00  0.00     0.081 A 
BRANCH   7  10
HETATM   10  O1  UNL     1      24.822  -0.132  53.236  1.00  0.00    -0.356 OA
HETATM   11  C1  UNL     1      25.660  -0.263  54.362  1.00  0.00     0.210 C 
ENDBRANCH   7  10
BRANCH   9  12
HETATM   12  O6  UNL     1      23.222   3.251  50.231  1.00  0.00    -0.355 OA
HETATM   13  C16 UNL     1      22.260   3.863  51.055  1.00  0.00     0.210 C 
ENDBRANCH   9  12
ENDBRANCH   3   4
ENDBRANCH   1   2
BRANCH   1  14
HETATM   14  N1  UNL     1      28.657   6.275  48.945  1.00  0.00    -0.307 N 
HETATM   15  C9  UNL     1      29.966   5.866  48.629  1.00  0.00     0.363 C 
HETATM   16  O2  UNL     1      30.041   4.890  47.836  1.00  0.00    -0.238 OA
HETATM   17  H9  UNL     1      28.491   7.074  49.596  1.00  0.00     0.167 HD
BRANCH  15  18
HETATM   18  O3  UNL     1      31.094   6.465  49.125  1.00  0.00    -0.296 OA
BRANCH  18  19
HETATM   19  C10 UNL     1      31.644   7.684  48.815  1.00  0.00     0.165 C 
HETATM   20  C11 UNL     1      30.918   8.907  49.243  1.00  0.00     0.209 C 
HETATM   21  O4  UNL     1      31.504   9.919  48.443  1.00  0.00    -0.341 OA
HETATM   22  C12 UNL     1      32.300   9.373  47.432  1.00  0.00     0.115 C 
HETATM   23  S1  UNL     1      33.365  10.390  46.690  1.00  0.00    -0.058 SA
HETATM   24  C13 UNL     1      31.892   7.945  47.355  1.00  0.00     0.111 C 
ENDBRANCH  18  19
ENDBRANCH  15  18
ENDBRANCH   1  14
BRANCH   1  25
HETATM   25  O5  UNL     1      26.569   6.631  48.139  1.00  0.00    -0.368 OA
HETATM   26  C14 UNL     1      26.536   7.514  49.218  1.00  0.00     0.204 C 
ENDBRANCH   1  25
TORSDOF 8
ENDMDL
