MODEL 1
REMARK VINA RESULT:      -9.2      0.000      0.000
REMARK  2 active torsions:
REMARK  status: ('A' for Active; 'I' for Inactive)
REMARK    1  A    between atoms: C7_8  and  N2_9 
REMARK    2  A    between atoms: N2_9  and  C8_10 
ROOT
HETATM    1  C1  UNL     1      16.693   0.767  50.761  1.00  0.00     0.018 C 
HETATM    2  C2  UNL     1      17.848  -0.154  50.979  1.00  0.00     0.030 A 
HETATM    3  C3  UNL     1      19.119   0.418  50.464  1.00  0.00    -0.007 A 
HETATM    4  C4  UNL     1      20.016   0.445  51.429  1.00  0.00    -0.010 A 
HETATM    5  C5  UNL     1      21.319   0.979  51.074  1.00  0.00     0.161 C 
HETATM    6  N1  UNL     1      22.291   1.055  52.142  1.00  0.00    -0.379 N 
HETATM    7  C6  UNL     1      22.452   0.192  53.272  1.00  0.00     0.129 A 
HETATM    8  C7  UNL     1      23.804  -0.058  53.569  1.00  0.00     0.160 A 
HETATM    9  N3  UNL     1      24.122  -0.862  54.580  1.00  0.00    -0.222 NA
HETATM   10  C14 UNL     1      23.107  -1.414  55.298  1.00  0.00     0.238 A 
HETATM   11  N4  UNL     1      21.791  -1.206  55.061  1.00  0.00    -0.215 NA
HETATM   12  C15 UNL     1      21.435  -0.391  54.032  1.00  0.00     0.202 A 
HETATM   13  O1  UNL     1      20.040  -0.237  53.872  1.00  0.00    -0.290 OA
HETATM   14  C16 UNL     1      19.421  -0.091  52.628  1.00  0.00     0.082 A 
HETATM   15  C17 UNL     1      18.153  -0.447  52.401  1.00  0.00     0.019 A 
HETATM   16  H8  UNL     1      23.026   1.825  52.162  1.00  0.00     0.160 HD
ENDROOT
BRANCH   8  17
HETATM   17  N2  UNL     1      24.754   0.618  52.742  1.00  0.00    -0.339 N 
HETATM   18  H9  UNL     1      24.696   1.369  52.030  1.00  0.00     0.167 HD
BRANCH  17  19
HETATM   19  C8  UNL     1      26.093   0.144  52.931  1.00  0.00     0.035 A 
HETATM   20  C9  UNL     1      26.575  -1.117  52.653  1.00  0.00     0.032 A 
HETATM   21  C10 UNL     1      27.891  -1.446  52.928  1.00  0.00     0.046 A 
HETATM   22  C11 UNL     1      28.748  -0.522  53.487  1.00  0.00     0.138 A 
HETATM   23  F1  UNL     1      30.023  -0.914  53.727  1.00  0.00    -0.204 F 
HETATM   24  C12 UNL     1      28.287   0.748  53.775  1.00  0.00     0.074 A 
HETATM   25 CL1  UNL     1      29.439   1.844  54.510  1.00  0.00    -0.081 Cl
HETATM   26  C13 UNL     1      26.963   1.085  53.498  1.00  0.00     0.056 A 
ENDBRANCH  17  19
ENDBRANCH   8  17
TORSDOF 2
ENDMDL
MODEL 2
REMARK VINA RESULT:      -8.6      2.027      3.229
REMARK  2 active torsions:
REMARK  status: ('A' for Active; 'I' for Inactive)
REMARK    1  A    between atoms: C7_8  and  N2_9 
REMARK    2  A    between atoms: N2_9  and  C8_10 
ROOT
HETATM    1  C1  UNL     1      17.936  -0.914  51.942  1.00  0.00     0.018 C 
HETATM    2  C2  UNL     1      18.771   0.311  52.127  1.00  0.00     0.030 A 
HETATM    3  C3  UNL     1      19.729   0.165  53.253  1.00  0.00    -0.007 A 
HETATM    4  C4  UNL     1      20.954   0.392  52.824  1.00  0.00    -0.010 A 
HETATM    5  C5  UNL     1      22.008   0.288  53.819  1.00  0.00     0.161 C 
HETATM    6  N1  UNL     1      23.358   0.490  53.343  1.00  0.00    -0.379 N 
HETATM    7  C6  UNL     1      23.820   1.336  52.285  1.00  0.00     0.129 A 
HETATM    8  C7  UNL     1      25.030   1.980  52.602  1.00  0.00     0.160 A 
HETATM    9  N3  UNL     1      25.581   2.821  51.730  1.00  0.00    -0.222 NA
HETATM   10  C14 UNL     1      24.940   3.021  50.548  1.00  0.00     0.238 A 
HETATM   11  N4  UNL     1      23.778   2.427  50.188  1.00  0.00    -0.215 NA
HETATM   12  C15 UNL     1      23.190   1.564  51.059  1.00  0.00     0.202 A 
HETATM   13  O1  UNL     1      21.986   0.996  50.587  1.00  0.00    -0.290 OA
HETATM   14  C16 UNL     1      20.902   0.695  51.416  1.00  0.00     0.082 A 
HETATM   15  C17 UNL     1      19.641   0.653  50.975  1.00  0.00     0.019 A 
HETATM   16  H8  UNL     1      24.180  -0.020  53.788  1.00  0.00     0.160 HD
ENDROOT
BRANCH   8  17
HETATM   17  N2  UNL     1      25.596   1.643  53.871  1.00  0.00    -0.339 N 
HETATM   18  H9  UNL     1      25.293   1.752  54.856  1.00  0.00     0.167 HD
BRANCH  17  19
HETATM   19  C8  UNL     1      26.882   1.021  53.759  1.00  0.00     0.035 A 
HETATM   20  C9  UNL     1      28.112   1.622  53.922  1.00  0.00     0.032 A 
HETATM   21  C10 UNL     1      29.279   0.900  53.741  1.00  0.00     0.046 A 
HETATM   22  C11 UNL     1      29.238  -0.433  53.392  1.00  0.00     0.138 A 
HETATM   23  F1  UNL     1      30.421  -1.077  53.234  1.00  0.00    -0.204 F 
HETATM   24  C12 UNL     1      28.017  -1.056  53.223  1.00  0.00     0.074 A 
HETATM   25 CL1  UNL     1      28.064  -2.743  52.751  1.00  0.00    -0.081 Cl
HETATM   26  C13 UNL     1      26.839  -0.334  53.405  1.00  0.00     0.056 A 
ENDBRANCH  17  19
ENDBRANCH   8  17
TORSDOF 2
ENDMDL
MODEL 3
REMARK VINA RESULT:      -8.5      4.888      5.936
REMARK  2 active torsions:
REMARK  status: ('A' for Active; 'I' for Inactive)
REMARK    1  A    between atoms: C7_8  and  N2_9 
REMARK    2  A    between atoms: N2_9  and  C8_10 
ROOT
HETATM    1  C1  UNL     1      19.617  -0.487  53.456  1.00  0.00     0.018 C 
HETATM    2  C2  UNL     1      20.968  -0.682  52.849  1.00  0.00     0.030 A 
HETATM    3  C3  UNL     1      21.133   0.103  51.599  1.00  0.00    -0.007 A 
HETATM    4  C4  UNL     1      22.194   0.879  51.699  1.00  0.00    -0.010 A 
HETATM    5  C5  UNL     1      22.489   1.710  50.545  1.00  0.00     0.161 C 
HETATM    6  N1  UNL     1      23.624   2.596  50.669  1.00  0.00    -0.379 N 
HETATM    7  C6  UNL     1      24.836   2.405  51.406  1.00  0.00     0.129 A 
HETATM    8  C7  UNL     1      25.966   2.873  50.712  1.00  0.00     0.160 A 
HETATM    9  N3  UNL     1      27.175   2.748  51.254  1.00  0.00    -0.222 NA
HETATM   10  C14 UNL     1      27.265   2.165  52.479  1.00  0.00     0.238 A 
HETATM   11  N4  UNL     1      26.214   1.701  53.194  1.00  0.00    -0.215 NA
HETATM   12  C15 UNL     1      24.966   1.813  52.665  1.00  0.00     0.202 A 
HETATM   13  O1  UNL     1      23.940   1.302  53.490  1.00  0.00    -0.290 OA
HETATM   14  C16 UNL     1      22.796   0.673  52.993  1.00  0.00     0.082 A 
HETATM   15  C17 UNL     1      22.102  -0.231  53.693  1.00  0.00     0.019 A 
HETATM   16  H8  UNL     1      23.643   3.538  50.173  1.00  0.00     0.160 HD
ENDROOT
BRANCH   8  17
HETATM   17  N2  UNL     1      25.705   3.489  49.448  1.00  0.00    -0.339 N 
HETATM   18  H9  UNL     1      25.335   3.157  48.539  1.00  0.00     0.167 HD
BRANCH  17  19
HETATM   19  C8  UNL     1      26.042   4.881  49.428  1.00  0.00     0.035 A 
HETATM   20  C9  UNL     1      25.373   5.907  50.059  1.00  0.00     0.032 A 
HETATM   21  C10 UNL     1      25.793   7.218  49.915  1.00  0.00     0.046 A 
HETATM   22  C11 UNL     1      26.887   7.527  49.135  1.00  0.00     0.138 A 
HETATM   23  F1  UNL     1      27.242   8.832  49.041  1.00  0.00    -0.204 F 
HETATM   24  C12 UNL     1      27.573   6.516  48.492  1.00  0.00     0.074 A 
HETATM   25 CL1  UNL     1      28.932   7.006  47.500  1.00  0.00    -0.081 Cl
HETATM   26  C13 UNL     1      27.155   5.194  48.635  1.00  0.00     0.056 A 
ENDBRANCH  17  19
ENDBRANCH   8  17
TORSDOF 2
ENDMDL
MODEL 4
REMARK VINA RESULT:      -8.3      4.905      7.094
REMARK  2 active torsions:
REMARK  status: ('A' for Active; 'I' for Inactive)
REMARK    1  A    between atoms: C7_8  and  N2_9 
REMARK    2  A    between atoms: N2_9  and  C8_10 
ROOT
HETATM    1  C1  UNL     1      28.069   7.943  48.819  1.00  0.00     0.018 C 
HETATM    2  C2  UNL     1      26.727   7.326  48.598  1.00  0.00     0.030 A 
HETATM    3  C3  UNL     1      26.798   5.843  48.556  1.00  0.00    -0.007 A 
HETATM    4  C4  UNL     1      25.975   5.334  49.451  1.00  0.00    -0.010 A 
HETATM    5  C5  UNL     1      25.930   3.884  49.527  1.00  0.00     0.161 C 
HETATM    6  N1  UNL     1      25.064   3.323  50.539  1.00  0.00    -0.379 N 
HETATM    7  C6  UNL     1      23.830   3.838  51.050  1.00  0.00     0.129 A 
HETATM    8  C7  UNL     1      22.876   2.827  51.265  1.00  0.00     0.160 A 
HETATM    9  N3  UNL     1      21.666   3.145  51.718  1.00  0.00    -0.222 NA
HETATM   10  C14 UNL     1      21.402   4.457  51.960  1.00  0.00     0.238 A 
HETATM   11  N4  UNL     1      22.281   5.469  51.776  1.00  0.00    -0.215 NA
HETATM   12  C15 UNL     1      23.525   5.175  51.312  1.00  0.00     0.202 A 
HETATM   13  O1  UNL     1      24.366   6.300  51.157  1.00  0.00    -0.290 OA
HETATM   14  C16 UNL     1      25.314   6.416  50.139  1.00  0.00     0.082 A 
HETATM   15  C17 UNL     1      25.734   7.594  49.668  1.00  0.00     0.019 A 
HETATM   16  H8  UNL     1      25.302   2.402  51.017  1.00  0.00     0.160 HD
ENDROOT
BRANCH   8  17
HETATM   17  N2  UNL     1      23.314   1.494  50.992  1.00  0.00    -0.339 N 
HETATM   18  H9  UNL     1      23.662   1.000  50.151  1.00  0.00     0.167 HD
BRANCH  17  19
HETATM   19  C8  UNL     1      23.246   0.640  52.141  1.00  0.00     0.035 A 
HETATM   20  C9  UNL     1      22.157  -0.085  52.574  1.00  0.00     0.032 A 
HETATM   21  C10 UNL     1      22.227  -0.839  53.732  1.00  0.00     0.046 A 
HETATM   22  C11 UNL     1      23.385  -0.881  54.479  1.00  0.00     0.138 A 
HETATM   23  F1  UNL     1      23.382  -1.642  55.601  1.00  0.00    -0.204 F 
HETATM   24  C12 UNL     1      24.489  -0.162  54.065  1.00  0.00     0.074 A 
HETATM   25 CL1  UNL     1      25.906  -0.252  55.093  1.00  0.00    -0.081 Cl
HETATM   26  C13 UNL     1      24.425   0.598  52.898  1.00  0.00     0.056 A 
ENDBRANCH  17  19
ENDBRANCH   8  17
TORSDOF 2
ENDMDL
MODEL 5
REMARK VINA RESULT:      -8.1      2.483      3.218
REMARK  2 active torsions:
REMARK  status: ('A' for Active; 'I' for Inactive)
REMARK    1  A    between atoms: C7_8  and  N2_9 
REMARK    2  A    between atoms: N2_9  and  C8_10 
ROOT
HETATM    1  C1  UNL     1      20.501   3.098  47.314  1.00  0.00     0.018 C 
HETATM    2  C2  UNL     1      21.447   2.086  47.873  1.00  0.00     0.030 A 
HETATM    3  C3  UNL     1      22.709   2.708  48.347  1.00  0.00    -0.007 A 
HETATM    4  C4  UNL     1      22.914   2.389  49.609  1.00  0.00    -0.010 A 
HETATM    5  C5  UNL     1      24.120   2.924  50.216  1.00  0.00     0.161 C 
HETATM    6  N1  UNL     1      24.324   2.616  51.614  1.00  0.00    -0.379 N 
HETATM    7  C6  UNL     1      23.938   1.444  52.339  1.00  0.00     0.129 A 
HETATM    8  C7  UNL     1      24.921   1.035  53.259  1.00  0.00     0.160 A 
HETATM    9  N3  UNL     1      24.724  -0.054  53.997  1.00  0.00    -0.222 NA
HETATM   10  C14 UNL     1      23.558  -0.734  53.830  1.00  0.00     0.238 A 
HETATM   11  N4  UNL     1      22.577  -0.385  52.965  1.00  0.00    -0.215 NA
HETATM   12  C15 UNL     1      22.751   0.722  52.195  1.00  0.00     0.202 A 
HETATM   13  O1  UNL     1      21.670   1.001  51.330  1.00  0.00    -0.290 OA
HETATM   14  C16 UNL     1      21.828   1.553  50.056  1.00  0.00     0.082 A 
HETATM   15  C17 UNL     1      20.950   1.359  49.067  1.00  0.00     0.019 A 
HETATM   16  H8  UNL     1      24.825   3.298  52.260  1.00  0.00     0.160 HD
ENDROOT
BRANCH   8  17
HETATM   17  N2  UNL     1      26.078   1.870  53.341  1.00  0.00    -0.339 N 
HETATM   18  H9  UNL     1      26.245   2.891  53.282  1.00  0.00     0.167 HD
BRANCH  17  19
HETATM   19  C8  UNL     1      27.288   1.127  53.539  1.00  0.00     0.035 A 
HETATM   20  C9  UNL     1      28.494   1.610  53.998  1.00  0.00     0.032 A 
HETATM   21  C10 UNL     1      29.594   0.778  54.100  1.00  0.00     0.046 A 
HETATM   22  C11 UNL     1      29.511  -0.551  53.743  1.00  0.00     0.138 A 
HETATM   23  F1  UNL     1      30.629  -1.307  53.870  1.00  0.00    -0.204 F 
HETATM   24  C12 UNL     1      28.313  -1.057  53.279  1.00  0.00     0.074 A 
HETATM   25 CL1  UNL     1      28.309  -2.749  52.821  1.00  0.00    -0.081 Cl
HETATM   26  C13 UNL     1      27.200  -0.223  53.176  1.00  0.00     0.056 A 
ENDBRANCH  17  19
ENDBRANCH   8  17
TORSDOF 2
ENDMDL
MODEL 6
REMARK VINA RESULT:      -8.1      6.214      8.417
REMARK  2 active torsions:
REMARK  status: ('A' for Active; 'I' for Inactive)
REMARK    1  A    between atoms: C7_8  and  N2_9 
REMARK    2  A    between atoms: N2_9  and  C8_10 
ROOT
HETATM    1  C1  UNL     1      29.637   9.181  47.554  1.00  0.00     0.018 C 
HETATM    2  C2  UNL     1      28.292   8.542  47.434  1.00  0.00     0.030 A 
HETATM    3  C3  UNL     1      28.376   7.060  47.467  1.00  0.00    -0.007 A 
HETATM    4  C4  UNL     1      27.604   6.593  48.428  1.00  0.00    -0.010 A 
HETATM    5  C5  UNL     1      27.579   5.149  48.583  1.00  0.00     0.161 C 
HETATM    6  N1  UNL     1      26.770   4.636  49.665  1.00  0.00    -0.379 N 
HETATM    7  C6  UNL     1      25.558   5.167  50.209  1.00  0.00     0.129 A 
HETATM    8  C7  UNL     1      24.626   4.163  50.526  1.00  0.00     0.160 A 
HETATM    9  N3  UNL     1      23.437   4.495  51.021  1.00  0.00    -0.222 NA
HETATM   10  C14 UNL     1      23.171   5.815  51.207  1.00  0.00     0.238 A 
HETATM   11  N4  UNL     1      24.029   6.823  50.925  1.00  0.00    -0.215 NA
HETATM   12  C15 UNL     1      25.252   6.515  50.415  1.00  0.00     0.202 A 
HETATM   13  O1  UNL     1      26.072   7.636  50.159  1.00  0.00    -0.290 OA
HETATM   14  C16 UNL     1      26.967   7.705  49.090  1.00  0.00     0.082 A 
HETATM   15  C17 UNL     1      27.350   8.860  48.536  1.00  0.00     0.019 A 
HETATM   16  H8  UNL     1      27.041   3.744  50.179  1.00  0.00     0.160 HD
ENDROOT
BRANCH   8  17
HETATM   17  N2  UNL     1      25.064   2.820  50.302  1.00  0.00    -0.339 N 
HETATM   18  H9  UNL     1      25.210   2.232  49.462  1.00  0.00     0.167 HD
BRANCH  17  19
HETATM   19  C8  UNL     1      25.358   2.121  51.518  1.00  0.00     0.035 A 
HETATM   20  C9  UNL     1      26.543   2.139  52.221  1.00  0.00     0.032 A 
HETATM   21  C10 UNL     1      26.697   1.376  53.365  1.00  0.00     0.046 A 
HETATM   22  C11 UNL     1      25.671   0.580  53.827  1.00  0.00     0.138 A 
HETATM   23  F1  UNL     1      25.892  -0.139  54.955  1.00  0.00    -0.204 F 
HETATM   24  C12 UNL     1      24.474   0.545  53.138  1.00  0.00     0.074 A 
HETATM   25 CL1  UNL     1      23.238  -0.517  53.782  1.00  0.00    -0.081 Cl
HETATM   26  C13 UNL     1      24.313   1.313  51.986  1.00  0.00     0.056 A 
ENDBRANCH  17  19
ENDBRANCH   8  17
TORSDOF 2
ENDMDL
MODEL 7
REMARK VINA RESULT:      -8.1      4.180      7.944
REMARK  2 active torsions:
REMARK  status: ('A' for Active; 'I' for Inactive)
REMARK    1  A    between atoms: C7_8  and  N2_9 
REMARK    2  A    between atoms: N2_9  and  C8_10 
ROOT
HETATM    1  C1  UNL     1      29.972   0.318  53.559  1.00  0.00     0.018 C 
HETATM    2  C2  UNL     1      28.710   0.798  54.197  1.00  0.00     0.030 A 
HETATM    3  C3  UNL     1      27.867   1.572  53.251  1.00  0.00    -0.007 A 
HETATM    4  C4  UNL     1      26.665   1.038  53.188  1.00  0.00    -0.010 A 
HETATM    5  C5  UNL     1      25.720   1.691  52.299  1.00  0.00     0.161 C 
HETATM    6  N1  UNL     1      24.415   1.080  52.191  1.00  0.00    -0.379 N 
HETATM    7  C6  UNL     1      23.674   0.365  53.185  1.00  0.00     0.129 A 
HETATM    8  C7  UNL     1      22.301   0.666  53.153  1.00  0.00     0.160 A 
HETATM    9  N3  UNL     1      21.477   0.099  54.030  1.00  0.00    -0.222 NA
HETATM   10  C14 UNL     1      22.009  -0.767  54.934  1.00  0.00     0.238 A 
HETATM   11  N4  UNL     1      23.319  -1.097  55.009  1.00  0.00    -0.215 NA
HETATM   12  C15 UNL     1      24.186  -0.531  54.127  1.00  0.00     0.202 A 
HETATM   13  O1  UNL     1      25.527  -0.945  54.288  1.00  0.00    -0.290 OA
HETATM   14  C16 UNL     1      26.621  -0.106  54.065  1.00  0.00     0.082 A 
HETATM   15  C17 UNL     1      27.802  -0.277  54.669  1.00  0.00     0.019 A 
HETATM   16  H8  UNL     1      23.859   1.126  51.284  1.00  0.00     0.160 HD
ENDROOT
BRANCH   8  17
HETATM   17  N2  UNL     1      21.891   1.572  52.125  1.00  0.00    -0.339 N 
HETATM   18  H9  UNL     1      22.361   2.319  51.582  1.00  0.00     0.167 HD
BRANCH  17  19
HETATM   19  C8  UNL     1      20.511   1.422  51.769  1.00  0.00     0.035 A 
HETATM   20  C9  UNL     1      19.898   0.289  51.278  1.00  0.00     0.032 A 
HETATM   21  C10 UNL     1      18.556   0.304  50.938  1.00  0.00     0.046 A 
HETATM   22  C11 UNL     1      17.804   1.451  51.080  1.00  0.00     0.138 A 
HETATM   23  F1  UNL     1      16.496   1.392  50.728  1.00  0.00    -0.204 F 
HETATM   24  C12 UNL     1      18.397   2.598  51.569  1.00  0.00     0.074 A 
HETATM   25 CL1  UNL     1      17.371   4.014  51.687  1.00  0.00    -0.081 Cl
HETATM   26  C13 UNL     1      19.748   2.588  51.915  1.00  0.00     0.056 A 
ENDBRANCH  17  19
ENDBRANCH   8  17
TORSDOF 2
ENDMDL
MODEL 8
REMARK VINA RESULT:      -7.9      6.028      8.598
REMARK  2 active torsions:
REMARK  status: ('A' for Active; 'I' for Inactive)
REMARK    1  A    between atoms: C7_8  and  N2_9 
REMARK    2  A    between atoms: N2_9  and  C8_10 
ROOT
HETATM    1  C1  UNL     1      28.534   7.814  46.344  1.00  0.00     0.018 C 
HETATM    2  C2  UNL     1      28.222   7.448  47.758  1.00  0.00     0.030 A 
HETATM    3  C3  UNL     1      26.763   7.494  48.034  1.00  0.00    -0.007 A 
HETATM    4  C4  UNL     1      26.365   6.331  48.509  1.00  0.00    -0.010 A 
HETATM    5  C5  UNL     1      24.953   6.223  48.832  1.00  0.00     0.161 C 
HETATM    6  N1  UNL     1      24.503   4.934  49.308  1.00  0.00    -0.379 N 
HETATM    7  C6  UNL     1      25.216   3.965  50.083  1.00  0.00     0.129 A 
HETATM    8  C7  UNL     1      24.407   3.358  51.060  1.00  0.00     0.160 A 
HETATM    9  N3  UNL     1      24.928   2.449  51.880  1.00  0.00    -0.222 NA
HETATM   10  C14 UNL     1      26.244   2.138  51.731  1.00  0.00     0.238 A 
HETATM   11  N4  UNL     1      27.068   2.686  50.807  1.00  0.00    -0.215 NA
HETATM   12  C15 UNL     1      26.564   3.620  49.957  1.00  0.00     0.202 A 
HETATM   13  O1  UNL     1      27.503   4.125  49.031  1.00  0.00    -0.290 OA
HETATM   14  C16 UNL     1      27.501   5.447  48.580  1.00  0.00     0.082 A 
HETATM   15  C17 UNL     1      28.603   6.067  48.144  1.00  0.00     0.019 A 
HETATM   16  H8  UNL     1      23.518   4.585  49.102  1.00  0.00     0.160 HD
ENDROOT
BRANCH   8  17
HETATM   17  N2  UNL     1      23.038   3.769  51.072  1.00  0.00    -0.339 N 
HETATM   18  H9  UNL     1      22.552   4.684  51.074  1.00  0.00     0.167 HD
BRANCH  17  19
HETATM   19  C8  UNL     1      22.126   2.664  51.099  1.00  0.00     0.035 A 
HETATM   20  C9  UNL     1      21.539   2.045  50.017  1.00  0.00     0.032 A 
HETATM   21  C10 UNL     1      20.640   1.009  50.199  1.00  0.00     0.046 A 
HETATM   22  C11 UNL     1      20.309   0.574  51.465  1.00  0.00     0.138 A 
HETATM   23  F1  UNL     1      19.423  -0.447  51.568  1.00  0.00    -0.204 F 
HETATM   24  C12 UNL     1      20.885   1.180  52.565  1.00  0.00     0.074 A 
HETATM   25 CL1  UNL     1      20.383   0.581  54.134  1.00  0.00    -0.081 Cl
HETATM   26  C13 UNL     1      21.792   2.223  52.387  1.00  0.00     0.056 A 
ENDBRANCH  17  19
ENDBRANCH   8  17
TORSDOF 2
ENDMDL
MODEL 9
REMARK VINA RESULT:      -7.9      4.463      7.852
REMARK  2 active torsions:
REMARK  status: ('A' for Active; 'I' for Inactive)
REMARK    1  A    between atoms: C7_8  and  N2_9 
REMARK    2  A    between atoms: N2_9  and  C8_10 
ROOT
HETATM    1  C1  UNL     1      30.180  -0.496  53.459  1.00  0.00     0.018 C 
HETATM    2  C2  UNL     1      28.974   0.172  54.032  1.00  0.00     0.030 A 
HETATM    3  C3  UNL     1      28.505   1.297  53.182  1.00  0.00    -0.007 A 
HETATM    4  C4  UNL     1      27.240   1.114  52.863  1.00  0.00    -0.010 A 
HETATM    5  C5  UNL     1      26.636   2.140  52.031  1.00  0.00     0.161 C 
HETATM    6  N1  UNL     1      25.262   1.920  51.640  1.00  0.00    -0.379 N 
HETATM    7  C6  UNL     1      24.220   1.255  52.360  1.00  0.00     0.129 A 
HETATM    8  C7  UNL     1      22.979   1.905  52.231  1.00  0.00     0.160 A 
HETATM    9  N3  UNL     1      21.911   1.424  52.861  1.00  0.00    -0.222 NA
HETATM   10  C14 UNL     1      22.067   0.301  53.612  1.00  0.00     0.238 A 
HETATM   11  N4  UNL     1      23.233  -0.367  53.769  1.00  0.00    -0.215 NA
HETATM   12  C15 UNL     1      24.344   0.103  53.139  1.00  0.00     0.202 A 
HETATM   13  O1  UNL     1      25.506  -0.668  53.365  1.00  0.00    -0.290 OA
HETATM   14  C16 UNL     1      26.786  -0.117  53.461  1.00  0.00     0.082 A 
HETATM   15  C17 UNL     1      27.776  -0.695  54.149  1.00  0.00     0.019 A 
HETATM   16  H8  UNL     1      24.894   2.272  50.705  1.00  0.00     0.160 HD
ENDROOT
BRANCH   8  17
HETATM   17  N2  UNL     1      22.969   3.056  51.382  1.00  0.00    -0.339 N 
HETATM   18  H9  UNL     1      23.416   3.990  51.416  1.00  0.00     0.167 HD
BRANCH  17  19
HETATM   19  C8  UNL     1      22.144   2.885  50.223  1.00  0.00     0.035 A 
HETATM   20  C9  UNL     1      22.303   1.954  49.220  1.00  0.00     0.032 A 
HETATM   21  C10 UNL     1      21.446   1.934  48.133  1.00  0.00     0.046 A 
HETATM   22  C11 UNL     1      20.417   2.845  48.028  1.00  0.00     0.138 A 
HETATM   23  F1  UNL     1      19.616   2.765  46.937  1.00  0.00    -0.204 F 
HETATM   24  C12 UNL     1      20.238   3.788  49.021  1.00  0.00     0.074 A 
HETATM   25 CL1  UNL     1      18.923   4.922  48.789  1.00  0.00    -0.081 Cl
HETATM   26  C13 UNL     1      21.097   3.811  50.119  1.00  0.00     0.056 A 
ENDBRANCH  17  19
ENDBRANCH   8  17
TORSDOF 2
ENDMDL
