MODEL 1
REMARK VINA RESULT:      -7.2      0.000      0.000
REMARK  8 active torsions:
REMARK  status: ('A' for Active; 'I' for Inactive)
REMARK    1  A    between atoms: C2_3  and  N2_4 
REMARK    2  A    between atoms: C2_3  and  C12_17 
REMARK    3  A    between atoms: N2_4  and  C3_5 
REMARK    4  A    between atoms: C5_7  and  O1_8 
REMARK    5  A    between atoms: C7_10  and  O2_11 
REMARK    6  A    between atoms: C10_14  and  O3_15 
REMARK    7  A    between atoms: C14_19  and  O4_20 
REMARK    8  A    between atoms: C16_22  and  O5_23 
ROOT
HETATM    1  C1  UNL     1      22.200   1.868  49.202  1.00  0.00     0.180 C 
HETATM    2  N1  UNL     1      22.455   1.748  50.605  1.00  0.00    -0.276 NA
HETATM    3  C2  UNL     1      23.200   2.498  51.325  1.00  0.00     0.145 C 
ENDROOT
BRANCH   3   4
HETATM    4  N2  UNL     1      23.243   2.103  52.706  1.00  0.00    -0.337 N 
HETATM    5  H4  UNL     1      22.445   2.353  53.362  1.00  0.00     0.167 HD
BRANCH   4   6
HETATM    6  C3  UNL     1      24.374   1.376  53.182  1.00  0.00     0.070 A 
HETATM    7  C4  UNL     1      25.497   2.134  53.524  1.00  0.00     0.072 A 
HETATM    8  C5  UNL     1      26.619   1.471  53.988  1.00  0.00     0.103 A 
HETATM    9  C7  UNL     1      26.624   0.091  54.108  1.00  0.00     0.104 A 
HETATM   10  C9  UNL     1      25.487  -0.602  53.754  1.00  0.00     0.078 A 
HETATM   11  C10 UNL     1      24.332  -0.006  53.284  1.00  0.00     0.097 A 
BRANCH   8  12
HETATM   12  O1  UNL     1      27.745   2.199  54.336  1.00  0.00    -0.353 OA
HETATM   13  C6  UNL     1      28.702   2.519  53.363  1.00  0.00     0.210 C 
ENDBRANCH   8  12
BRANCH   9  14
HETATM   14  O2  UNL     1      27.735  -0.599  54.570  1.00  0.00    -0.353 OA
HETATM   15  C8  UNL     1      28.628  -1.117  53.591  1.00  0.00     0.210 C 
ENDBRANCH   9  14
BRANCH  11  16
HETATM   16  O3  UNL     1      23.190  -0.706  52.930  1.00  0.00    -0.354 OA
HETATM   17  C11 UNL     1      22.343  -1.140  53.974  1.00  0.00     0.210 C 
ENDBRANCH  11  16
ENDBRANCH   4   6
ENDBRANCH   3   4
BRANCH   3  18
HETATM   18  C12 UNL     1      23.963   3.663  50.890  1.00  0.00     0.068 A 
HETATM   19  C13 UNL     1      23.541   4.889  51.120  1.00  0.00     0.068 A 
HETATM   20  C14 UNL     1      24.287   6.063  50.692  1.00  0.00     0.105 A 
HETATM   21  C16 UNL     1      25.439   5.955  50.046  1.00  0.00     0.124 A 
HETATM   22  C18 UNL     1      25.879   4.595  49.806  1.00  0.00     0.067 A 
HETATM   23  C19 UNL     1      26.453   3.382  49.490  1.00  0.00     0.099 A 
HETATM   24  N3  UNL     1      25.196   3.396  50.196  1.00  0.00    -0.217 NA
BRANCH  20  25
HETATM   25  O4  UNL     1      23.830   7.349  50.943  1.00  0.00    -0.353 OA
HETATM   26  C15 UNL     1      22.920   8.072  50.183  1.00  0.00     0.210 C 
ENDBRANCH  20  25
BRANCH  21  27
HETATM   27  O5  UNL     1      26.240   6.989  49.589  1.00  0.00    -0.351 OA
HETATM   28  C17 UNL     1      26.661   6.928  48.228  1.00  0.00     0.210 C 
ENDBRANCH  21  27
ENDBRANCH   3  18
TORSDOF 8
ENDMDL
MODEL 2
REMARK VINA RESULT:      -6.7      2.786      5.823
REMARK  8 active torsions:
REMARK  status: ('A' for Active; 'I' for Inactive)
REMARK    1  A    between atoms: C2_3  and  N2_4 
REMARK    2  A    between atoms: C2_3  and  C12_17 
REMARK    3  A    between atoms: N2_4  and  C3_5 
REMARK    4  A    between atoms: C5_7  and  O1_8 
REMARK    5  A    between atoms: C7_10  and  O2_11 
REMARK    6  A    between atoms: C10_14  and  O3_15 
REMARK    7  A    between atoms: C14_19  and  O4_20 
REMARK    8  A    between atoms: C16_22  and  O5_23 
ROOT
HETATM    1  C1  UNL     1      22.088   4.526  51.917  1.00  0.00     0.180 C 
HETATM    2  N1  UNL     1      21.733   3.237  51.408  1.00  0.00    -0.276 NA
HETATM    3  C2  UNL     1      22.508   2.237  51.218  1.00  0.00     0.145 C 
ENDROOT
BRANCH   3   4
HETATM    4  N2  UNL     1      21.833   1.083  50.692  1.00  0.00    -0.337 N 
HETATM    5  H4  UNL     1      22.084   0.704  49.731  1.00  0.00     0.167 HD
BRANCH   4   6
HETATM    6  C3  UNL     1      20.819   0.458  51.477  1.00  0.00     0.070 A 
HETATM    7  C4  UNL     1      21.240  -0.136  52.670  1.00  0.00     0.072 A 
HETATM    8  C5  UNL     1      20.291  -0.757  53.463  1.00  0.00     0.103 A 
HETATM    9  C7  UNL     1      18.961  -0.788  53.078  1.00  0.00     0.104 A 
HETATM   10  C9  UNL     1      18.607  -0.187  51.890  1.00  0.00     0.078 A 
HETATM   11  C10 UNL     1      19.500   0.452  51.051  1.00  0.00     0.097 A 
BRANCH   8  12
HETATM   12  O1  UNL     1      20.682  -1.352  54.652  1.00  0.00    -0.353 OA
HETATM   13  C6  UNL     1      22.027  -1.687  54.861  1.00  0.00     0.210 C 
ENDBRANCH   8  12
BRANCH   9  14
HETATM   14  O2  UNL     1      17.990  -1.405  53.854  1.00  0.00    -0.353 OA
HETATM   15  C8  UNL     1      17.728  -2.778  53.591  1.00  0.00     0.210 C 
ENDBRANCH   9  14
BRANCH  11  16
HETATM   16  O3  UNL     1      19.141   1.056  49.857  1.00  0.00    -0.354 OA
HETATM   17  C11 UNL     1      18.255   2.154  49.925  1.00  0.00     0.210 C 
ENDBRANCH  11  16
ENDBRANCH   4   6
ENDBRANCH   3   4
BRANCH   3  18
HETATM   18  C12 UNL     1      23.941   2.169  51.482  1.00  0.00     0.068 A 
HETATM   19  C13 UNL     1      24.808   2.854  50.766  1.00  0.00     0.068 A 
HETATM   20  C14 UNL     1      26.241   2.798  51.014  1.00  0.00     0.105 A 
HETATM   21  C16 UNL     1      26.748   2.049  51.981  1.00  0.00     0.124 A 
HETATM   22  C18 UNL     1      25.772   1.306  52.754  1.00  0.00     0.067 A 
HETATM   23  C19 UNL     1      24.997   0.531  53.590  1.00  0.00     0.099 A 
HETATM   24  N3  UNL     1      24.351   1.312  52.565  1.00  0.00    -0.217 NA
BRANCH  20  25
HETATM   25  O4  UNL     1      27.142   3.527  50.250  1.00  0.00    -0.353 OA
HETATM   26  C15 UNL     1      26.846   4.338  49.163  1.00  0.00     0.210 C 
ENDBRANCH  20  25
BRANCH  21  27
HETATM   27  O5  UNL     1      28.086   1.911  52.316  1.00  0.00    -0.351 OA
HETATM   28  C17 UNL     1      28.490   2.420  53.586  1.00  0.00     0.210 C 
ENDBRANCH  21  27
ENDBRANCH   3  18
TORSDOF 8
ENDMDL
MODEL 3
REMARK VINA RESULT:      -6.7      2.313      7.209
REMARK  8 active torsions:
REMARK  status: ('A' for Active; 'I' for Inactive)
REMARK    1  A    between atoms: C2_3  and  N2_4 
REMARK    2  A    between atoms: C2_3  and  C12_17 
REMARK    3  A    between atoms: N2_4  and  C3_5 
REMARK    4  A    between atoms: C5_7  and  O1_8 
REMARK    5  A    between atoms: C7_10  and  O2_11 
REMARK    6  A    between atoms: C10_14  and  O3_15 
REMARK    7  A    between atoms: C14_19  and  O4_20 
REMARK    8  A    between atoms: C16_22  and  O5_23 
ROOT
HETATM    1  C1  UNL     1      28.095   2.297  53.070  1.00  0.00     0.180 C 
HETATM    2  N1  UNL     1      27.517   2.661  51.812  1.00  0.00    -0.276 NA
HETATM    3  C2  UNL     1      26.388   2.290  51.340  1.00  0.00     0.145 C 
ENDROOT
BRANCH   3   4
HETATM    4  N2  UNL     1      26.103   2.838  50.043  1.00  0.00    -0.337 N 
HETATM    5  H4  UNL     1      26.053   2.205  49.191  1.00  0.00     0.167 HD
BRANCH   4   6
HETATM    6  C3  UNL     1      25.892   4.243  49.917  1.00  0.00     0.070 A 
HETATM    7  C4  UNL     1      24.756   4.757  50.548  1.00  0.00     0.072 A 
HETATM    8  C5  UNL     1      24.509   6.115  50.450  1.00  0.00     0.103 A 
HETATM    9  C7  UNL     1      25.369   6.939  49.744  1.00  0.00     0.104 A 
HETATM   10  C9  UNL     1      26.473   6.374  49.143  1.00  0.00     0.078 A 
HETATM   11  C10 UNL     1      26.781   5.028  49.200  1.00  0.00     0.097 A 
BRANCH   8  12
HETATM   12  O1  UNL     1      23.389   6.649  51.067  1.00  0.00    -0.353 OA
HETATM   13  C6  UNL     1      22.214   5.892  51.167  1.00  0.00     0.210 C 
ENDBRANCH   8  12
BRANCH   9  14
HETATM   14  O2  UNL     1      25.145   8.304  49.630  1.00  0.00    -0.353 OA
HETATM   15  C8  UNL     1      26.217   9.167  49.990  1.00  0.00     0.210 C 
ENDBRANCH   9  14
BRANCH  11  16
HETATM   16  O3  UNL     1      27.893   4.464  48.594  1.00  0.00    -0.354 OA
HETATM   17  C11 UNL     1      28.931   5.337  48.199  1.00  0.00     0.210 C 
ENDBRANCH  11  16
ENDBRANCH   4   6
ENDBRANCH   3   4
BRANCH   3  18
HETATM   18  C12 UNL     1      25.413   1.410  51.975  1.00  0.00     0.068 A 
HETATM   19  C13 UNL     1      24.143   1.745  52.073  1.00  0.00     0.068 A 
HETATM   20  C14 UNL     1      23.156   0.882  52.704  1.00  0.00     0.105 A 
HETATM   21  C16 UNL     1      23.489  -0.294  53.215  1.00  0.00     0.124 A 
HETATM   22  C18 UNL     1      24.892  -0.637  53.094  1.00  0.00     0.067 A 
HETATM   23  C19 UNL     1      26.180  -1.130  53.070  1.00  0.00     0.099 A 
HETATM   24  N3  UNL     1      25.917   0.162  52.488  1.00  0.00    -0.217 NA
BRANCH  20  25
HETATM   25  O4  UNL     1      21.820   1.248  52.799  1.00  0.00    -0.353 OA
HETATM   26  C15 UNL     1      21.251   2.438  52.365  1.00  0.00     0.210 C 
ENDBRANCH  20  25
BRANCH  21  27
HETATM   27  O5  UNL     1      22.648  -1.203  53.838  1.00  0.00    -0.351 OA
HETATM   28  C17 UNL     1      22.744  -1.306  55.257  1.00  0.00     0.210 C 
ENDBRANCH  21  27
ENDBRANCH   3  18
TORSDOF 8
ENDMDL
MODEL 4
REMARK VINA RESULT:      -6.6      2.689      6.051
REMARK  8 active torsions:
REMARK  status: ('A' for Active; 'I' for Inactive)
REMARK    1  A    between atoms: C2_3  and  N2_4 
REMARK    2  A    between atoms: C2_3  and  C12_17 
REMARK    3  A    between atoms: N2_4  and  C3_5 
REMARK    4  A    between atoms: C5_7  and  O1_8 
REMARK    5  A    between atoms: C7_10  and  O2_11 
REMARK    6  A    between atoms: C10_14  and  O3_15 
REMARK    7  A    between atoms: C14_19  and  O4_20 
REMARK    8  A    between atoms: C16_22  and  O5_23 
ROOT
HETATM    1  C1  UNL     1      22.566   4.768  52.150  1.00  0.00     0.180 C 
HETATM    2  N1  UNL     1      22.183   3.533  51.538  1.00  0.00    -0.276 NA
HETATM    3  C2  UNL     1      22.917   2.505  51.340  1.00  0.00     0.145 C 
ENDROOT
BRANCH   3   4
HETATM    4  N2  UNL     1      22.224   1.423  50.697  1.00  0.00    -0.337 N 
HETATM    5  H4  UNL     1      22.498   1.115  49.717  1.00  0.00     0.167 HD
BRANCH   4   6
HETATM    6  C3  UNL     1      21.160   0.774  51.392  1.00  0.00     0.070 A 
HETATM    7  C4  UNL     1      21.514   0.074  52.548  1.00  0.00     0.072 A 
HETATM    8  C5  UNL     1      20.516  -0.574  53.254  1.00  0.00     0.103 A 
HETATM    9  C7  UNL     1      19.202  -0.528  52.819  1.00  0.00     0.104 A 
HETATM   10  C9  UNL     1      18.914   0.177  51.671  1.00  0.00     0.078 A 
HETATM   11  C10 UNL     1      19.860   0.847  50.918  1.00  0.00     0.097 A 
BRANCH   8  12
HETATM   12  O1  UNL     1      20.840  -1.273  54.405  1.00  0.00    -0.353 OA
HETATM   13  C6  UNL     1      22.117  -1.145  54.969  1.00  0.00     0.210 C 
ENDBRANCH   8  12
BRANCH   9  14
HETATM   14  O2  UNL     1      18.181  -1.170  53.507  1.00  0.00    -0.353 OA
HETATM   15  C8  UNL     1      16.922  -1.266  52.853  1.00  0.00     0.210 C 
ENDBRANCH   9  14
BRANCH  11  16
HETATM   16  O3  UNL     1      19.567   1.556  49.763  1.00  0.00    -0.354 OA
HETATM   17  C11 UNL     1      18.241   2.015  49.601  1.00  0.00     0.210 C 
ENDBRANCH  11  16
ENDBRANCH   4   6
ENDBRANCH   3   4
BRANCH   3  18
HETATM   18  C12 UNL     1      24.322   2.342  51.698  1.00  0.00     0.068 A 
HETATM   19  C13 UNL     1      24.684   1.853  52.866  1.00  0.00     0.068 A 
HETATM   20  C14 UNL     1      26.080   1.684  53.241  1.00  0.00     0.105 A 
HETATM   21  C16 UNL     1      27.064   2.015  52.419  1.00  0.00     0.124 A 
HETATM   22  C18 UNL     1      26.637   2.550  51.140  1.00  0.00     0.067 A 
HETATM   23  C19 UNL     1      26.422   3.074  49.883  1.00  0.00     0.099 A 
HETATM   24  N3  UNL     1      25.285   2.745  50.706  1.00  0.00    -0.217 NA
BRANCH  20  25
HETATM   25  O4  UNL     1      26.445   1.167  54.477  1.00  0.00    -0.353 OA
HETATM   26  C15 UNL     1      26.134  -0.090  54.977  1.00  0.00     0.210 C 
ENDBRANCH  20  25
BRANCH  21  27
HETATM   27  O5  UNL     1      28.425   1.903  52.657  1.00  0.00    -0.351 OA
HETATM   28  C17 UNL     1      28.934   2.553  53.819  1.00  0.00     0.210 C 
ENDBRANCH  21  27
ENDBRANCH   3  18
TORSDOF 8
ENDMDL
MODEL 5
REMARK VINA RESULT:      -6.6      2.266      6.865
REMARK  8 active torsions:
REMARK  status: ('A' for Active; 'I' for Inactive)
REMARK    1  A    between atoms: C2_3  and  N2_4 
REMARK    2  A    between atoms: C2_3  and  C12_17 
REMARK    3  A    between atoms: N2_4  and  C3_5 
REMARK    4  A    between atoms: C5_7  and  O1_8 
REMARK    5  A    between atoms: C7_10  and  O2_11 
REMARK    6  A    between atoms: C10_14  and  O3_15 
REMARK    7  A    between atoms: C14_19  and  O4_20 
REMARK    8  A    between atoms: C16_22  and  O5_23 
ROOT
HETATM    1  C1  UNL     1      26.405   3.057  49.724  1.00  0.00     0.180 C 
HETATM    2  N1  UNL     1      25.522   3.449  50.779  1.00  0.00    -0.276 NA
HETATM    3  C2  UNL     1      25.489   2.992  51.973  1.00  0.00     0.145 C 
ENDROOT
BRANCH   3   4
HETATM    4  N2  UNL     1      24.476   3.601  52.790  1.00  0.00    -0.337 N 
HETATM    5  H4  UNL     1      24.743   4.290  53.555  1.00  0.00     0.167 HD
BRANCH   4   6
HETATM    6  C3  UNL     1      23.109   3.264  52.562  1.00  0.00     0.070 A 
HETATM    7  C4  UNL     1      22.748   1.938  52.818  1.00  0.00     0.072 A 
HETATM    8  C5  UNL     1      21.433   1.565  52.608  1.00  0.00     0.103 A 
HETATM    9  C7  UNL     1      20.502   2.485  52.155  1.00  0.00     0.104 A 
HETATM   10  C9  UNL     1      20.917   3.777  51.920  1.00  0.00     0.078 A 
HETATM   11  C10 UNL     1      22.213   4.220  52.109  1.00  0.00     0.097 A 
BRANCH   8  12
HETATM   12  O1  UNL     1      21.049   0.256  52.855  1.00  0.00    -0.353 OA
HETATM   13  C6  UNL     1      21.238  -0.303  54.126  1.00  0.00     0.210 C 
ENDBRANCH   8  12
BRANCH   9  14
HETATM   14  O2  UNL     1      19.176   2.136  51.936  1.00  0.00    -0.353 OA
HETATM   15  C8  UNL     1      18.337   3.124  51.349  1.00  0.00     0.210 C 
ENDBRANCH   9  14
BRANCH  11  16
HETATM   16  O3  UNL     1      22.627   5.521  51.872  1.00  0.00    -0.354 OA
HETATM   17  C11 UNL     1      22.842   5.900  50.528  1.00  0.00     0.210 C 
ENDBRANCH  11  16
ENDBRANCH   4   6
ENDBRANCH   3   4
BRANCH   3  18
HETATM   18  C12 UNL     1      26.351   1.966  52.549  1.00  0.00     0.068 A 
HETATM   19  C13 UNL     1      25.991   0.699  52.577  1.00  0.00     0.068 A 
HETATM   20  C14 UNL     1      26.836  -0.339  53.148  1.00  0.00     0.105 A 
HETATM   21  C16 UNL     1      28.020  -0.058  53.672  1.00  0.00     0.124 A 
HETATM   22  C18 UNL     1      28.391   1.343  53.628  1.00  0.00     0.067 A 
HETATM   23  C19 UNL     1      28.909   2.620  53.675  1.00  0.00     0.099 A 
HETATM   24  N3  UNL     1      27.610   2.415  53.084  1.00  0.00    -0.217 NA
BRANCH  20  25
HETATM   25  O4  UNL     1      26.444  -1.670  53.169  1.00  0.00    -0.353 OA
HETATM   26  C15 UNL     1      26.744  -2.641  52.224  1.00  0.00     0.210 C 
ENDBRANCH  20  25
BRANCH  21  27
HETATM   27  O5  UNL     1      28.914  -0.951  54.243  1.00  0.00    -0.351 OA
HETATM   28  C17 UNL     1      30.249  -0.938  53.742  1.00  0.00     0.210 C 
ENDBRANCH  21  27
ENDBRANCH   3  18
TORSDOF 8
ENDMDL
MODEL 6
REMARK VINA RESULT:      -6.6      2.321      6.929
REMARK  8 active torsions:
REMARK  status: ('A' for Active; 'I' for Inactive)
REMARK    1  A    between atoms: C2_3  and  N2_4 
REMARK    2  A    between atoms: C2_3  and  C12_17 
REMARK    3  A    between atoms: N2_4  and  C3_5 
REMARK    4  A    between atoms: C5_7  and  O1_8 
REMARK    5  A    between atoms: C7_10  and  O2_11 
REMARK    6  A    between atoms: C10_14  and  O3_15 
REMARK    7  A    between atoms: C14_19  and  O4_20 
REMARK    8  A    between atoms: C16_22  and  O5_23 
ROOT
HETATM    1  C1  UNL     1      28.015   2.338  52.902  1.00  0.00     0.180 C 
HETATM    2  N1  UNL     1      27.398   2.662  51.652  1.00  0.00    -0.276 NA
HETATM    3  C2  UNL     1      26.240   2.305  51.243  1.00  0.00     0.145 C 
ENDROOT
BRANCH   3   4
HETATM    4  N2  UNL     1      25.918   2.801  49.934  1.00  0.00    -0.337 N 
HETATM    5  H4  UNL     1      25.492   2.157  49.203  1.00  0.00     0.167 HD
BRANCH   4   6
HETATM    6  C3  UNL     1      26.182   4.170  49.629  1.00  0.00     0.070 A 
HETATM    7  C4  UNL     1      27.330   4.424  48.874  1.00  0.00     0.072 A 
HETATM    8  C5  UNL     1      27.628   5.738  48.557  1.00  0.00     0.103 A 
HETATM    9  C7  UNL     1      26.807   6.769  48.980  1.00  0.00     0.104 A 
HETATM   10  C9  UNL     1      25.689   6.456  49.723  1.00  0.00     0.078 A 
HETATM   11  C10 UNL     1      25.330   5.168  50.075  1.00  0.00     0.097 A 
BRANCH   8  12
HETATM   12  O1  UNL     1      28.760   6.017  47.808  1.00  0.00    -0.353 OA
HETATM   13  C6  UNL     1      30.022   6.019  48.418  1.00  0.00     0.210 C 
ENDBRANCH   8  12
BRANCH   9  14
HETATM   14  O2  UNL     1      27.083   8.095  48.677  1.00  0.00    -0.353 OA
HETATM   15  C8  UNL     1      27.480   8.935  49.753  1.00  0.00     0.210 C 
ENDBRANCH   9  14
BRANCH  11  16
HETATM   16  O3  UNL     1      24.205   4.857  50.821  1.00  0.00    -0.354 OA
HETATM   17  C11 UNL     1      23.648   5.883  51.616  1.00  0.00     0.210 C 
ENDBRANCH  11  16
ENDBRANCH   4   6
ENDBRANCH   3   4
BRANCH   3  18
HETATM   18  C12 UNL     1      25.267   1.485  51.957  1.00  0.00     0.068 A 
HETATM   19  C13 UNL     1      24.015   1.869  52.101  1.00  0.00     0.068 A 
HETATM   20  C14 UNL     1      23.030   1.066  52.810  1.00  0.00     0.105 A 
HETATM   21  C16 UNL     1      23.347  -0.101  53.350  1.00  0.00     0.124 A 
HETATM   22  C18 UNL     1      24.730  -0.499  53.177  1.00  0.00     0.067 A 
HETATM   23  C19 UNL     1      25.997  -1.038  53.113  1.00  0.00     0.099 A 
HETATM   24  N3  UNL     1      25.751   0.240  52.494  1.00  0.00    -0.217 NA
BRANCH  20  25
HETATM   25  O4  UNL     1      21.714   1.484  52.952  1.00  0.00    -0.353 OA
HETATM   26  C15 UNL     1      20.988   2.264  52.063  1.00  0.00     0.210 C 
ENDBRANCH  20  25
BRANCH  21  27
HETATM   27  O5  UNL     1      22.506  -0.955  54.046  1.00  0.00    -0.351 OA
HETATM   28  C17 UNL     1      22.952  -1.402  55.324  1.00  0.00     0.210 C 
ENDBRANCH  21  27
ENDBRANCH   3  18
TORSDOF 8
ENDMDL
MODEL 7
REMARK VINA RESULT:      -6.5      2.479      7.504
REMARK  8 active torsions:
REMARK  status: ('A' for Active; 'I' for Inactive)
REMARK    1  A    between atoms: C2_3  and  N2_4 
REMARK    2  A    between atoms: C2_3  and  C12_17 
REMARK    3  A    between atoms: N2_4  and  C3_5 
REMARK    4  A    between atoms: C5_7  and  O1_8 
REMARK    5  A    between atoms: C7_10  and  O2_11 
REMARK    6  A    between atoms: C10_14  and  O3_15 
REMARK    7  A    between atoms: C14_19  and  O4_20 
REMARK    8  A    between atoms: C16_22  and  O5_23 
ROOT
HETATM    1  C1  UNL     1      26.320   2.925  49.934  1.00  0.00     0.180 C 
HETATM    2  N1  UNL     1      25.431   3.781  50.658  1.00  0.00    -0.276 NA
HETATM    3  C2  UNL     1      24.877   3.547  51.787  1.00  0.00     0.145 C 
ENDROOT
BRANCH   3   4
HETATM    4  N2  UNL     1      24.035   4.619  52.243  1.00  0.00    -0.337 N 
HETATM    5  H4  UNL     1      24.381   5.296  52.985  1.00  0.00     0.167 HD
BRANCH   4   6
HETATM    6  C3  UNL     1      22.728   4.755  51.687  1.00  0.00     0.070 A 
HETATM    7  C4  UNL     1      21.741   3.919  52.216  1.00  0.00     0.072 A 
HETATM    8  C5  UNL     1      20.459   4.015  51.705  1.00  0.00     0.103 A 
HETATM    9  C7  UNL     1      20.167   4.916  50.695  1.00  0.00     0.104 A 
HETATM   10  C9  UNL     1      21.183   5.713  50.213  1.00  0.00     0.078 A 
HETATM   11  C10 UNL     1      22.484   5.672  50.676  1.00  0.00     0.097 A 
BRANCH   8  12
HETATM   12  O1  UNL     1      19.462   3.198  52.213  1.00  0.00    -0.353 OA
HETATM   13  C6  UNL     1      19.464   1.826  51.928  1.00  0.00     0.210 C 
ENDBRANCH   8  12
BRANCH   9  14
HETATM   14  O2  UNL     1      18.890   5.032  50.164  1.00  0.00    -0.353 OA
HETATM   15  C8  UNL     1      18.635   4.355  48.940  1.00  0.00     0.210 C 
ENDBRANCH   9  14
BRANCH  11  16
HETATM   16  O3  UNL     1      23.503   6.475  50.189  1.00  0.00    -0.354 OA
HETATM   17  C11 UNL     1      23.581   7.797  50.683  1.00  0.00     0.210 C 
ENDBRANCH  11  16
ENDBRANCH   4   6
ENDBRANCH   3   4
BRANCH   3  18
HETATM   18  C12 UNL     1      25.025   2.353  52.612  1.00  0.00     0.068 A 
HETATM   19  C13 UNL     1      26.068   2.182  53.397  1.00  0.00     0.068 A 
HETATM   20  C14 UNL     1      26.234   0.998  54.226  1.00  0.00     0.105 A 
HETATM   21  C16 UNL     1      25.335   0.025  54.233  1.00  0.00     0.124 A 
HETATM   22  C18 UNL     1      24.197   0.239  53.359  1.00  0.00     0.067 A 
HETATM   23  C19 UNL     1      23.051   0.269  52.593  1.00  0.00     0.099 A 
HETATM   24  N3  UNL     1      23.971   1.377  52.517  1.00  0.00    -0.217 NA
BRANCH  20  25
HETATM   25  O4  UNL     1      27.339   0.832  55.050  1.00  0.00    -0.353 OA
HETATM   26  C15 UNL     1      28.582   0.333  54.684  1.00  0.00     0.210 C 
ENDBRANCH  20  25
BRANCH  21  27
HETATM   27  O5  UNL     1      25.376  -1.146  54.973  1.00  0.00    -0.351 OA
HETATM   28  C17 UNL     1      24.231  -1.451  55.765  1.00  0.00     0.210 C 
ENDBRANCH  21  27
ENDBRANCH   3  18
TORSDOF 8
ENDMDL
MODEL 8
REMARK VINA RESULT:      -6.4      3.044      7.113
REMARK  8 active torsions:
REMARK  status: ('A' for Active; 'I' for Inactive)
REMARK    1  A    between atoms: C2_3  and  N2_4 
REMARK    2  A    between atoms: C2_3  and  C12_17 
REMARK    3  A    between atoms: N2_4  and  C3_5 
REMARK    4  A    between atoms: C5_7  and  O1_8 
REMARK    5  A    between atoms: C7_10  and  O2_11 
REMARK    6  A    between atoms: C10_14  and  O3_15 
REMARK    7  A    between atoms: C14_19  and  O4_20 
REMARK    8  A    between atoms: C16_22  and  O5_23 
ROOT
HETATM    1  C1  UNL     1      23.412   4.221  52.709  1.00  0.00     0.180 C 
HETATM    2  N1  UNL     1      22.969   3.224  51.782  1.00  0.00    -0.276 NA
HETATM    3  C2  UNL     1      23.411   2.031  51.657  1.00  0.00     0.145 C 
ENDROOT
BRANCH   3   4
HETATM    4  N2  UNL     1      22.749   1.281  50.626  1.00  0.00    -0.337 N 
HETATM    5  H4  UNL     1      23.287   0.949  49.772  1.00  0.00     0.167 HD
BRANCH   4   6
HETATM    6  C3  UNL     1      21.358   0.995  50.764  1.00  0.00     0.070 A 
HETATM    7  C4  UNL     1      20.984   0.283  51.907  1.00  0.00     0.072 A 
HETATM    8  C5  UNL     1      19.645  -0.020  52.081  1.00  0.00     0.103 A 
HETATM    9  C7  UNL     1      18.705   0.374  51.144  1.00  0.00     0.104 A 
HETATM   10  C9  UNL     1      19.134   1.073  50.037  1.00  0.00     0.078 A 
HETATM   11  C10 UNL     1      20.453   1.410  49.799  1.00  0.00     0.097 A 
BRANCH   8  12
HETATM   12  O1  UNL     1      19.248  -0.724  53.207  1.00  0.00    -0.353 OA
HETATM   13  C6  UNL     1      20.204  -1.362  54.009  1.00  0.00     0.210 C 
ENDBRANCH   8  12
BRANCH   9  14
HETATM   14  O2  UNL     1      17.356   0.083  51.295  1.00  0.00    -0.353 OA
HETATM   15  C8  UNL     1      16.494   1.166  51.622  1.00  0.00     0.210 C 
ENDBRANCH   9  14
BRANCH  11  16
HETATM   16  O3  UNL     1      20.881   2.114  48.685  1.00  0.00    -0.354 OA
HETATM   17  C11 UNL     1      20.827   3.524  48.746  1.00  0.00     0.210 C 
ENDBRANCH  11  16
ENDBRANCH   4   6
ENDBRANCH   3   4
BRANCH   3  18
HETATM   18  C12 UNL     1      24.469   1.396  52.435  1.00  0.00     0.068 A 
HETATM   19  C13 UNL     1      24.207   0.454  53.317  1.00  0.00     0.068 A 
HETATM   20  C14 UNL     1      25.248  -0.190  54.103  1.00  0.00     0.105 A 
HETATM   21  C16 UNL     1      26.523   0.141  53.969  1.00  0.00     0.124 A 
HETATM   22  C18 UNL     1      26.784   1.180  52.992  1.00  0.00     0.067 A 
HETATM   23  C19 UNL     1      27.220   2.148  52.112  1.00  0.00     0.099 A 
HETATM   24  N3  UNL     1      25.811   1.857  52.186  1.00  0.00    -0.217 NA
BRANCH  20  25
HETATM   25  O4  UNL     1      24.955  -1.183  55.029  1.00  0.00    -0.353 OA
HETATM   26  C15 UNL     1      23.722  -1.439  55.612  1.00  0.00     0.210 C 
ENDBRANCH  20  25
BRANCH  21  27
HETATM   27  O5  UNL     1      27.602  -0.394  54.654  1.00  0.00    -0.351 OA
HETATM   28  C17 UNL     1      28.776   0.411  54.743  1.00  0.00     0.210 C 
ENDBRANCH  21  27
ENDBRANCH   3  18
TORSDOF 8
ENDMDL
MODEL 9
REMARK VINA RESULT:      -6.4      2.312      6.191
REMARK  8 active torsions:
REMARK  status: ('A' for Active; 'I' for Inactive)
REMARK    1  A    between atoms: C2_3  and  N2_4 
REMARK    2  A    between atoms: C2_3  and  C12_17 
REMARK    3  A    between atoms: N2_4  and  C3_5 
REMARK    4  A    between atoms: C5_7  and  O1_8 
REMARK    5  A    between atoms: C7_10  and  O2_11 
REMARK    6  A    between atoms: C10_14  and  O3_15 
REMARK    7  A    between atoms: C14_19  and  O4_20 
REMARK    8  A    between atoms: C16_22  and  O5_23 
ROOT
HETATM    1  C1  UNL     1      21.913   1.566  48.487  1.00  0.00     0.180 C 
HETATM    2  N1  UNL     1      22.609   2.359  49.454  1.00  0.00    -0.276 NA
HETATM    3  C2  UNL     1      22.469   2.331  50.725  1.00  0.00     0.145 C 
ENDROOT
BRANCH   3   4
HETATM    4  N2  UNL     1      23.322   3.260  51.414  1.00  0.00    -0.337 N 
HETATM    5  H4  UNL     1      22.971   4.233  51.659  1.00  0.00     0.167 HD
BRANCH   4   6
HETATM    6  C3  UNL     1      24.647   2.858  51.759  1.00  0.00     0.070 A 
HETATM    7  C4  UNL     1      24.808   2.280  53.021  1.00  0.00     0.072 A 
HETATM    8  C5  UNL     1      26.076   1.877  53.400  1.00  0.00     0.103 A 
HETATM    9  C7  UNL     1      27.154   2.045  52.547  1.00  0.00     0.104 A 
HETATM   10  C9  UNL     1      26.933   2.621  51.315  1.00  0.00     0.078 A 
HETATM   11  C10 UNL     1      25.695   3.046  50.871  1.00  0.00     0.097 A 
BRANCH   8  12
HETATM   12  O1  UNL     1      26.263   1.301  54.646  1.00  0.00    -0.353 OA
HETATM   13  C6  UNL     1      26.068  -0.077  54.819  1.00  0.00     0.210 C 
ENDBRANCH   8  12
BRANCH   9  14
HETATM   14  O2  UNL     1      28.436   1.650  52.902  1.00  0.00    -0.353 OA
HETATM   15  C8  UNL     1      29.157   2.507  53.779  1.00  0.00     0.210 C 
ENDBRANCH   9  14
BRANCH  11  16
HETATM   16  O3  UNL     1      25.476   3.625  49.631  1.00  0.00    -0.354 OA
HETATM   17  C11 UNL     1      26.133   4.845  49.358  1.00  0.00     0.210 C 
ENDBRANCH  11  16
ENDBRANCH   4   6
ENDBRANCH   3   4
BRANCH   3  18
HETATM   18  C12 UNL     1      21.572   1.478  51.495  1.00  0.00     0.068 A 
HETATM   19  C13 UNL     1      22.022   0.460  52.199  1.00  0.00     0.068 A 
HETATM   20  C14 UNL     1      21.143  -0.403  52.973  1.00  0.00     0.105 A 
HETATM   21  C16 UNL     1      19.833  -0.205  53.008  1.00  0.00     0.124 A 
HETATM   22  C18 UNL     1      19.364   0.921  52.225  1.00  0.00     0.067 A 
HETATM   23  C19 UNL     1      18.740   1.943  51.543  1.00  0.00     0.099 A 
HETATM   24  N3  UNL     1      20.171   1.810  51.441  1.00  0.00    -0.217 NA
BRANCH  20  25
HETATM   25  O4  UNL     1      21.633  -1.472  53.710  1.00  0.00    -0.353 OA
HETATM   26  C15 UNL     1      22.320  -1.406  54.914  1.00  0.00     0.210 C 
ENDBRANCH  20  25
BRANCH  21  27
HETATM   27  O5  UNL     1      18.894  -0.952  53.703  1.00  0.00    -0.351 OA
HETATM   28  C17 UNL     1      17.731  -1.357  52.985  1.00  0.00     0.210 C 
ENDBRANCH  21  27
ENDBRANCH   3  18
TORSDOF 8
ENDMDL
