MODEL 1
REMARK VINA RESULT:      -8.1      0.000      0.000
REMARK  3 active torsions:
REMARK  status: ('A' for Active; 'I' for Inactive)
REMARK    1  A    between atoms: C2_2  and  O1_3 
REMARK    2  A    between atoms: C2_2  and  C3_4 
REMARK    3  A    between atoms: C11_15  and  C12_16 
ROOT
HETATM    1  C3  UNL     1      22.660   0.057  53.673  1.00  0.00     0.079 C 
HETATM    2  C4  UNL     1      23.907  -0.401  53.860  1.00  0.00     0.020 C 
HETATM    3  C5  UNL     1      25.338  -0.488  53.692  1.00  0.00     0.087 C 
HETATM    4  C6  UNL     1      26.374   0.037  53.065  1.00  0.00     0.102 C 
HETATM    5  F1  UNL     1      26.932  -0.965  53.832  1.00  0.00    -0.210 F 
HETATM    6  C7  UNL     1      27.151   0.907  52.176  1.00  0.00     0.035 C 
HETATM    7  C8  UNL     1      26.327   1.736  51.581  1.00  0.00    -0.018 C 
HETATM    8  C9  UNL     1      25.345   2.623  50.961  1.00  0.00     0.083 C 
HETATM    9  C10 UNL     1      23.930   2.334  51.415  1.00  0.00     0.038 C 
HETATM   10  N1  UNL     1      23.304   2.347  52.542  1.00  0.00    -0.180 NA
HETATM   11  N2  UNL     1      22.728   1.101  52.723  1.00  0.00    -0.258 N 
HETATM   12  C11 UNL     1      22.021   0.911  51.508  1.00  0.00     0.149 C 
HETATM   13  C18 UNL     1      22.756   1.918  50.605  1.00  0.00     0.089 C 
ENDROOT
BRANCH  12  14
HETATM   14  C12 UNL     1      20.585   1.304  51.530  1.00  0.00    -0.033 A 
HETATM   15  C13 UNL     1      19.643   0.276  51.426  1.00  0.00     0.011 A 
HETATM   16  C14 UNL     1      18.298   0.517  51.418  1.00  0.00     0.024 A 
HETATM   17  C15 UNL     1      17.884   1.839  51.520  1.00  0.00     0.034 A 
HETATM   18 CL1  UNL     1      16.170   2.162  51.510  1.00  0.00    -0.084 Cl
HETATM   19  C16 UNL     1      18.830   2.854  51.622  1.00  0.00     0.024 A 
HETATM   20  C17 UNL     1      20.197   2.620  51.630  1.00  0.00     0.011 A 
ENDBRANCH  12  14
BRANCH   1  21
HETATM   21  C2  UNL     1      21.606  -0.557  54.386  1.00  0.00     0.071 C 
HETATM   22  C1  UNL     1      21.631  -1.842  54.502  1.00  0.00     0.073 C 
BRANCH  21  23
HETATM   23  O1  UNL     1      20.577   0.177  54.948  1.00  0.00    -0.363 OA
HETATM   24  H3  UNL     1      20.248  -0.174  55.857  1.00  0.00     0.217 HD
ENDBRANCH  21  23
ENDBRANCH   1  21
TORSDOF 3
ENDMDL
MODEL 2
REMARK VINA RESULT:      -7.9      3.264      5.466
REMARK  3 active torsions:
REMARK  status: ('A' for Active; 'I' for Inactive)
REMARK    1  A    between atoms: C2_2  and  O1_3 
REMARK    2  A    between atoms: C2_2  and  C3_4 
REMARK    3  A    between atoms: C11_15  and  C12_16 
ROOT
HETATM    1  C3  UNL     1      24.610   0.966  52.711  1.00  0.00     0.079 C 
HETATM    2  C4  UNL     1      24.225   0.040  53.602  1.00  0.00     0.020 C 
HETATM    3  C5  UNL     1      23.324  -0.830  54.320  1.00  0.00     0.087 C 
HETATM    4  C6  UNL     1      22.065  -1.206  54.432  1.00  0.00     0.102 C 
HETATM    5  F1  UNL     1      22.715  -1.963  55.385  1.00  0.00    -0.210 F 
HETATM    6  C7  UNL     1      20.620  -1.276  54.188  1.00  0.00     0.035 C 
HETATM    7  C8  UNL     1      20.317  -0.424  53.238  1.00  0.00    -0.018 C 
HETATM    8  C9  UNL     1      20.063   0.546  52.175  1.00  0.00     0.083 C 
HETATM    9  C10 UNL     1      21.317   1.269  51.732  1.00  0.00     0.038 C 
HETATM   10  N1  UNL     1      22.445   0.921  51.212  1.00  0.00    -0.180 NA
HETATM   11  N2  UNL     1      23.455   1.405  52.026  1.00  0.00    -0.258 N 
HETATM   12  C11 UNL     1      23.114   2.776  52.155  1.00  0.00     0.149 C 
HETATM   13  C18 UNL     1      21.623   2.722  51.775  1.00  0.00     0.089 C 
ENDROOT
BRANCH  12  14
HETATM   14  C12 UNL     1      23.780   3.700  51.197  1.00  0.00    -0.033 A 
HETATM   15  C13 UNL     1      23.778   5.060  51.519  1.00  0.00     0.011 A 
HETATM   16  C14 UNL     1      24.345   6.003  50.708  1.00  0.00     0.024 A 
HETATM   17  C15 UNL     1      24.936   5.564  49.532  1.00  0.00     0.034 A 
HETATM   18 CL1  UNL     1      25.663   6.755  48.486  1.00  0.00    -0.084 Cl
HETATM   19  C16 UNL     1      24.933   4.207  49.221  1.00  0.00     0.024 A 
HETATM   20  C17 UNL     1      24.360   3.243  50.036  1.00  0.00     0.011 A 
ENDBRANCH  12  14
BRANCH   1  21
HETATM   21  C2  UNL     1      25.980   1.310  52.651  1.00  0.00     0.071 C 
HETATM   22  C1  UNL     1      26.776   0.493  52.046  1.00  0.00     0.073 C 
BRANCH  21  23
HETATM   23  O1  UNL     1      26.467   2.476  53.211  1.00  0.00    -0.363 OA
HETATM   24  H3  UNL     1      27.494   2.549  53.223  1.00  0.00     0.217 HD
ENDBRANCH  21  23
ENDBRANCH   1  21
TORSDOF 3
ENDMDL
MODEL 3
REMARK VINA RESULT:      -7.8      3.670      5.857
REMARK  3 active torsions:
REMARK  status: ('A' for Active; 'I' for Inactive)
REMARK    1  A    between atoms: C2_2  and  O1_3 
REMARK    2  A    between atoms: C2_2  and  C3_4 
REMARK    3  A    between atoms: C11_15  and  C12_16 
ROOT
HETATM    1  C3  UNL     1      23.275   2.050  51.515  1.00  0.00     0.079 C 
HETATM    2  C4  UNL     1      22.854   0.944  52.146  1.00  0.00     0.020 C 
HETATM    3  C5  UNL     1      22.898  -0.171  53.062  1.00  0.00     0.087 C 
HETATM    4  C6  UNL     1      23.630  -0.768  53.983  1.00  0.00     0.102 C 
HETATM    5  F1  UNL     1      22.494  -1.548  53.915  1.00  0.00    -0.210 F 
HETATM    6  C7  UNL     1      24.756  -1.052  54.880  1.00  0.00     0.035 C 
HETATM    7  C8  UNL     1      25.679  -0.139  54.689  1.00  0.00    -0.018 C 
HETATM    8  C9  UNL     1      26.656   0.912  54.417  1.00  0.00     0.083 C 
HETATM    9  C10 UNL     1      26.198   1.871  53.338  1.00  0.00     0.038 C 
HETATM   10  N1  UNL     1      25.207   2.684  53.189  1.00  0.00    -0.180 NA
HETATM   11  N2  UNL     1      24.564   2.356  52.008  1.00  0.00    -0.258 N 
HETATM   12  C11 UNL     1      25.630   2.341  51.073  1.00  0.00     0.149 C 
HETATM   13  C18 UNL     1      26.826   2.171  52.026  1.00  0.00     0.089 C 
ENDROOT
BRANCH  12  14
HETATM   14  C12 UNL     1      25.844   3.606  50.317  1.00  0.00    -0.033 A 
HETATM   15  C13 UNL     1      26.940   3.650  49.450  1.00  0.00     0.011 A 
HETATM   16  C14 UNL     1      27.245   4.763  48.717  1.00  0.00     0.024 A 
HETATM   17  C15 UNL     1      26.420   5.870  48.859  1.00  0.00     0.034 A 
HETATM   18 CL1  UNL     1      26.797   7.297  47.931  1.00  0.00    -0.084 Cl
HETATM   19  C16 UNL     1      25.332   5.815  49.725  1.00  0.00     0.024 A 
HETATM   20  C17 UNL     1      25.014   4.691  50.474  1.00  0.00     0.011 A 
ENDBRANCH  12  14
BRANCH   1  21
HETATM   21  C2  UNL     1      22.429   2.632  50.545  1.00  0.00     0.071 C 
HETATM   22  C1  UNL     1      22.394   2.086  49.376  1.00  0.00     0.073 C 
BRANCH  21  23
HETATM   23  O1  UNL     1      21.658   3.747  50.820  1.00  0.00    -0.363 OA
HETATM   24  H3  UNL     1      21.030   4.032  50.057  1.00  0.00     0.217 HD
ENDBRANCH  21  23
ENDBRANCH   1  21
TORSDOF 3
ENDMDL
MODEL 4
REMARK VINA RESULT:      -7.6      9.106     11.590
REMARK  3 active torsions:
REMARK  status: ('A' for Active; 'I' for Inactive)
REMARK    1  A    between atoms: C2_2  and  O1_3 
REMARK    2  A    between atoms: C2_2  and  C3_4 
REMARK    3  A    between atoms: C11_15  and  C12_16 
ROOT
HETATM    1  C3  UNL     1      31.563   7.116  48.660  1.00  0.00     0.079 C 
HETATM    2  C4  UNL     1      32.665   7.767  48.260  1.00  0.00     0.020 C 
HETATM    3  C5  UNL     1      33.460   8.850  47.732  1.00  0.00     0.087 C 
HETATM    4  C6  UNL     1      33.409  10.083  47.265  1.00  0.00     0.102 C 
HETATM    5  F1  UNL     1      34.751   9.766  47.199  1.00  0.00    -0.210 F 
HETATM    6  C7  UNL     1      32.859  11.374  46.836  1.00  0.00     0.035 C 
HETATM    7  C8  UNL     1      31.559  11.349  47.009  1.00  0.00    -0.018 C 
HETATM    8  C9  UNL     1      30.119  11.242  47.232  1.00  0.00     0.083 C 
HETATM    9  C10 UNL     1      29.712   9.890  47.780  1.00  0.00     0.038 C 
HETATM   10  N1  UNL     1      29.977   9.211  48.844  1.00  0.00    -0.180 NA
HETATM   11  N2  UNL     1      30.461   7.976  48.449  1.00  0.00    -0.258 N 
HETATM   12  C11 UNL     1      29.465   7.533  47.542  1.00  0.00     0.149 C 
HETATM   13  C18 UNL     1      28.803   8.877  47.188  1.00  0.00     0.089 C 
ENDROOT
BRANCH  12  14
HETATM   14  C12 UNL     1      28.408   6.659  48.120  1.00  0.00    -0.033 A 
HETATM   15  C13 UNL     1      27.243   7.285  48.572  1.00  0.00     0.011 A 
HETATM   16  C14 UNL     1      26.211   6.587  49.136  1.00  0.00     0.024 A 
HETATM   17  C15 UNL     1      26.355   5.211  49.248  1.00  0.00     0.034 A 
HETATM   18 CL1  UNL     1      25.048   4.307  49.966  1.00  0.00    -0.084 Cl
HETATM   19  C16 UNL     1      27.519   4.598  48.794  1.00  0.00     0.024 A 
HETATM   20  C17 UNL     1      28.572   5.297  48.222  1.00  0.00     0.011 A 
ENDBRANCH  12  14
BRANCH   1  21
HETATM   21  C2  UNL     1      31.703   5.799  49.153  1.00  0.00     0.071 C 
HETATM   22  C1  UNL     1      32.194   4.911  48.356  1.00  0.00     0.073 C 
BRANCH  21  23
HETATM   23  O1  UNL     1      31.334   5.456  50.441  1.00  0.00    -0.363 OA
HETATM   24  H3  UNL     1      31.731   6.059  51.175  1.00  0.00     0.217 HD
ENDBRANCH  21  23
ENDBRANCH   1  21
TORSDOF 3
ENDMDL
MODEL 5
REMARK VINA RESULT:      -7.6      3.777      5.716
REMARK  3 active torsions:
REMARK  status: ('A' for Active; 'I' for Inactive)
REMARK    1  A    between atoms: C2_2  and  O1_3 
REMARK    2  A    between atoms: C2_2  and  C3_4 
REMARK    3  A    between atoms: C11_15  and  C12_16 
ROOT
HETATM    1  C3  UNL     1      25.222   2.420  51.389  1.00  0.00     0.079 C 
HETATM    2  C4  UNL     1      25.268   1.347  52.192  1.00  0.00     0.020 C 
HETATM    3  C5  UNL     1      24.772   0.306  53.062  1.00  0.00     0.087 C 
HETATM    4  C6  UNL     1      23.685  -0.193  53.618  1.00  0.00     0.102 C 
HETATM    5  F1  UNL     1      24.693  -1.016  54.079  1.00  0.00    -0.210 F 
HETATM    6  C7  UNL     1      22.274  -0.358  53.982  1.00  0.00     0.035 C 
HETATM    7  C8  UNL     1      21.581   0.589  53.396  1.00  0.00    -0.018 C 
HETATM    8  C9  UNL     1      20.881   1.672  52.710  1.00  0.00     0.083 C 
HETATM    9  C10 UNL     1      21.817   2.561  51.917  1.00  0.00     0.038 C 
HETATM   10  N1  UNL     1      22.629   2.393  50.929  1.00  0.00    -0.180 NA
HETATM   11  N2  UNL     1      23.876   2.846  51.324  1.00  0.00    -0.258 N 
HETATM   12  C11 UNL     1      23.590   4.148  51.807  1.00  0.00     0.149 C 
HETATM   13  C18 UNL     1      22.080   4.015  52.071  1.00  0.00     0.089 C 
ENDROOT
BRANCH  12  14
HETATM   14  C12 UNL     1      23.771   5.255  50.828  1.00  0.00    -0.033 A 
HETATM   15  C13 UNL     1      23.355   5.016  49.515  1.00  0.00     0.011 A 
HETATM   16  C14 UNL     1      23.486   5.951  48.527  1.00  0.00     0.024 A 
HETATM   17  C15 UNL     1      24.054   7.170  48.870  1.00  0.00     0.034 A 
HETATM   18 CL1  UNL     1      24.228   8.373  47.620  1.00  0.00    -0.084 Cl
HETATM   19  C16 UNL     1      24.465   7.397  50.180  1.00  0.00     0.024 A 
HETATM   20  C17 UNL     1      24.338   6.455  51.190  1.00  0.00     0.011 A 
ENDBRANCH  12  14
BRANCH   1  21
HETATM   21  C2  UNL     1      26.431   2.891  50.829  1.00  0.00     0.071 C 
HETATM   22  C1  UNL     1      26.441   3.158  49.566  1.00  0.00     0.073 C 
BRANCH  21  23
HETATM   23  O1  UNL     1      27.571   3.068  51.591  1.00  0.00    -0.363 OA
HETATM   24  H3  UNL     1      28.453   2.907  51.086  1.00  0.00     0.217 HD
ENDBRANCH  21  23
ENDBRANCH   1  21
TORSDOF 3
ENDMDL
MODEL 6
REMARK VINA RESULT:      -7.6      3.945      6.005
REMARK  3 active torsions:
REMARK  status: ('A' for Active; 'I' for Inactive)
REMARK    1  A    between atoms: C2_2  and  O1_3 
REMARK    2  A    between atoms: C2_2  and  C3_4 
REMARK    3  A    between atoms: C11_15  and  C12_16 
ROOT
HETATM    1  C3  UNL     1      23.294   3.540  51.757  1.00  0.00     0.079 C 
HETATM    2  C4  UNL     1      22.908   2.463  52.457  1.00  0.00     0.020 C 
HETATM    3  C5  UNL     1      23.018   1.169  53.087  1.00  0.00     0.087 C 
HETATM    4  C6  UNL     1      23.835   0.159  53.316  1.00  0.00     0.102 C 
HETATM    5  F1  UNL     1      22.663  -0.224  53.935  1.00  0.00    -0.210 F 
HETATM    6  C7  UNL     1      25.049  -0.665  53.297  1.00  0.00     0.035 C 
HETATM    7  C8  UNL     1      25.972  -0.027  52.616  1.00  0.00    -0.018 C 
HETATM    8  C9  UNL     1      26.944   0.745  51.847  1.00  0.00     0.083 C 
HETATM    9  C10 UNL     1      26.379   2.056  51.340  1.00  0.00     0.038 C 
HETATM   10  N1  UNL     1      25.891   3.118  51.884  1.00  0.00    -0.180 NA
HETATM   11  N2  UNL     1      24.630   3.328  51.350  1.00  0.00    -0.258 N 
HETATM   12  C11 UNL     1      24.878   3.281  49.955  1.00  0.00     0.149 C 
HETATM   13  C18 UNL     1      26.219   2.526  49.941  1.00  0.00     0.089 C 
ENDROOT
BRANCH  12  14
HETATM   14  C12 UNL     1      25.105   4.597  49.295  1.00  0.00    -0.033 A 
HETATM   15  C13 UNL     1      26.427   5.044  49.207  1.00  0.00     0.011 A 
HETATM   16  C14 UNL     1      26.755   6.242  48.638  1.00  0.00     0.024 A 
HETATM   17  C15 UNL     1      25.719   7.019  48.138  1.00  0.00     0.034 A 
HETATM   18 CL1  UNL     1      26.123   8.551  47.410  1.00  0.00    -0.084 Cl
HETATM   19  C16 UNL     1      24.407   6.564  48.231  1.00  0.00     0.024 A 
HETATM   20  C17 UNL     1      24.063   5.351  48.808  1.00  0.00     0.011 A 
ENDBRANCH  12  14
BRANCH   1  21
HETATM   21  C2  UNL     1      22.360   4.582  51.560  1.00  0.00     0.071 C 
HETATM   22  C1  UNL     1      21.247   4.286  50.977  1.00  0.00     0.073 C 
BRANCH  21  23
HETATM   23  O1  UNL     1      22.611   5.879  51.971  1.00  0.00    -0.363 OA
HETATM   24  H3  UNL     1      23.608   6.112  52.067  1.00  0.00     0.217 HD
ENDBRANCH  21  23
ENDBRANCH   1  21
TORSDOF 3
ENDMDL
MODEL 7
REMARK VINA RESULT:      -7.6      3.919      5.718
REMARK  3 active torsions:
REMARK  status: ('A' for Active; 'I' for Inactive)
REMARK    1  A    between atoms: C2_2  and  O1_3 
REMARK    2  A    between atoms: C2_2  and  C3_4 
REMARK    3  A    between atoms: C11_15  and  C12_16 
ROOT
HETATM    1  C3  UNL     1      25.753   3.332  50.478  1.00  0.00     0.079 C 
HETATM    2  C4  UNL     1      26.444   2.282  50.945  1.00  0.00     0.020 C 
HETATM    3  C5  UNL     1      26.690   1.062  51.676  1.00  0.00     0.087 C 
HETATM    4  C6  UNL     1      26.136   0.157  52.461  1.00  0.00     0.102 C 
HETATM    5  F1  UNL     1      27.437  -0.284  52.325  1.00  0.00    -0.210 F 
HETATM    6  C7  UNL     1      25.124  -0.537  53.266  1.00  0.00     0.035 C 
HETATM    7  C8  UNL     1      24.005   0.144  53.202  1.00  0.00    -0.018 C 
HETATM    8  C9  UNL     1      22.797   0.958  53.081  1.00  0.00     0.083 C 
HETATM    9  C10 UNL     1      23.008   2.189  52.225  1.00  0.00     0.038 C 
HETATM   10  N1  UNL     1      23.341   2.412  50.999  1.00  0.00    -0.180 NA
HETATM   11  N2  UNL     1      24.444   3.248  51.004  1.00  0.00    -0.258 N 
HETATM   12  C11 UNL     1      24.018   4.312  51.839  1.00  0.00     0.149 C 
HETATM   13  C18 UNL     1      22.870   3.621  52.597  1.00  0.00     0.089 C 
ENDROOT
BRANCH  12  14
HETATM   14  C12 UNL     1      23.438   5.490  51.138  1.00  0.00    -0.033 A 
HETATM   15  C13 UNL     1      24.090   6.715  51.307  1.00  0.00     0.011 A 
HETATM   16  C14 UNL     1      23.640   7.867  50.725  1.00  0.00     0.024 A 
HETATM   17  C15 UNL     1      22.494   7.786  49.946  1.00  0.00     0.034 A 
HETATM   18 CL1  UNL     1      21.907   9.248  49.198  1.00  0.00    -0.084 Cl
HETATM   19  C16 UNL     1      21.853   6.561  49.785  1.00  0.00     0.024 A 
HETATM   20  C17 UNL     1      22.300   5.387  50.371  1.00  0.00     0.011 A 
ENDBRANCH  12  14
BRANCH   1  21
HETATM   21  C2  UNL     1      26.418   4.254  49.639  1.00  0.00     0.071 C 
HETATM   22  C1  UNL     1      25.703   4.918  48.794  1.00  0.00     0.073 C 
BRANCH  21  23
HETATM   23  O1  UNL     1      27.785   4.452  49.707  1.00  0.00    -0.363 OA
HETATM   24  H3  UNL     1      28.082   5.155  50.398  1.00  0.00     0.217 HD
ENDBRANCH  21  23
ENDBRANCH   1  21
TORSDOF 3
ENDMDL
MODEL 8
REMARK VINA RESULT:      -7.5      4.248      6.782
REMARK  3 active torsions:
REMARK  status: ('A' for Active; 'I' for Inactive)
REMARK    1  A    between atoms: C2_2  and  O1_3 
REMARK    2  A    between atoms: C2_2  and  C3_4 
REMARK    3  A    between atoms: C11_15  and  C12_16 
ROOT
HETATM    1  C3  UNL     1      22.933   3.285  50.064  1.00  0.00     0.079 C 
HETATM    2  C4  UNL     1      22.178   2.237  50.426  1.00  0.00     0.020 C 
HETATM    3  C5  UNL     1      21.800   1.052  51.159  1.00  0.00     0.087 C 
HETATM    4  C6  UNL     1      22.175   0.222  52.113  1.00  0.00     0.102 C 
HETATM    5  F1  UNL     1      20.960  -0.286  51.700  1.00  0.00    -0.210 F 
HETATM    6  C7  UNL     1      22.989  -0.385  53.172  1.00  0.00     0.035 C 
HETATM    7  C8  UNL     1      24.085   0.323  53.310  1.00  0.00    -0.018 C 
HETATM    8  C9  UNL     1      25.277   1.162  53.402  1.00  0.00     0.083 C 
HETATM    9  C10 UNL     1      25.268   2.300  52.403  1.00  0.00     0.038 C 
HETATM   10  N1  UNL     1      24.508   3.318  52.174  1.00  0.00    -0.180 NA
HETATM   11  N2  UNL     1      24.106   3.257  50.850  1.00  0.00    -0.258 N 
HETATM   12  C11 UNL     1      25.337   3.108  50.163  1.00  0.00     0.149 C 
HETATM   13  C18 UNL     1      26.227   2.589  51.307  1.00  0.00     0.089 C 
ENDROOT
BRANCH  12  14
HETATM   14  C12 UNL     1      25.953   4.367  49.661  1.00  0.00    -0.033 A 
HETATM   15  C13 UNL     1      27.160   4.251  48.965  1.00  0.00     0.011 A 
HETATM   16  C14 UNL     1      27.825   5.338  48.472  1.00  0.00     0.024 A 
HETATM   17  C15 UNL     1      27.256   6.587  48.684  1.00  0.00     0.034 A 
HETATM   18 CL1  UNL     1      28.094   7.984  48.061  1.00  0.00    -0.084 Cl
HETATM   19  C16 UNL     1      26.055   6.690  49.377  1.00  0.00     0.024 A 
HETATM   20  C17 UNL     1      25.373   5.594  49.883  1.00  0.00     0.011 A 
ENDBRANCH  12  14
BRANCH   1  21
HETATM   21  C2  UNL     1      22.458   4.130  49.035  1.00  0.00     0.071 C 
HETATM   22  C1  UNL     1      22.545   3.701  47.821  1.00  0.00     0.073 C 
BRANCH  21  23
HETATM   23  O1  UNL     1      21.915   5.373  49.302  1.00  0.00    -0.363 OA
HETATM   24  H3  UNL     1      21.170   5.663  48.654  1.00  0.00     0.217 HD
ENDBRANCH  21  23
ENDBRANCH   1  21
TORSDOF 3
ENDMDL
MODEL 9
REMARK VINA RESULT:      -7.5     10.207     12.718
REMARK  3 active torsions:
REMARK  status: ('A' for Active; 'I' for Inactive)
REMARK    1  A    between atoms: C2_2  and  O1_3 
REMARK    2  A    between atoms: C2_2  and  C3_4 
REMARK    3  A    between atoms: C11_15  and  C12_16 
ROOT
HETATM    1  C3  UNL     1      30.735   5.887  47.758  1.00  0.00     0.079 C 
HETATM    2  C4  UNL     1      31.047   4.657  47.325  1.00  0.00     0.020 C 
HETATM    3  C5  UNL     1      31.873   3.503  47.059  1.00  0.00     0.087 C 
HETATM    4  C6  UNL     1      33.091   3.013  47.178  1.00  0.00     0.102 C 
HETATM    5  F1  UNL     1      32.390   1.996  46.561  1.00  0.00    -0.210 F 
HETATM    6  C7  UNL     1      34.517   2.927  47.514  1.00  0.00     0.035 C 
HETATM    7  C8  UNL     1      34.881   4.058  48.070  1.00  0.00    -0.018 C 
HETATM    8  C9  UNL     1      35.206   5.344  48.681  1.00  0.00     0.083 C 
HETATM    9  C10 UNL     1      34.019   6.283  48.731  1.00  0.00     0.038 C 
HETATM   10  N1  UNL     1      32.852   6.263  49.279  1.00  0.00    -0.180 NA
HETATM   11  N2  UNL     1      31.912   6.466  48.282  1.00  0.00    -0.258 N 
HETATM   12  C11 UNL     1      32.389   7.641  47.647  1.00  0.00     0.149 C 
HETATM   13  C18 UNL     1      33.859   7.620  48.104  1.00  0.00     0.089 C 
ENDROOT
BRANCH  12  14
HETATM   14  C12 UNL     1      31.796   8.920  48.126  1.00  0.00    -0.033 A 
HETATM   15  C13 UNL     1      32.037  10.060  47.354  1.00  0.00     0.011 A 
HETATM   16  C14 UNL     1      31.557  11.292  47.703  1.00  0.00     0.024 A 
HETATM   17  C15 UNL     1      30.807  11.380  48.868  1.00  0.00     0.034 A 
HETATM   18 CL1  UNL     1      30.189  12.945  49.327  1.00  0.00    -0.084 Cl
HETATM   19  C16 UNL     1      30.573  10.238  49.628  1.00  0.00     0.024 A 
HETATM   20  C17 UNL     1      31.056   8.985  49.284  1.00  0.00     0.011 A 
ENDBRANCH  12  14
BRANCH   1  21
HETATM   21  C2  UNL     1      29.405   6.338  47.598  1.00  0.00     0.071 C 
HETATM   22  C1  UNL     1      28.492   5.775  48.318  1.00  0.00     0.073 C 
BRANCH  21  23
HETATM   23  O1  UNL     1      29.074   7.345  46.711  1.00  0.00    -0.363 OA
HETATM   24  H3  UNL     1      28.753   7.016  45.790  1.00  0.00     0.217 HD
ENDBRANCH  21  23
ENDBRANCH   1  21
TORSDOF 3
ENDMDL
