MODEL 1
REMARK VINA RESULT:     -10.0      0.000      0.000
REMARK  3 active torsions:
REMARK  status: ('A' for Active; 'I' for Inactive)
REMARK    1  A    between atoms: N1_5  and  C5_6 
REMARK    2  A    between atoms: C5_6  and  C6_7 
REMARK    3  A    between atoms: C6_7  and  N2_8 
ROOT
HETATM    1  N2  UNL     1      26.564   1.624  52.574  1.00  0.00    -0.377 N 
HETATM    2  C7  UNL     1      27.340   2.156  53.744  1.00  0.00     0.121 C 
HETATM    3  C8  UNL     1      28.136   1.138  53.869  1.00  0.00     0.049 A 
HETATM    4  C9  UNL     1      27.360   0.266  54.767  1.00  0.00     0.050 A 
HETATM    5  N3  UNL     1      26.212   0.367  55.371  1.00  0.00    -0.186 NA
HETATM    6  N4  UNL     1      25.622  -0.556  56.183  1.00  0.00    -0.296 N 
HETATM    7  C10 UNL     1      24.703  -1.525  55.696  1.00  0.00     0.263 C 
HETATM    8  N5  UNL     1      23.417  -1.175  55.265  1.00  0.00    -0.372 N 
HETATM    9  C11 UNL     1      22.599  -0.465  54.352  1.00  0.00     0.037 A 
HETATM   10  C12 UNL     1      21.260  -0.359  54.757  1.00  0.00     0.030 A 
HETATM   11  C13 UNL     1      20.351   0.295  53.951  1.00  0.00     0.004 A 
HETATM   12  C14 UNL     1      20.746   0.837  52.766  1.00  0.00     0.024 A 
HETATM   13  C15 UNL     1      22.033   0.761  52.332  1.00  0.00     0.043 A 
HETATM   14 CL1  UNL     1      22.814   1.370  50.885  1.00  0.00    -0.084 Cl
HETATM   15  C16 UNL     1      22.954   0.107  53.132  1.00  0.00    -0.000 A 
HETATM   16  C17 UNL     1      24.339  -0.072  52.871  1.00  0.00     0.194 C 
HETATM   17  C18 UNL     1      25.571   0.459  52.682  1.00  0.00     0.116 C 
HETATM   18  O1  UNL     1      26.274  -0.710  52.501  1.00  0.00    -0.366 OA
HETATM   19  C19 UNL     1      27.357  -1.566  52.554  1.00  0.00     0.171 C 
HETATM   20  C20 UNL     1      28.666  -1.105  53.070  1.00  0.00     0.038 C 
HETATM   21  C21 UNL     1      28.633  -0.201  54.299  1.00  0.00     0.056 A 
HETATM   22  H14 UNL     1      26.000  -0.369  57.150  1.00  0.00     0.184 HD
HETATM   23  H17 UNL     1      22.855  -1.727  56.000  1.00  0.00     0.161 HD
ENDROOT
BRANCH   1  24
HETATM   24  C6  UNL     1      26.714   2.179  51.241  1.00  0.00     0.150 C 
BRANCH  24  25
HETATM   25  C5  UNL     1      25.711   3.256  51.026  1.00  0.00     0.291 C 
BRANCH  25  26
HETATM   26  N1  UNL     1      25.855   4.022  49.827  1.00  0.00     0.090 N 
HETATM   27  C4  UNL     1      27.105   3.948  49.162  1.00  0.00     0.273 C 
HETATM   28  C3  UNL     1      27.398   5.348  48.636  1.00  0.00     0.036 C 
HETATM   29  C2  UNL     1      26.091   6.072  48.791  1.00  0.00     0.011 C 
HETATM   30  C1  UNL     1      26.426   7.517  49.106  1.00  0.00     0.011 C 
HETATM   31  C22 UNL     1      25.459   5.398  49.969  1.00  0.00     0.276 C 
ENDBRANCH  25  26
ENDBRANCH  24  25
ENDBRANCH   1  24
TORSDOF 3
ENDMDL
MODEL 2
REMARK VINA RESULT:      -9.3      2.662      7.252
REMARK  3 active torsions:
REMARK  status: ('A' for Active; 'I' for Inactive)
REMARK    1  A    between atoms: N1_5  and  C5_6 
REMARK    2  A    between atoms: C5_6  and  C6_7 
REMARK    3  A    between atoms: C6_7  and  N2_8 
ROOT
HETATM    1  N2  UNL     1      24.883   2.559  51.709  1.00  0.00    -0.377 N 
HETATM    2  C7  UNL     1      24.208   2.784  53.031  1.00  0.00     0.121 C 
HETATM    3  C8  UNL     1      23.095   2.184  52.734  1.00  0.00     0.049 A 
HETATM    4  C9  UNL     1      22.318   3.285  52.139  1.00  0.00     0.050 A 
HETATM    5  N3  UNL     1      22.536   4.552  51.936  1.00  0.00    -0.186 NA
HETATM    6  N4  UNL     1      21.693   5.452  51.355  1.00  0.00    -0.296 N 
HETATM    7  C10 UNL     1      21.733   5.747  49.965  1.00  0.00     0.263 C 
HETATM    8  N5  UNL     1      22.791   6.460  49.388  1.00  0.00    -0.372 N 
HETATM    9  C11 UNL     1      24.171   6.536  49.077  1.00  0.00     0.037 A 
HETATM   10  C12 UNL     1      24.593   7.816  48.691  1.00  0.00     0.030 A 
HETATM   11  C13 UNL     1      25.913   8.026  48.345  1.00  0.00     0.004 A 
HETATM   12  C14 UNL     1      26.804   6.998  48.376  1.00  0.00     0.024 A 
HETATM   13  C15 UNL     1      26.442   5.740  48.744  1.00  0.00     0.043 A 
HETATM   14 CL1  UNL     1      27.364   4.255  48.889  1.00  0.00    -0.084 Cl
HETATM   15  C16 UNL     1      25.122   5.517  49.094  1.00  0.00    -0.000 A 
HETATM   16  C17 UNL     1      24.543   4.291  49.517  1.00  0.00     0.194 C 
HETATM   17  C18 UNL     1      24.470   3.283  50.420  1.00  0.00     0.116 C 
HETATM   18  O1  UNL     1      23.477   2.541  49.822  1.00  0.00    -0.366 OA
HETATM   19  C19 UNL     1      22.390   1.692  49.749  1.00  0.00     0.171 C 
HETATM   20  C20 UNL     1      21.819   1.083  50.971  1.00  0.00     0.038 C 
HETATM   21  C21 UNL     1      21.718   1.983  52.199  1.00  0.00     0.056 A 
HETATM   22  H14 UNL     1      21.081   5.815  52.134  1.00  0.00     0.184 HD
HETATM   23  H17 UNL     1      22.232   7.319  49.056  1.00  0.00     0.161 HD
ENDROOT
BRANCH   1  24
HETATM   24  C6  UNL     1      25.979   1.619  51.559  1.00  0.00     0.150 C 
BRANCH  24  25
HETATM   25  C5  UNL     1      27.174   2.116  52.293  1.00  0.00     0.291 C 
BRANCH  25  26
HETATM   26  N1  UNL     1      27.742   1.220  53.252  1.00  0.00     0.090 N 
HETATM   27  C4  UNL     1      29.083   1.461  53.644  1.00  0.00     0.273 C 
HETATM   28  C3  UNL     1      29.740   0.094  53.796  1.00  0.00     0.036 C 
HETATM   29  C2  UNL     1      28.585  -0.866  53.770  1.00  0.00     0.011 C 
HETATM   30  C1  UNL     1      29.084  -2.132  53.100  1.00  0.00     0.011 C 
HETATM   31  C22 UNL     1      27.574  -0.169  52.913  1.00  0.00     0.276 C 
ENDBRANCH  25  26
ENDBRANCH  24  25
ENDBRANCH   1  24
TORSDOF 3
ENDMDL
MODEL 3
REMARK VINA RESULT:      -9.2      2.578      5.866
REMARK  3 active torsions:
REMARK  status: ('A' for Active; 'I' for Inactive)
REMARK    1  A    between atoms: N1_5  and  C5_6 
REMARK    2  A    between atoms: C5_6  and  C6_7 
REMARK    3  A    between atoms: C6_7  and  N2_8 
ROOT
HETATM    1  N2  UNL     1      24.743   2.623  51.107  1.00  0.00    -0.377 N 
HETATM    2  C7  UNL     1      24.439   2.845  49.653  1.00  0.00     0.121 C 
HETATM    3  C8  UNL     1      24.089   4.090  49.764  1.00  0.00     0.049 A 
HETATM    4  C9  UNL     1      22.651   3.967  50.057  1.00  0.00     0.050 A 
HETATM    5  N3  UNL     1      21.823   2.968  50.168  1.00  0.00    -0.186 NA
HETATM    6  N4  UNL     1      20.492   3.027  50.455  1.00  0.00    -0.296 N 
HETATM    7  C10 UNL     1      19.992   2.924  51.781  1.00  0.00     0.263 C 
HETATM    8  N5  UNL     1      20.029   1.719  52.495  1.00  0.00    -0.372 N 
HETATM    9  C11 UNL     1      20.797   0.688  53.087  1.00  0.00     0.037 A 
HETATM   10  C12 UNL     1      20.051  -0.453  53.419  1.00  0.00     0.030 A 
HETATM   11  C13 UNL     1      20.675  -1.528  54.018  1.00  0.00     0.004 A 
HETATM   12  C14 UNL     1      22.009  -1.487  54.290  1.00  0.00     0.024 A 
HETATM   13  C15 UNL     1      22.773  -0.404  53.987  1.00  0.00     0.043 A 
HETATM   14 CL1  UNL     1      24.484  -0.085  54.202  1.00  0.00    -0.084 Cl
HETATM   15  C16 UNL     1      22.159   0.681  53.385  1.00  0.00    -0.000 A 
HETATM   16  C17 UNL     1      22.772   1.896  52.978  1.00  0.00     0.194 C 
HETATM   17  C18 UNL     1      23.661   2.550  52.192  1.00  0.00     0.116 C 
HETATM   18  O1  UNL     1      23.425   3.831  52.635  1.00  0.00    -0.366 OA
HETATM   19  C19 UNL     1      23.323   5.206  52.560  1.00  0.00     0.171 C 
HETATM   20  C20 UNL     1      23.671   5.927  51.314  1.00  0.00     0.038 C 
HETATM   21  C21 UNL     1      23.224   5.281  50.006  1.00  0.00     0.056 A 
HETATM   22  H14 UNL     1      20.005   3.159  49.528  1.00  0.00     0.184 HD
HETATM   23  H17 UNL     1      18.966   1.576  52.606  1.00  0.00     0.161 HD
ENDROOT
BRANCH   1  24
HETATM   24  C6  UNL     1      26.105   2.471  51.588  1.00  0.00     0.150 C 
BRANCH  24  25
HETATM   25  C5  UNL     1      26.442   1.027  51.703  1.00  0.00     0.291 C 
BRANCH  25  26
HETATM   26  N1  UNL     1      27.215   0.649  52.846  1.00  0.00     0.090 N 
HETATM   27  C4  UNL     1      28.298   1.494  53.199  1.00  0.00     0.273 C 
HETATM   28  C3  UNL     1      29.427   0.579  53.659  1.00  0.00     0.036 C 
HETATM   29  C2  UNL     1      28.762  -0.758  53.825  1.00  0.00     0.011 C 
HETATM   30  C1  UNL     1      29.794  -1.807  53.459  1.00  0.00     0.011 C 
HETATM   31  C22 UNL     1      27.654  -0.721  52.818  1.00  0.00     0.276 C 
ENDBRANCH  25  26
ENDBRANCH  24  25
ENDBRANCH   1  24
TORSDOF 3
ENDMDL
MODEL 4
REMARK VINA RESULT:      -8.9      2.961      7.156
REMARK  3 active torsions:
REMARK  status: ('A' for Active; 'I' for Inactive)
REMARK    1  A    between atoms: N1_5  and  C5_6 
REMARK    2  A    between atoms: C5_6  and  C6_7 
REMARK    3  A    between atoms: C6_7  and  N2_8 
ROOT
HETATM    1  N2  UNL     1      22.003   3.672  51.900  1.00  0.00    -0.377 N 
HETATM    2  C7  UNL     1      22.356   5.130  51.985  1.00  0.00     0.121 C 
HETATM    3  C8  UNL     1      22.328   5.363  50.708  1.00  0.00     0.049 A 
HETATM    4  C9  UNL     1      23.711   5.040  50.319  1.00  0.00     0.050 A 
HETATM    5  N3  UNL     1      24.775   4.656  50.964  1.00  0.00    -0.186 NA
HETATM    6  N4  UNL     1      26.005   4.390  50.441  1.00  0.00    -0.296 N 
HETATM    7  C10 UNL     1      26.399   3.084  50.043  1.00  0.00     0.263 C 
HETATM    8  N5  UNL     1      26.644   2.067  50.975  1.00  0.00    -0.372 N 
HETATM    9  C11 UNL     1      26.152   1.218  51.996  1.00  0.00     0.037 A 
HETATM   10  C12 UNL     1      27.159   0.584  52.738  1.00  0.00     0.030 A 
HETATM   11  C13 UNL     1      26.816  -0.285  53.754  1.00  0.00     0.004 A 
HETATM   12  C14 UNL     1      25.508  -0.529  54.039  1.00  0.00     0.024 A 
HETATM   13  C15 UNL     1      24.497   0.064  53.349  1.00  0.00     0.043 A 
HETATM   14 CL1  UNL     1      22.754  -0.048  53.506  1.00  0.00    -0.084 Cl
HETATM   15  C16 UNL     1      24.828   0.937  52.327  1.00  0.00    -0.000 A 
HETATM   16  C17 UNL     1      23.932   1.664  51.499  1.00  0.00     0.194 C 
HETATM   17  C18 UNL     1      22.965   2.604  51.364  1.00  0.00     0.116 C 
HETATM   18  O1  UNL     1      22.790   2.527  50.002  1.00  0.00    -0.366 OA
HETATM   19  C19 UNL     1      22.504   2.976  48.728  1.00  0.00     0.171 C 
HETATM   20  C20 UNL     1      22.074   4.373  48.493  1.00  0.00     0.038 C 
HETATM   21  C21 UNL     1      22.796   5.452  49.295  1.00  0.00     0.056 A 
HETATM   22  H14 UNL     1      26.512   5.315  50.417  1.00  0.00     0.184 HD
HETATM   23  H17 UNL     1      27.691   1.916  50.763  1.00  0.00     0.161 HD
ENDROOT
BRANCH   1  24
HETATM   24  C6  UNL     1      20.705   3.174  52.317  1.00  0.00     0.150 C 
BRANCH  24  25
HETATM   25  C5  UNL     1      19.790   3.105  51.146  1.00  0.00     0.291 C 
BRANCH  25  26
HETATM   26  N1  UNL     1      19.158   1.843  50.915  1.00  0.00     0.090 N 
HETATM   27  C4  UNL     1      17.745   1.842  50.798  1.00  0.00     0.273 C 
HETATM   28  C3  UNL     1      17.255   0.578  51.495  1.00  0.00     0.036 C 
HETATM   29  C2  UNL     1      18.505  -0.229  51.699  1.00  0.00     0.011 C 
HETATM   30  C1  UNL     1      18.326  -0.992  52.997  1.00  0.00     0.011 C 
HETATM   31  C22 UNL     1      19.572   0.813  51.832  1.00  0.00     0.276 C 
ENDBRANCH  25  26
ENDBRANCH  24  25
ENDBRANCH   1  24
TORSDOF 3
ENDMDL
MODEL 5
REMARK VINA RESULT:      -8.9      2.674      5.412
REMARK  3 active torsions:
REMARK  status: ('A' for Active; 'I' for Inactive)
REMARK    1  A    between atoms: N1_5  and  C5_6 
REMARK    2  A    between atoms: C5_6  and  C6_7 
REMARK    3  A    between atoms: C6_7  and  N2_8 
ROOT
HETATM    1  N2  UNL     1      22.599   2.148  49.465  1.00  0.00    -0.377 N 
HETATM    2  C7  UNL     1      21.483   1.258  49.000  1.00  0.00     0.121 C 
HETATM    3  C8  UNL     1      20.529   1.874  49.632  1.00  0.00     0.049 A 
HETATM    4  C9  UNL     1      20.548   1.188  50.934  1.00  0.00     0.050 A 
HETATM    5  N3  UNL     1      21.237   0.206  51.440  1.00  0.00    -0.186 NA
HETATM    6  N4  UNL     1      21.130  -0.317  52.694  1.00  0.00    -0.296 N 
HETATM    7  C10 UNL     1      21.934   0.128  53.778  1.00  0.00     0.263 C 
HETATM    8  N5  UNL     1      23.305  -0.149  53.847  1.00  0.00    -0.372 N 
HETATM    9  C11 UNL     1      24.599   0.006  53.293  1.00  0.00     0.037 A 
HETATM   10  C12 UNL     1      25.547  -0.887  53.815  1.00  0.00     0.030 A 
HETATM   11  C13 UNL     1      26.853  -0.833  53.373  1.00  0.00     0.004 A 
HETATM   12  C14 UNL     1      27.226   0.080  52.434  1.00  0.00     0.024 A 
HETATM   13  C15 UNL     1      26.343   0.964  51.898  1.00  0.00     0.043 A 
HETATM   14 CL1  UNL     1      26.534   2.216  50.685  1.00  0.00    -0.084 Cl
HETATM   15  C16 UNL     1      25.030   0.920  52.334  1.00  0.00    -0.000 A 
HETATM   16  C17 UNL     1      23.955   1.740  51.896  1.00  0.00     0.194 C 
HETATM   17  C18 UNL     1      23.127   2.153  50.906  1.00  0.00     0.116 C 
HETATM   18  O1  UNL     1      22.371   3.048  51.628  1.00  0.00    -0.366 OA
HETATM   19  C19 UNL     1      21.249   3.767  51.987  1.00  0.00     0.171 C 
HETATM   20  C20 UNL     1      19.993   3.653  51.212  1.00  0.00     0.038 C 
HETATM   21  C21 UNL     1      19.607   2.253  50.741  1.00  0.00     0.056 A 
HETATM   22  H14 UNL     1      20.374  -1.051  52.634  1.00  0.00     0.184 HD
HETATM   23  H17 UNL     1      23.294  -0.749  54.742  1.00  0.00     0.161 HD
ENDROOT
BRANCH   1  24
HETATM   24  C6  UNL     1      23.254   3.085  48.570  1.00  0.00     0.150 C 
BRANCH  24  25
HETATM   25  C5  UNL     1      22.755   4.463  48.827  1.00  0.00     0.291 C 
BRANCH  25  26
HETATM   26  N1  UNL     1      23.749   5.446  49.132  1.00  0.00     0.090 N 
HETATM   27  C4  UNL     1      23.785   6.600  48.310  1.00  0.00     0.273 C 
HETATM   28  C3  UNL     1      25.258   6.947  48.118  1.00  0.00     0.036 C 
HETATM   29  C2  UNL     1      25.963   6.100  49.140  1.00  0.00     0.011 C 
HETATM   30  C1  UNL     1      27.304   5.720  48.541  1.00  0.00     0.011 C 
HETATM   31  C22 UNL     1      25.074   4.902  49.270  1.00  0.00     0.276 C 
ENDBRANCH  25  26
ENDBRANCH  24  25
ENDBRANCH   1  24
TORSDOF 3
ENDMDL
MODEL 6
REMARK VINA RESULT:      -8.8      2.940      7.786
REMARK  3 active torsions:
REMARK  status: ('A' for Active; 'I' for Inactive)
REMARK    1  A    between atoms: N1_5  and  C5_6 
REMARK    2  A    between atoms: C5_6  and  C6_7 
REMARK    3  A    between atoms: C6_7  and  N2_8 
ROOT
HETATM    1  N2  UNL     1      23.251   3.153  51.490  1.00  0.00    -0.377 N 
HETATM    2  C7  UNL     1      22.546   3.923  52.570  1.00  0.00     0.121 C 
HETATM    3  C8  UNL     1      21.380   3.943  51.999  1.00  0.00     0.049 A 
HETATM    4  C9  UNL     1      21.475   5.162  51.178  1.00  0.00     0.050 A 
HETATM    5  N3  UNL     1      22.386   6.075  51.000  1.00  0.00    -0.186 NA
HETATM    6  N4  UNL     1      22.316   7.162  50.181  1.00  0.00    -0.296 N 
HETATM    7  C10 UNL     1      22.803   7.144  48.845  1.00  0.00     0.263 C 
HETATM    8  N5  UNL     1      24.173   7.093  48.557  1.00  0.00    -0.372 N 
HETATM    9  C11 UNL     1      25.399   6.388  48.633  1.00  0.00     0.037 A 
HETATM   10  C12 UNL     1      26.522   7.175  48.335  1.00  0.00     0.030 A 
HETATM   11  C13 UNL     1      27.779   6.608  48.357  1.00  0.00     0.004 A 
HETATM   12  C14 UNL     1      27.936   5.291  48.664  1.00  0.00     0.024 A 
HETATM   13  C15 UNL     1      26.879   4.489  48.961  1.00  0.00     0.043 A 
HETATM   14 CL1  UNL     1      26.786   2.794  49.403  1.00  0.00    -0.084 Cl
HETATM   15  C16 UNL     1      25.612   5.046  48.943  1.00  0.00    -0.000 A 
HETATM   16  C17 UNL     1      24.384   4.393  49.233  1.00  0.00     0.194 C 
HETATM   17  C18 UNL     1      23.584   3.745  50.114  1.00  0.00     0.116 C 
HETATM   18  O1  UNL     1      22.501   3.532  49.292  1.00  0.00    -0.366 OA
HETATM   19  C19 UNL     1      21.173   3.369  48.954  1.00  0.00     0.171 C 
HETATM   20  C20 UNL     1      20.118   3.369  49.993  1.00  0.00     0.038 C 
HETATM   21  C21 UNL     1      20.266   4.392  51.115  1.00  0.00     0.056 A 
HETATM   22  H14 UNL     1      21.852   7.920  50.750  1.00  0.00     0.184 HD
HETATM   23  H17 UNL     1      24.258   8.043  48.056  1.00  0.00     0.161 HD
ENDROOT
BRANCH   1  24
HETATM   24  C6  UNL     1      23.661   1.772  51.678  1.00  0.00     0.150 C 
BRANCH  24  25
HETATM   25  C5  UNL     1      24.612   1.678  52.817  1.00  0.00     0.291 C 
BRANCH  25  26
HETATM   26  N1  UNL     1      25.960   1.334  52.485  1.00  0.00     0.090 N 
HETATM   27  C4  UNL     1      26.269  -0.047  52.396  1.00  0.00     0.273 C 
HETATM   28  C3  UNL     1      27.666  -0.216  52.985  1.00  0.00     0.036 C 
HETATM   29  C2  UNL     1      28.184   1.190  53.090  1.00  0.00     0.011 C 
HETATM   30  C1  UNL     1      29.074   1.237  54.317  1.00  0.00     0.011 C 
HETATM   31  C22 UNL     1      26.943   2.003  53.296  1.00  0.00     0.276 C 
ENDBRANCH  25  26
ENDBRANCH  24  25
ENDBRANCH   1  24
TORSDOF 3
ENDMDL
MODEL 7
REMARK VINA RESULT:      -8.5      3.162      5.781
REMARK  3 active torsions:
REMARK  status: ('A' for Active; 'I' for Inactive)
REMARK    1  A    between atoms: N1_5  and  C5_6 
REMARK    2  A    between atoms: C5_6  and  C6_7 
REMARK    3  A    between atoms: C6_7  and  N2_8 
ROOT
HETATM    1  N2  UNL     1      22.518   2.240  49.568  1.00  0.00    -0.377 N 
HETATM    2  C7  UNL     1      21.435   1.324  49.076  1.00  0.00     0.121 C 
HETATM    3  C8  UNL     1      20.466   1.863  49.752  1.00  0.00     0.049 A 
HETATM    4  C9  UNL     1      20.538   1.115  51.018  1.00  0.00     0.050 A 
HETATM    5  N3  UNL     1      21.280   0.143  51.464  1.00  0.00    -0.186 NA
HETATM    6  N4  UNL     1      21.219  -0.445  52.692  1.00  0.00    -0.296 N 
HETATM    7  C10 UNL     1      22.020  -0.016  53.785  1.00  0.00     0.263 C 
HETATM    8  N5  UNL     1      23.403  -0.233  53.819  1.00  0.00    -0.372 N 
HETATM    9  C11 UNL     1      24.680   0.008  53.254  1.00  0.00     0.037 A 
HETATM   10  C12 UNL     1      25.676  -0.863  53.717  1.00  0.00     0.030 A 
HETATM   11  C13 UNL     1      26.971  -0.728  53.258  1.00  0.00     0.004 A 
HETATM   12  C14 UNL     1      27.285   0.247  52.361  1.00  0.00     0.024 A 
HETATM   13  C15 UNL     1      26.353   1.114  51.882  1.00  0.00     0.043 A 
HETATM   14 CL1  UNL     1      26.467   2.431  50.730  1.00  0.00    -0.084 Cl
HETATM   15  C16 UNL     1      25.051   0.988  52.335  1.00  0.00    -0.000 A 
HETATM   16  C17 UNL     1      23.932   1.777  51.955  1.00  0.00     0.194 C 
HETATM   17  C18 UNL     1      23.070   2.199  50.999  1.00  0.00     0.116 C 
HETATM   18  O1  UNL     1      22.287   3.022  51.776  1.00  0.00    -0.366 OA
HETATM   19  C19 UNL     1      21.139   3.670  52.187  1.00  0.00     0.171 C 
HETATM   20  C20 UNL     1      19.876   3.536  51.426  1.00  0.00     0.038 C 
HETATM   21  C21 UNL     1      19.547   2.145  50.892  1.00  0.00     0.056 A 
HETATM   22  H14 UNL     1      20.496  -1.209  52.608  1.00  0.00     0.184 HD
HETATM   23  H17 UNL     1      23.435  -0.876  54.684  1.00  0.00     0.161 HD
ENDROOT
BRANCH   1  24
HETATM   24  C6  UNL     1      23.114   3.249  48.710  1.00  0.00     0.150 C 
BRANCH  24  25
HETATM   25  C5  UNL     1      23.690   4.341  49.540  1.00  0.00     0.291 C 
BRANCH  25  26
HETATM   26  N1  UNL     1      23.037   5.611  49.452  1.00  0.00     0.090 N 
HETATM   27  C4  UNL     1      23.012   6.405  50.626  1.00  0.00     0.273 C 
HETATM   28  C3  UNL     1      21.645   7.078  50.663  1.00  0.00     0.036 C 
HETATM   29  C2  UNL     1      21.088   6.838  49.288  1.00  0.00     0.011 C 
HETATM   30  C1  UNL     1      19.587   6.688  49.445  1.00  0.00     0.011 C 
HETATM   31  C22 UNL     1      21.718   5.542  48.881  1.00  0.00     0.276 C 
ENDBRANCH  25  26
ENDBRANCH  24  25
ENDBRANCH   1  24
TORSDOF 3
ENDMDL
MODEL 8
REMARK VINA RESULT:      -8.4      3.253      8.745
REMARK  3 active torsions:
REMARK  status: ('A' for Active; 'I' for Inactive)
REMARK    1  A    between atoms: N1_5  and  C5_6 
REMARK    2  A    between atoms: C5_6  and  C6_7 
REMARK    3  A    between atoms: C6_7  and  N2_8 
ROOT
HETATM    1  N2  UNL     1      23.575   4.136  51.118  1.00  0.00    -0.377 N 
HETATM    2  C7  UNL     1      23.019   4.976  52.232  1.00  0.00     0.121 C 
HETATM    3  C8  UNL     1      21.892   5.263  51.653  1.00  0.00     0.049 A 
HETATM    4  C9  UNL     1      22.249   6.477  50.901  1.00  0.00     0.050 A 
HETATM    5  N3  UNL     1      23.329   7.194  50.781  1.00  0.00    -0.186 NA
HETATM    6  N4  UNL     1      23.497   8.313  50.022  1.00  0.00    -0.296 N 
HETATM    7  C10 UNL     1      23.997   8.265  48.692  1.00  0.00     0.263 C 
HETATM    8  N5  UNL     1      25.333   7.952  48.413  1.00  0.00    -0.372 N 
HETATM    9  C11 UNL     1      26.389   7.009  48.461  1.00  0.00     0.037 A 
HETATM   10  C12 UNL     1      27.654   7.566  48.217  1.00  0.00     0.030 A 
HETATM   11  C13 UNL     1      28.770   6.754  48.218  1.00  0.00     0.004 A 
HETATM   12  C14 UNL     1      28.650   5.419  48.455  1.00  0.00     0.024 A 
HETATM   13  C15 UNL     1      27.446   4.835  48.698  1.00  0.00     0.043 A 
HETATM   14 CL1  UNL     1      27.003   3.174  49.046  1.00  0.00    -0.084 Cl
HETATM   15  C16 UNL     1      26.319   5.638  48.700  1.00  0.00    -0.000 A 
HETATM   16  C17 UNL     1      24.979   5.234  48.942  1.00  0.00     0.194 C 
HETATM   17  C18 UNL     1      24.047   4.718  49.780  1.00  0.00     0.116 C 
HETATM   18  O1  UNL     1      22.960   4.772  48.938  1.00  0.00    -0.366 OA
HETATM   19  C19 UNL     1      21.633   4.901  48.579  1.00  0.00     0.171 C 
HETATM   20  C20 UNL     1      20.580   5.062  49.607  1.00  0.00     0.038 C 
HETATM   21  C21 UNL     1      20.911   5.974  50.785  1.00  0.00     0.056 A 
HETATM   22  H14 UNL     1      23.185   9.119  50.627  1.00  0.00     0.184 HD
HETATM   23  H17 UNL     1      25.619   8.889  47.965  1.00  0.00     0.161 HD
ENDROOT
BRANCH   1  24
HETATM   24  C6  UNL     1      23.692   2.693  51.234  1.00  0.00     0.150 C 
BRANCH  24  25
HETATM   25  C5  UNL     1      23.491   2.282  52.650  1.00  0.00     0.291 C 
BRANCH  25  26
HETATM   26  N1  UNL     1      22.823   1.033  52.854  1.00  0.00     0.090 N 
HETATM   27  C4  UNL     1      21.489   1.086  53.330  1.00  0.00     0.273 C 
HETATM   28  C3  UNL     1      21.336  -0.068  54.314  1.00  0.00     0.036 C 
HETATM   29  C2  UNL     1      22.561  -0.905  54.081  1.00  0.00     0.011 C 
HETATM   30  C1  UNL     1      22.939  -1.509  55.420  1.00  0.00     0.011 C 
HETATM   31  C22 UNL     1      23.584   0.094  53.636  1.00  0.00     0.276 C 
ENDBRANCH  25  26
ENDBRANCH  24  25
ENDBRANCH   1  24
TORSDOF 3
ENDMDL
MODEL 9
REMARK VINA RESULT:      -8.4      3.325      5.024
REMARK  3 active torsions:
REMARK  status: ('A' for Active; 'I' for Inactive)
REMARK    1  A    between atoms: N1_5  and  C5_6 
REMARK    2  A    between atoms: C5_6  and  C6_7 
REMARK    3  A    between atoms: C6_7  and  N2_8 
ROOT
HETATM    1  N2  UNL     1      21.519   3.907  51.381  1.00  0.00    -0.377 N 
HETATM    2  C7  UNL     1      22.109   5.090  52.094  1.00  0.00     0.121 C 
HETATM    3  C8  UNL     1      23.104   5.272  51.279  1.00  0.00     0.049 A 
HETATM    4  C9  UNL     1      24.130   4.394  51.867  1.00  0.00     0.050 A 
HETATM    5  N3  UNL     1      24.182   3.625  52.916  1.00  0.00    -0.186 NA
HETATM    6  N4  UNL     1      25.232   2.858  53.325  1.00  0.00    -0.296 N 
HETATM    7  C10 UNL     1      25.370   1.493  52.952  1.00  0.00     0.263 C 
HETATM    8  N5  UNL     1      24.525   0.497  53.458  1.00  0.00    -0.372 N 
HETATM    9  C11 UNL     1      23.219  -0.039  53.569  1.00  0.00     0.037 A 
HETATM   10  C12 UNL     1      23.090  -1.009  54.574  1.00  0.00     0.030 A 
HETATM   11  C13 UNL     1      21.872  -1.624  54.779  1.00  0.00     0.004 A 
HETATM   12  C14 UNL     1      20.797  -1.295  54.011  1.00  0.00     0.024 A 
HETATM   13  C15 UNL     1      20.872  -0.361  53.027  1.00  0.00     0.043 A 
HETATM   14 CL1  UNL     1      19.669   0.264  51.915  1.00  0.00    -0.084 Cl
HETATM   15  C16 UNL     1      22.089   0.264  52.812  1.00  0.00    -0.000 A 
HETATM   16  C17 UNL     1      22.377   1.269  51.850  1.00  0.00     0.194 C 
HETATM   17  C18 UNL     1      22.174   2.519  51.369  1.00  0.00     0.116 C 
HETATM   18  O1  UNL     1      23.050   2.478  50.309  1.00  0.00    -0.366 OA
HETATM   19  C19 UNL     1      23.951   2.964  49.382  1.00  0.00     0.171 C 
HETATM   20  C20 UNL     1      24.285   4.405  49.330  1.00  0.00     0.038 C 
HETATM   21  C21 UNL     1      24.456   5.114  50.670  1.00  0.00     0.056 A 
HETATM   22  H14 UNL     1      25.834   3.489  53.918  1.00  0.00     0.184 HD
HETATM   23  H17 UNL     1      25.269  -0.080  53.983  1.00  0.00     0.161 HD
ENDROOT
BRANCH   1  24
HETATM   24  C6  UNL     1      20.276   4.004  50.637  1.00  0.00     0.150 C 
BRANCH  24  25
HETATM   25  C5  UNL     1      20.294   3.048  49.497  1.00  0.00     0.291 C 
BRANCH  25  26
HETATM   26  N1  UNL     1      20.401   3.625  48.193  1.00  0.00     0.090 N 
HETATM   27  C4  UNL     1      21.111   2.883  47.216  1.00  0.00     0.273 C 
HETATM   28  C3  UNL     1      21.896   3.896  46.391  1.00  0.00     0.036 C 
HETATM   29  C2  UNL     1      21.308   5.220  46.791  1.00  0.00     0.011 C 
HETATM   30  C1  UNL     1      22.435   6.233  46.736  1.00  0.00     0.011 C 
HETATM   31  C22 UNL     1      20.862   4.989  48.201  1.00  0.00     0.276 C 
ENDBRANCH  25  26
ENDBRANCH  24  25
ENDBRANCH   1  24
TORSDOF 3
ENDMDL
