MODEL 1
REMARK VINA RESULT:      -7.7      0.000      0.000
REMARK  8 active torsions:
REMARK  status: ('A' for Active; 'I' for Inactive)
REMARK    1  A    between atoms: N1_2  and  C2_3 
REMARK    2  A    between atoms: C6_9  and  O1_10 
REMARK    3  A    between atoms: O1_10  and  C7_11 
REMARK    4  A    between atoms: C7_11  and  C8_12 
REMARK    5  A    between atoms: C7_11  and  C14_22 
REMARK    6  A    between atoms: C8_12  and  N4_13 
REMARK    7  A    between atoms: N4_13  and  C9_14 
REMARK    8  A    between atoms: C14_22  and  O2_23 
ROOT
HETATM    1  C2  UNL     1      27.200  -0.149  53.071  1.00  0.00     0.287 C 
HETATM    2  N2  UNL     1      27.794   1.159  52.912  1.00  0.00    -0.265 NA
HETATM    3  C3  UNL     1      27.507   2.242  52.275  1.00  0.00     0.144 C 
HETATM    4  C4  UNL     1      26.426   2.710  51.380  1.00  0.00     0.068 C 
HETATM    5  N3  UNL     1      26.734   3.631  50.535  1.00  0.00    -0.299 NA
HETATM    6  C5  UNL     1      25.015   2.266  51.314  1.00  0.00     0.072 C 
HETATM    7  C6  UNL     1      24.258   1.359  51.957  1.00  0.00     0.107 C 
HETATM    8  C16 UNL     1      24.628   0.435  53.030  1.00  0.00     0.135 C 
HETATM    9  C17 UNL     1      25.767  -0.123  53.428  1.00  0.00     0.128 C 
HETATM   10  O3  UNL     1      25.669  -0.964  54.525  1.00  0.00    -0.346 OA
HETATM   11  C18 UNL     1      24.519  -1.227  55.264  1.00  0.00     0.202 C 
HETATM   12  C19 UNL     1      23.258  -0.932  54.520  1.00  0.00     0.202 C 
HETATM   13  O4  UNL     1      23.398   0.204  53.660  1.00  0.00    -0.344 OA
HETATM   14  H5  UNL     1      25.975   3.965  49.900  1.00  0.00     0.187 HD
ENDROOT
BRANCH   7  15
HETATM   15  O1  UNL     1      22.961   1.295  51.547  1.00  0.00    -0.339 OA
BRANCH  15  16
HETATM   16  C7  UNL     1      22.161   2.292  51.006  1.00  0.00     0.170 C 
BRANCH  16  17
HETATM   17  C8  UNL     1      20.923   1.787  50.322  1.00  0.00     0.154 C 
BRANCH  17  18
HETATM   18  N4  UNL     1      19.742   1.899  51.156  1.00  0.00    -0.386 N 
HETATM   19  H10 UNL     1      19.231   2.798  51.374  1.00  0.00     0.159 HD
BRANCH  18  20
HETATM   20  C9  UNL     1      19.124   0.789  51.788  1.00  0.00     0.043 A 
HETATM   21  C10 UNL     1      19.832   0.114  52.789  1.00  0.00     0.034 A 
HETATM   22  C11 UNL     1      19.386  -0.977  53.502  1.00  0.00     0.046 A 
HETATM   23  C12 UNL     1      18.187  -1.596  53.368  1.00  0.00     0.139 A 
HETATM   24  F1  UNL     1      17.838  -2.682  54.133  1.00  0.00    -0.204 F 
HETATM   25  C13 UNL     1      17.182  -1.238  52.478  1.00  0.00     0.087 A 
HETATM   26 CL1  UNL     1      15.649  -2.074  52.346  1.00  0.00    -0.079 Cl
HETATM   27  P1  UNL     1      17.543   0.143  51.460  1.00  0.00     0.024 P 
ENDBRANCH  18  20
ENDBRANCH  17  18
ENDBRANCH  16  17
BRANCH  16  28
HETATM   28  C14 UNL     1      21.784   3.252  52.131  1.00  0.00     0.201 C 
BRANCH  28  29
HETATM   29  O2  UNL     1      21.363   4.431  51.512  1.00  0.00    -0.393 OA
HETATM   30  C15 UNL     1      22.417   5.268  51.226  1.00  0.00     0.201 C 
ENDBRANCH  28  29
ENDBRANCH  16  28
ENDBRANCH  15  16
ENDBRANCH   7  15
BRANCH   1  31
HETATM   31  N1  UNL     1      27.933  -0.892  54.049  1.00  0.00    -0.278 NA
HETATM   32  C1  UNL     1      29.196  -0.661  54.245  1.00  0.00     0.145 C 
ENDBRANCH   1  31
TORSDOF 8
ENDMDL
MODEL 2
REMARK VINA RESULT:      -7.6      4.244      7.317
REMARK  8 active torsions:
REMARK  status: ('A' for Active; 'I' for Inactive)
REMARK    1  A    between atoms: N1_2  and  C2_3 
REMARK    2  A    between atoms: C6_9  and  O1_10 
REMARK    3  A    between atoms: O1_10  and  C7_11 
REMARK    4  A    between atoms: C7_11  and  C8_12 
REMARK    5  A    between atoms: C7_11  and  C14_22 
REMARK    6  A    between atoms: C8_12  and  N4_13 
REMARK    7  A    between atoms: N4_13  and  C9_14 
REMARK    8  A    between atoms: C14_22  and  O2_23 
ROOT
HETATM    1  C2  UNL     1      18.842   0.076  52.574  1.00  0.00     0.287 C 
HETATM    2  N2  UNL     1      18.428  -0.004  51.192  1.00  0.00    -0.265 NA
HETATM    3  C3  UNL     1      18.832   0.480  50.068  1.00  0.00     0.144 C 
HETATM    4  C4  UNL     1      19.924   1.365  49.609  1.00  0.00     0.068 C 
HETATM    5  N3  UNL     1      19.709   2.039  48.533  1.00  0.00    -0.299 NA
HETATM    6  C5  UNL     1      21.257   1.591  50.215  1.00  0.00     0.072 C 
HETATM    7  C6  UNL     1      21.909   1.144  51.302  1.00  0.00     0.107 C 
HETATM    8  C16 UNL     1      21.465   0.200  52.329  1.00  0.00     0.135 C 
HETATM    9  C17 UNL     1      20.279  -0.184  52.790  1.00  0.00     0.128 C 
HETATM   10  O3  UNL     1      20.310  -1.133  53.800  1.00  0.00    -0.346 OA
HETATM   11  C18 UNL     1      21.446  -1.745  54.324  1.00  0.00     0.202 C 
HETATM   12  C19 UNL     1      22.700  -0.972  54.081  1.00  0.00     0.202 C 
HETATM   13  O4  UNL     1      22.679  -0.304  52.814  1.00  0.00    -0.344 OA
HETATM   14  H5  UNL     1      20.476   2.666  48.204  1.00  0.00     0.187 HD
ENDROOT
BRANCH   7  15
HETATM   15  O1  UNL     1      23.165   1.645  51.468  1.00  0.00    -0.339 OA
BRANCH  15  16
HETATM   16  C7  UNL     1      23.560   2.867  51.994  1.00  0.00     0.170 C 
BRANCH  16  17
HETATM   17  C8  UNL     1      24.428   2.761  53.215  1.00  0.00     0.154 C 
BRANCH  17  18
HETATM   18  N4  UNL     1      25.837   2.651  52.889  1.00  0.00    -0.386 N 
HETATM   19  H10 UNL     1      26.456   3.447  52.575  1.00  0.00     0.159 HD
BRANCH  18  20
HETATM   20  C9  UNL     1      26.560   1.431  52.955  1.00  0.00     0.043 A 
HETATM   21  C10 UNL     1      25.916   0.252  52.561  1.00  0.00     0.034 A 
HETATM   22  C11 UNL     1      26.465  -1.011  52.561  1.00  0.00     0.046 A 
HETATM   23  C12 UNL     1      27.723  -1.345  52.940  1.00  0.00     0.139 A 
HETATM   24  F1  UNL     1      28.175  -2.642  52.901  1.00  0.00    -0.204 F 
HETATM   25  C13 UNL     1      28.695  -0.466  53.401  1.00  0.00     0.087 A 
HETATM   26 CL1  UNL     1      30.308  -0.954  53.878  1.00  0.00    -0.079 Cl
HETATM   27  P1  UNL     1      28.203   1.214  53.482  1.00  0.00     0.024 P 
ENDBRANCH  18  20
ENDBRANCH  17  18
ENDBRANCH  16  17
BRANCH  16  28
HETATM   28  C14 UNL     1      24.291   3.635  50.897  1.00  0.00     0.201 C 
BRANCH  28  29
HETATM   29  O2  UNL     1      23.561   4.809  50.692  1.00  0.00    -0.393 OA
HETATM   30  C15 UNL     1      24.376   5.915  50.615  1.00  0.00     0.201 C 
ENDBRANCH  28  29
ENDBRANCH  16  28
ENDBRANCH  15  16
ENDBRANCH   7  15
BRANCH   1  31
HETATM   31  N1  UNL     1      18.059  -0.826  53.362  1.00  0.00    -0.278 NA
HETATM   32  C1  UNL     1      16.815  -1.054  53.064  1.00  0.00     0.145 C 
ENDBRANCH   1  31
TORSDOF 8
ENDMDL
MODEL 3
REMARK VINA RESULT:      -7.6      4.371      5.702
REMARK  8 active torsions:
REMARK  status: ('A' for Active; 'I' for Inactive)
REMARK    1  A    between atoms: N1_2  and  C2_3 
REMARK    2  A    between atoms: C6_9  and  O1_10 
REMARK    3  A    between atoms: O1_10  and  C7_11 
REMARK    4  A    between atoms: C7_11  and  C8_12 
REMARK    5  A    between atoms: C7_11  and  C14_22 
REMARK    6  A    between atoms: C8_12  and  N4_13 
REMARK    7  A    between atoms: N4_13  and  C9_14 
REMARK    8  A    between atoms: C14_22  and  O2_23 
ROOT
HETATM    1  C2  UNL     1      27.149  -0.149  53.090  1.00  0.00     0.287 C 
HETATM    2  N2  UNL     1      27.758   1.154  52.941  1.00  0.00    -0.265 NA
HETATM    3  C3  UNL     1      27.482   2.247  52.317  1.00  0.00     0.144 C 
HETATM    4  C4  UNL     1      26.403   2.736  51.431  1.00  0.00     0.068 C 
HETATM    5  N3  UNL     1      26.718   3.662  50.593  1.00  0.00    -0.299 NA
HETATM    6  C5  UNL     1      24.986   2.310  51.366  1.00  0.00     0.072 C 
HETATM    7  C6  UNL     1      24.221   1.406  52.004  1.00  0.00     0.107 C 
HETATM    8  C16 UNL     1      24.585   0.467  53.066  1.00  0.00     0.135 C 
HETATM    9  C17 UNL     1      25.719  -0.108  53.453  1.00  0.00     0.128 C 
HETATM   10  O3  UNL     1      25.615  -0.959  54.542  1.00  0.00    -0.346 OA
HETATM   11  C18 UNL     1      24.465  -1.216  55.284  1.00  0.00     0.202 C 
HETATM   12  C19 UNL     1      23.204  -0.899  54.548  1.00  0.00     0.202 C 
HETATM   13  O4  UNL     1      23.355   0.244  53.699  1.00  0.00    -0.344 OA
HETATM   14  H5  UNL     1      25.961   4.011  49.965  1.00  0.00     0.187 HD
ENDROOT
BRANCH   7  15
HETATM   15  O1  UNL     1      22.922   1.362  51.599  1.00  0.00    -0.339 OA
BRANCH  15  16
HETATM   16  C7  UNL     1      21.995   2.391  51.507  1.00  0.00     0.170 C 
BRANCH  16  17
HETATM   17  C8  UNL     1      21.794   2.918  50.115  1.00  0.00     0.154 C 
BRANCH  17  18
HETATM   18  N4  UNL     1      21.736   4.367  50.073  1.00  0.00    -0.386 N 
HETATM   19  H10 UNL     1      20.851   4.944  50.065  1.00  0.00     0.159 HD
BRANCH  18  20
HETATM   20  C9  UNL     1      22.889   5.193  50.035  1.00  0.00     0.043 A 
HETATM   21  C10 UNL     1      23.290   5.834  51.213  1.00  0.00     0.034 A 
HETATM   22  C11 UNL     1      24.378   6.666  51.355  1.00  0.00     0.046 A 
HETATM   23  C12 UNL     1      25.259   7.017  50.385  1.00  0.00     0.139 A 
HETATM   24  F1  UNL     1      26.317   7.858  50.633  1.00  0.00    -0.204 F 
HETATM   25  C13 UNL     1      25.222   6.598  49.062  1.00  0.00     0.087 A 
HETATM   26 CL1  UNL     1      26.388   7.083  47.848  1.00  0.00    -0.079 Cl
HETATM   27  P1  UNL     1      23.901   5.518  48.658  1.00  0.00     0.024 P 
ENDBRANCH  18  20
ENDBRANCH  17  18
ENDBRANCH  16  17
BRANCH  16  28
HETATM   28  C14 UNL     1      20.672   1.881  52.071  1.00  0.00     0.201 C 
BRANCH  28  29
HETATM   29  O2  UNL     1      19.911   3.015  52.363  1.00  0.00    -0.393 OA
HETATM   30  C15 UNL     1      18.692   2.995  51.725  1.00  0.00     0.201 C 
ENDBRANCH  28  29
ENDBRANCH  16  28
ENDBRANCH  15  16
ENDBRANCH   7  15
BRANCH   1  31
HETATM   31  N1  UNL     1      27.878  -0.910  54.057  1.00  0.00    -0.278 NA
HETATM   32  C1  UNL     1      29.081  -0.564  54.401  1.00  0.00     0.145 C 
ENDBRANCH   1  31
TORSDOF 8
ENDMDL
MODEL 4
REMARK VINA RESULT:      -7.5      4.041      5.904
REMARK  8 active torsions:
REMARK  status: ('A' for Active; 'I' for Inactive)
REMARK    1  A    between atoms: N1_2  and  C2_3 
REMARK    2  A    between atoms: C6_9  and  O1_10 
REMARK    3  A    between atoms: O1_10  and  C7_11 
REMARK    4  A    between atoms: C7_11  and  C8_12 
REMARK    5  A    between atoms: C7_11  and  C14_22 
REMARK    6  A    between atoms: C8_12  and  N4_13 
REMARK    7  A    between atoms: N4_13  and  C9_14 
REMARK    8  A    between atoms: C14_22  and  O2_23 
ROOT
HETATM    1  C2  UNL     1      26.285   0.902  54.621  1.00  0.00     0.287 C 
HETATM    2  N2  UNL     1      26.043  -0.447  55.082  1.00  0.00    -0.265 NA
HETATM    3  C3  UNL     1      25.019  -1.216  55.218  1.00  0.00     0.144 C 
HETATM    4  C4  UNL     1      23.563  -1.121  54.975  1.00  0.00     0.068 C 
HETATM    5  N3  UNL     1      22.805  -1.865  55.704  1.00  0.00    -0.299 NA
HETATM    6  C5  UNL     1      22.835  -0.281  53.996  1.00  0.00     0.072 C 
HETATM    7  C6  UNL     1      23.174   0.629  53.066  1.00  0.00     0.107 C 
HETATM    8  C16 UNL     1      24.500   1.123  52.692  1.00  0.00     0.135 C 
HETATM    9  C17 UNL     1      25.671   1.213  53.315  1.00  0.00     0.128 C 
HETATM   10  O3  UNL     1      26.703   1.762  52.570  1.00  0.00    -0.346 OA
HETATM   11  C18 UNL     1      26.637   2.169  51.240  1.00  0.00     0.202 C 
HETATM   12  C19 UNL     1      25.244   2.440  50.774  1.00  0.00     0.202 C 
HETATM   13  O4  UNL     1      24.297   1.550  51.373  1.00  0.00    -0.344 OA
HETATM   14  H5  UNL     1      21.776  -1.803  55.537  1.00  0.00     0.187 HD
ENDROOT
BRANCH   7  15
HETATM   15  O1  UNL     1      22.130   1.165  52.376  1.00  0.00    -0.339 OA
BRANCH  15  16
HETATM   16  C7  UNL     1      20.850   1.471  52.817  1.00  0.00     0.170 C 
BRANCH  16  17
HETATM   17  C8  UNL     1      20.383   2.849  52.449  1.00  0.00     0.154 C 
BRANCH  17  18
HETATM   18  N4  UNL     1      20.828   3.254  51.129  1.00  0.00    -0.386 N 
HETATM   19  H10 UNL     1      20.424   2.910  50.216  1.00  0.00     0.159 HD
BRANCH  18  20
HETATM   20  C9  UNL     1      21.881   4.179  50.911  1.00  0.00     0.043 A 
HETATM   21  C10 UNL     1      22.574   4.676  52.022  1.00  0.00     0.034 A 
HETATM   22  C11 UNL     1      23.617   5.574  51.992  1.00  0.00     0.046 A 
HETATM   23  C12 UNL     1      24.163   6.143  50.889  1.00  0.00     0.139 A 
HETATM   24  F1  UNL     1      25.207   7.032  50.969  1.00  0.00    -0.204 F 
HETATM   25  C13 UNL     1      23.766   5.919  49.576  1.00  0.00     0.087 A 
HETATM   26 CL1  UNL     1      24.509   6.682  48.186  1.00  0.00    -0.079 Cl
HETATM   27  P1  UNL     1      22.437   4.793  49.381  1.00  0.00     0.024 P 
ENDBRANCH  18  20
ENDBRANCH  17  18
ENDBRANCH  16  17
BRANCH  16  28
HETATM   28  C14 UNL     1      19.896   0.424  52.247  1.00  0.00     0.201 C 
BRANCH  28  29
HETATM   29  O2  UNL     1      18.815   1.131  51.714  1.00  0.00    -0.393 OA
HETATM   30  C15 UNL     1      18.172   0.421  50.727  1.00  0.00     0.201 C 
ENDBRANCH  28  29
ENDBRANCH  16  28
ENDBRANCH  15  16
ENDBRANCH   7  15
BRANCH   1  31
HETATM   31  N1  UNL     1      27.694   1.145  54.569  1.00  0.00    -0.278 NA
HETATM   32  C1  UNL     1      28.537   0.225  54.929  1.00  0.00     0.145 C 
ENDBRANCH   1  31
TORSDOF 8
ENDMDL
MODEL 5
REMARK VINA RESULT:      -7.4      4.606      6.462
REMARK  8 active torsions:
REMARK  status: ('A' for Active; 'I' for Inactive)
REMARK    1  A    between atoms: N1_2  and  C2_3 
REMARK    2  A    between atoms: C6_9  and  O1_10 
REMARK    3  A    between atoms: O1_10  and  C7_11 
REMARK    4  A    between atoms: C7_11  and  C8_12 
REMARK    5  A    between atoms: C7_11  and  C14_22 
REMARK    6  A    between atoms: C8_12  and  N4_13 
REMARK    7  A    between atoms: N4_13  and  C9_14 
REMARK    8  A    between atoms: C14_22  and  O2_23 
ROOT
HETATM    1  C2  UNL     1      26.150   0.945  54.481  1.00  0.00     0.287 C 
HETATM    2  N2  UNL     1      25.803  -0.412  54.839  1.00  0.00    -0.265 NA
HETATM    3  C3  UNL     1      24.724  -1.114  54.898  1.00  0.00     0.144 C 
HETATM    4  C4  UNL     1      23.285  -0.899  54.632  1.00  0.00     0.068 C 
HETATM    5  N3  UNL     1      22.459  -1.637  55.289  1.00  0.00    -0.299 NA
HETATM    6  C5  UNL     1      22.643   0.058  53.702  1.00  0.00     0.072 C 
HETATM    7  C6  UNL     1      23.069   1.004  52.847  1.00  0.00     0.107 C 
HETATM    8  C16 UNL     1      24.435   1.428  52.537  1.00  0.00     0.135 C 
HETATM    9  C17 UNL     1      25.593   1.390  53.188  1.00  0.00     0.128 C 
HETATM   10  O3  UNL     1      26.679   1.915  52.507  1.00  0.00    -0.346 OA
HETATM   11  C18 UNL     1      26.676   2.418  51.209  1.00  0.00     0.202 C 
HETATM   12  C19 UNL     1      25.318   2.821  50.734  1.00  0.00     0.202 C 
HETATM   13  O4  UNL     1      24.296   1.960  51.248  1.00  0.00    -0.344 OA
HETATM   14  H5  UNL     1      21.442  -1.489  55.106  1.00  0.00     0.187 HD
ENDROOT
BRANCH   7  15
HETATM   15  O1  UNL     1      22.083   1.661  52.175  1.00  0.00    -0.339 OA
BRANCH  15  16
HETATM   16  C7  UNL     1      21.229   2.659  52.624  1.00  0.00     0.170 C 
BRANCH  16  17
HETATM   17  C8  UNL     1      21.538   4.025  52.083  1.00  0.00     0.154 C 
BRANCH  17  18
HETATM   18  N4  UNL     1      21.837   4.007  50.663  1.00  0.00    -0.386 N 
HETATM   19  H10 UNL     1      21.529   3.259  49.984  1.00  0.00     0.159 HD
BRANCH  18  20
HETATM   20  C9  UNL     1      22.595   5.014  50.012  1.00  0.00     0.043 A 
HETATM   21  C10 UNL     1      22.674   4.991  48.615  1.00  0.00     0.034 A 
HETATM   22  C11 UNL     1      23.362   5.887  47.827  1.00  0.00     0.046 A 
HETATM   23  C12 UNL     1      24.085   6.951  48.254  1.00  0.00     0.139 A 
HETATM   24  F1  UNL     1      24.736   7.788  47.380  1.00  0.00    -0.204 F 
HETATM   25  C13 UNL     1      24.266   7.334  49.577  1.00  0.00     0.087 A 
HETATM   26 CL1  UNL     1      25.212   8.721  50.075  1.00  0.00    -0.079 Cl
HETATM   27  P1  UNL     1      23.466   6.319  50.763  1.00  0.00     0.024 P 
ENDBRANCH  18  20
ENDBRANCH  17  18
ENDBRANCH  16  17
BRANCH  16  28
HETATM   28  C14 UNL     1      19.804   2.258  52.253  1.00  0.00     0.201 C 
BRANCH  28  29
HETATM   29  O2  UNL     1      19.104   3.450  52.052  1.00  0.00    -0.393 OA
HETATM   30  C15 UNL     1      17.853   3.230  51.524  1.00  0.00     0.201 C 
ENDBRANCH  28  29
ENDBRANCH  16  28
ENDBRANCH  15  16
ENDBRANCH   7  15
BRANCH   1  31
HETATM   31  N1  UNL     1      27.573   1.090  54.476  1.00  0.00    -0.278 NA
HETATM   32  C1  UNL     1      28.340   0.100  54.819  1.00  0.00     0.145 C 
ENDBRANCH   1  31
TORSDOF 8
ENDMDL
MODEL 6
REMARK VINA RESULT:      -7.4      3.937      5.314
REMARK  8 active torsions:
REMARK  status: ('A' for Active; 'I' for Inactive)
REMARK    1  A    between atoms: N1_2  and  C2_3 
REMARK    2  A    between atoms: C6_9  and  O1_10 
REMARK    3  A    between atoms: O1_10  and  C7_11 
REMARK    4  A    between atoms: C7_11  and  C8_12 
REMARK    5  A    between atoms: C7_11  and  C14_22 
REMARK    6  A    between atoms: C8_12  and  N4_13 
REMARK    7  A    between atoms: N4_13  and  C9_14 
REMARK    8  A    between atoms: C14_22  and  O2_23 
ROOT
HETATM    1  C2  UNL     1      24.020   1.371  52.584  1.00  0.00     0.287 C 
HETATM    2  N2  UNL     1      24.308   2.744  52.930  1.00  0.00    -0.265 NA
HETATM    3  C3  UNL     1      23.698   3.876  52.840  1.00  0.00     0.144 C 
HETATM    4  C4  UNL     1      22.393   4.358  52.337  1.00  0.00     0.068 C 
HETATM    5  N3  UNL     1      22.345   5.579  51.930  1.00  0.00    -0.299 NA
HETATM    6  C5  UNL     1      21.109   3.628  52.232  1.00  0.00     0.072 C 
HETATM    7  C6  UNL     1      20.683   2.383  52.507  1.00  0.00     0.107 C 
HETATM    8  C16 UNL     1      21.428   1.246  53.050  1.00  0.00     0.135 C 
HETATM    9  C17 UNL     1      22.708   0.890  53.060  1.00  0.00     0.128 C 
HETATM   10  O3  UNL     1      22.992  -0.303  53.706  1.00  0.00    -0.346 OA
HETATM   11  C18 UNL     1      22.082  -1.116  54.377  1.00  0.00     0.202 C 
HETATM   12  C19 UNL     1      20.666  -0.891  53.956  1.00  0.00     0.202 C 
HETATM   13  O4  UNL     1      20.413   0.483  53.644  1.00  0.00    -0.344 OA
HETATM   14  H5  UNL     1      21.427   5.925  51.574  1.00  0.00     0.187 HD
ENDROOT
BRANCH   7  15
HETATM   15  O1  UNL     1      19.368   2.151  52.240  1.00  0.00    -0.339 OA
BRANCH  15  16
HETATM   16  C7  UNL     1      18.653   2.388  51.074  1.00  0.00     0.170 C 
BRANCH  16  17
HETATM   17  C8  UNL     1      18.758   1.293  50.052  1.00  0.00     0.154 C 
BRANCH  17  18
HETATM   18  N4  UNL     1      19.400   1.734  48.828  1.00  0.00    -0.386 N 
HETATM   19  H10 UNL     1      19.023   1.585  47.853  1.00  0.00     0.159 HD
BRANCH  18  20
HETATM   20  C9  UNL     1      20.636   2.430  48.802  1.00  0.00     0.043 A 
HETATM   21  C10 UNL     1      21.797   1.743  49.175  1.00  0.00     0.034 A 
HETATM   22  C11 UNL     1      23.072   2.262  49.207  1.00  0.00     0.046 A 
HETATM   23  C12 UNL     1      23.438   3.528  48.886  1.00  0.00     0.139 A 
HETATM   24  F1  UNL     1      24.745   3.947  48.952  1.00  0.00    -0.204 F 
HETATM   25  C13 UNL     1      22.585   4.539  48.463  1.00  0.00     0.087 A 
HETATM   26 CL1  UNL     1      23.112   6.160  48.060  1.00  0.00    -0.079 Cl
HETATM   27  P1  UNL     1      20.894   4.090  48.349  1.00  0.00     0.024 P 
ENDBRANCH  18  20
ENDBRANCH  17  18
ENDBRANCH  16  17
BRANCH  16  28
HETATM   28  C14 UNL     1      17.193   2.611  51.457  1.00  0.00     0.201 C 
BRANCH  28  29
HETATM   29  O2  UNL     1      17.152   3.824  52.148  1.00  0.00    -0.393 OA
HETATM   30  C15 UNL     1      15.871   4.312  52.257  1.00  0.00     0.201 C 
ENDBRANCH  28  29
ENDBRANCH  16  28
ENDBRANCH  15  16
ENDBRANCH   7  15
BRANCH   1  31
HETATM   31  N1  UNL     1      25.061   0.524  53.080  1.00  0.00    -0.278 NA
HETATM   32  C1  UNL     1      26.112   0.276  52.358  1.00  0.00     0.145 C 
ENDBRANCH   1  31
TORSDOF 8
ENDMDL
MODEL 7
REMARK VINA RESULT:      -7.1      4.158      5.308
REMARK  8 active torsions:
REMARK  status: ('A' for Active; 'I' for Inactive)
REMARK    1  A    between atoms: N1_2  and  C2_3 
REMARK    2  A    between atoms: C6_9  and  O1_10 
REMARK    3  A    between atoms: O1_10  and  C7_11 
REMARK    4  A    between atoms: C7_11  and  C8_12 
REMARK    5  A    between atoms: C7_11  and  C14_22 
REMARK    6  A    between atoms: C8_12  and  N4_13 
REMARK    7  A    between atoms: N4_13  and  C9_14 
REMARK    8  A    between atoms: C14_22  and  O2_23 
ROOT
HETATM    1  C2  UNL     1      27.292  -0.138  53.140  1.00  0.00     0.287 C 
HETATM    2  N2  UNL     1      27.872   1.176  52.976  1.00  0.00    -0.265 NA
HETATM    3  C3  UNL     1      27.581   2.249  52.325  1.00  0.00     0.144 C 
HETATM    4  C4  UNL     1      26.506   2.695  51.411  1.00  0.00     0.068 C 
HETATM    5  N3  UNL     1      26.813   3.612  50.561  1.00  0.00    -0.299 NA
HETATM    6  C5  UNL     1      25.101   2.233  51.332  1.00  0.00     0.072 C 
HETATM    7  C6  UNL     1      24.347   1.323  51.974  1.00  0.00     0.107 C 
HETATM    8  C16 UNL     1      24.715   0.415  53.061  1.00  0.00     0.135 C 
HETATM    9  C17 UNL     1      25.855  -0.126  53.479  1.00  0.00     0.128 C 
HETATM   10  O3  UNL     1      25.754  -0.957  54.582  1.00  0.00    -0.346 OA
HETATM   11  C18 UNL     1      24.597  -1.228  55.309  1.00  0.00     0.202 C 
HETATM   12  C19 UNL     1      23.342  -0.955  54.547  1.00  0.00     0.202 C 
HETATM   13  O4  UNL     1      23.480   0.174  53.678  1.00  0.00    -0.344 OA
HETATM   14  H5  UNL     1      26.058   3.930  49.913  1.00  0.00     0.187 HD
ENDROOT
BRANCH   7  15
HETATM   15  O1  UNL     1      23.057   1.240  51.549  1.00  0.00    -0.339 OA
BRANCH  15  16
HETATM   16  C7  UNL     1      22.252   2.220  50.983  1.00  0.00     0.170 C 
BRANCH  16  17
HETATM   17  C8  UNL     1      21.722   1.875  49.622  1.00  0.00     0.154 C 
BRANCH  17  18
HETATM   18  N4  UNL     1      22.591   2.331  48.554  1.00  0.00    -0.386 N 
HETATM   19  H10 UNL     1      23.220   1.714  47.972  1.00  0.00     0.159 HD
BRANCH  18  20
HETATM   20  C9  UNL     1      22.697   3.691  48.162  1.00  0.00     0.043 A 
HETATM   21  C10 UNL     1      23.692   4.480  48.752  1.00  0.00     0.034 A 
HETATM   22  C11 UNL     1      23.934   5.810  48.490  1.00  0.00     0.046 A 
HETATM   23  C12 UNL     1      23.259   6.598  47.617  1.00  0.00     0.139 A 
HETATM   24  F1  UNL     1      23.584   7.920  47.429  1.00  0.00    -0.204 F 
HETATM   25  C13 UNL     1      22.191   6.203  46.822  1.00  0.00     0.087 A 
HETATM   26 CL1  UNL     1      21.354   7.264  45.709  1.00  0.00    -0.079 Cl
HETATM   27  P1  UNL     1      21.710   4.526  46.998  1.00  0.00     0.024 P 
ENDBRANCH  18  20
ENDBRANCH  17  18
ENDBRANCH  16  17
BRANCH  16  28
HETATM   28  C14 UNL     1      21.097   2.489  51.944  1.00  0.00     0.201 C 
BRANCH  28  29
HETATM   29  O2  UNL     1      20.871   3.868  51.904  1.00  0.00    -0.393 OA
HETATM   30  C15 UNL     1      22.021   4.585  52.141  1.00  0.00     0.201 C 
ENDBRANCH  28  29
ENDBRANCH  16  28
ENDBRANCH  15  16
ENDBRANCH   7  15
BRANCH   1  31
HETATM   31  N1  UNL     1      28.022  -0.862  54.134  1.00  0.00    -0.278 NA
HETATM   32  C1  UNL     1      29.315  -0.765  54.207  1.00  0.00     0.145 C 
ENDBRANCH   1  31
TORSDOF 8
ENDMDL
MODEL 8
REMARK VINA RESULT:      -6.8      3.304      6.306
REMARK  8 active torsions:
REMARK  status: ('A' for Active; 'I' for Inactive)
REMARK    1  A    between atoms: N1_2  and  C2_3 
REMARK    2  A    between atoms: C6_9  and  O1_10 
REMARK    3  A    between atoms: O1_10  and  C7_11 
REMARK    4  A    between atoms: C7_11  and  C8_12 
REMARK    5  A    between atoms: C7_11  and  C14_22 
REMARK    6  A    between atoms: C8_12  and  N4_13 
REMARK    7  A    between atoms: N4_13  and  C9_14 
REMARK    8  A    between atoms: C14_22  and  O2_23 
ROOT
HETATM    1  C2  UNL     1      25.120   7.552  48.794  1.00  0.00     0.287 C 
HETATM    2  N2  UNL     1      26.333   7.547  48.007  1.00  0.00    -0.265 NA
HETATM    3  C3  UNL     1      27.387   6.811  47.923  1.00  0.00     0.144 C 
HETATM    4  C4  UNL     1      27.904   5.593  48.585  1.00  0.00     0.068 C 
HETATM    5  N3  UNL     1      29.183   5.454  48.623  1.00  0.00    -0.299 NA
HETATM    6  C5  UNL     1      27.150   4.487  49.220  1.00  0.00     0.072 C 
HETATM    7  C6  UNL     1      25.853   4.201  49.431  1.00  0.00     0.107 C 
HETATM    8  C16 UNL     1      24.662   4.969  49.065  1.00  0.00     0.135 C 
HETATM    9  C17 UNL     1      24.417   6.254  48.828  1.00  0.00     0.128 C 
HETATM   10  O3  UNL     1      23.107   6.563  48.501  1.00  0.00    -0.346 OA
HETATM   11  C18 UNL     1      22.059   5.658  48.347  1.00  0.00     0.202 C 
HETATM   12  C19 UNL     1      22.298   4.354  49.034  1.00  0.00     0.202 C 
HETATM   13  O4  UNL     1      23.678   3.974  48.995  1.00  0.00    -0.344 OA
HETATM   14  H5  UNL     1      29.554   4.596  49.088  1.00  0.00     0.187 HD
ENDROOT
BRANCH   7  15
HETATM   15  O1  UNL     1      25.620   3.028  50.081  1.00  0.00    -0.339 OA
BRANCH  15  16
HETATM   16  C7  UNL     1      25.746   2.732  51.432  1.00  0.00     0.170 C 
BRANCH  16  17
HETATM   17  C8  UNL     1      24.465   2.318  52.096  1.00  0.00     0.154 C 
BRANCH  17  18
HETATM   18  N4  UNL     1      23.600   1.559  51.212  1.00  0.00    -0.386 N 
HETATM   19  H10 UNL     1      23.814   1.318  50.207  1.00  0.00     0.159 HD
BRANCH  18  20
HETATM   20  C9  UNL     1      22.338   1.045  51.608  1.00  0.00     0.043 A 
HETATM   21  C10 UNL     1      22.208   0.518  52.898  1.00  0.00     0.034 A 
HETATM   22  C11 UNL     1      21.063  -0.019  53.443  1.00  0.00     0.046 A 
HETATM   23  C12 UNL     1      19.857  -0.138  52.836  1.00  0.00     0.139 A 
HETATM   24  F1  UNL     1      18.772  -0.691  53.472  1.00  0.00    -0.204 F 
HETATM   25  C13 UNL     1      19.555   0.265  51.541  1.00  0.00     0.087 A 
HETATM   26 CL1  UNL     1      17.975   0.089  50.805  1.00  0.00    -0.079 Cl
HETATM   27  P1  UNL     1      20.884   0.986  50.655  1.00  0.00     0.024 P 
ENDBRANCH  18  20
ENDBRANCH  17  18
ENDBRANCH  16  17
BRANCH  16  28
HETATM   28  C14 UNL     1      26.790   1.628  51.573  1.00  0.00     0.201 C 
BRANCH  28  29
HETATM   29  O2  UNL     1      26.395   0.856  52.668  1.00  0.00    -0.393 OA
HETATM   30  C15 UNL     1      27.019  -0.370  52.686  1.00  0.00     0.201 C 
ENDBRANCH  28  29
ENDBRANCH  16  28
ENDBRANCH  15  16
ENDBRANCH   7  15
BRANCH   1  31
HETATM   31  N1  UNL     1      24.240   8.571  48.311  1.00  0.00    -0.278 NA
HETATM   32  C1  UNL     1      24.665   9.788  48.146  1.00  0.00     0.145 C 
ENDBRANCH   1  31
TORSDOF 8
ENDMDL
MODEL 9
REMARK VINA RESULT:      -6.8      3.997      5.816
REMARK  8 active torsions:
REMARK  status: ('A' for Active; 'I' for Inactive)
REMARK    1  A    between atoms: N1_2  and  C2_3 
REMARK    2  A    between atoms: C6_9  and  O1_10 
REMARK    3  A    between atoms: O1_10  and  C7_11 
REMARK    4  A    between atoms: C7_11  and  C8_12 
REMARK    5  A    between atoms: C7_11  and  C14_22 
REMARK    6  A    between atoms: C8_12  and  N4_13 
REMARK    7  A    between atoms: N4_13  and  C9_14 
REMARK    8  A    between atoms: C14_22  and  O2_23 
ROOT
HETATM    1  C2  UNL     1      26.162   0.955  54.481  1.00  0.00     0.287 C 
HETATM    2  N2  UNL     1      25.830  -0.398  54.864  1.00  0.00    -0.265 NA
HETATM    3  C3  UNL     1      24.760  -1.113  54.929  1.00  0.00     0.144 C 
HETATM    4  C4  UNL     1      23.320  -0.923  54.646  1.00  0.00     0.068 C 
HETATM    5  N3  UNL     1      22.498  -1.657  55.312  1.00  0.00    -0.299 NA
HETATM    6  C5  UNL     1      22.674   0.006  53.690  1.00  0.00     0.072 C 
HETATM    7  C6  UNL     1      23.095   0.940  52.819  1.00  0.00     0.107 C 
HETATM    8  C16 UNL     1      24.458   1.375  52.512  1.00  0.00     0.135 C 
HETATM    9  C17 UNL     1      25.611   1.366  53.174  1.00  0.00     0.128 C 
HETATM   10  O3  UNL     1      26.696   1.891  52.491  1.00  0.00    -0.346 OA
HETATM   11  C18 UNL     1      26.697   2.366  51.182  1.00  0.00     0.202 C 
HETATM   12  C19 UNL     1      25.339   2.740  50.687  1.00  0.00     0.202 C 
HETATM   13  O4  UNL     1      24.323   1.877  51.211  1.00  0.00    -0.344 OA
HETATM   14  H5  UNL     1      21.481  -1.527  55.117  1.00  0.00     0.187 HD
ENDROOT
BRANCH   7  15
HETATM   15  O1  UNL     1      22.106   1.568  52.125  1.00  0.00    -0.339 OA
BRANCH  15  16
HETATM   16  C7  UNL     1      21.154   2.472  52.577  1.00  0.00     0.170 C 
BRANCH  16  17
HETATM   17  C8  UNL     1      21.383   3.886  52.128  1.00  0.00     0.154 C 
BRANCH  17  18
HETATM   18  N4  UNL     1      22.119   3.962  50.880  1.00  0.00    -0.386 N 
HETATM   19  H10 UNL     1      23.021   3.453  50.671  1.00  0.00     0.159 HD
BRANCH  18  20
HETATM   20  C9  UNL     1      21.702   4.746  49.774  1.00  0.00     0.043 A 
HETATM   21  C10 UNL     1      22.601   4.944  48.720  1.00  0.00     0.034 A 
HETATM   22  C11 UNL     1      22.362   5.673  47.576  1.00  0.00     0.046 A 
HETATM   23  C12 UNL     1      21.219   6.331  47.260  1.00  0.00     0.139 A 
HETATM   24  F1  UNL     1      21.083   7.032  46.087  1.00  0.00    -0.204 F 
HETATM   25  C13 UNL     1      20.072   6.389  48.041  1.00  0.00     0.087 A 
HETATM   26 CL1  UNL     1      18.620   7.256  47.584  1.00  0.00    -0.079 Cl
HETATM   27  P1  UNL     1      20.158   5.518  49.560  1.00  0.00     0.024 P 
ENDBRANCH  18  20
ENDBRANCH  17  18
ENDBRANCH  16  17
BRANCH  16  28
HETATM   28  C14 UNL     1      19.786   1.986  52.105  1.00  0.00     0.201 C 
BRANCH  28  29
HETATM   29  O2  UNL     1      19.875   1.863  50.716  1.00  0.00    -0.393 OA
HETATM   30  C15 UNL     1      18.931   0.997  50.215  1.00  0.00     0.201 C 
ENDBRANCH  28  29
ENDBRANCH  16  28
ENDBRANCH  15  16
ENDBRANCH   7  15
BRANCH   1  31
HETATM   31  N1  UNL     1      27.583   1.119  54.485  1.00  0.00    -0.278 NA
HETATM   32  C1  UNL     1      28.358   0.162  54.898  1.00  0.00     0.145 C 
ENDBRANCH   1  31
TORSDOF 8
ENDMDL
