MODEL 1
REMARK VINA RESULT:      -9.1      0.000      0.000
REMARK  8 active torsions:
REMARK  status: ('A' for Active; 'I' for Inactive)
REMARK    1  A    between atoms: O1_2  and  C2_3 
REMARK    2  A    between atoms: C6_8  and  C7_9 
REMARK    3  A    between atoms: C9_12  and  N3_13 
REMARK    4  A    between atoms: N3_13  and  C10_14 
REMARK    5  A    between atoms: C18_24  and  N4_25 
REMARK       I    between atoms: N4_25  and  C19_26 
REMARK    6  A    between atoms: C19_26  and  C20_28 
REMARK    7  A    between atoms: C21_29  and  C22_30 
REMARK    8  A    between atoms: C22_30  and  N5_31 
ROOT
HETATM    1  C7  UNL     1      23.028  -0.730  53.830  1.00  0.00     0.166 C 
HETATM    2  C8  UNL     1      21.794  -1.431  54.260  1.00  0.00     0.063 C 
HETATM    3  N2  UNL     1      20.835  -1.986  54.589  1.00  0.00    -0.197 NA
ENDROOT
BRANCH   1   4
HETATM    4  C6  UNL     1      22.698   0.527  53.123  1.00  0.00     0.000 A 
HETATM    5  C5  UNL     1      21.471   1.114  53.333  1.00  0.00     0.127 A 
HETATM    6  N1  UNL     1      21.176   2.256  52.689  1.00  0.00    -0.260 NA
HETATM    7  C4  UNL     1      22.054   2.832  51.848  1.00  0.00     0.071 A 
HETATM    8  C3  UNL     1      21.575   4.067  51.230  1.00  0.00     0.065 C 
HETATM    9  C16 UNL     1      23.300   2.241  51.632  1.00  0.00     0.022 A 
HETATM   10  C2  UNL     1      22.027   4.742  50.157  1.00  0.00     0.053 C 
HETATM   11  C23 UNL     1      23.150   4.436  49.275  1.00  0.00     0.121 C 
HETATM   12  C18 UNL     1      24.230   3.624  49.814  1.00  0.00     0.019 C 
HETATM   13  C17 UNL     1      24.372   2.716  50.763  1.00  0.00     0.041 C 
HETATM   14  C9  UNL     1      23.654   1.051  52.280  1.00  0.00     0.054 A 
BRANCH  10  15
HETATM   15  O1  UNL     1      21.333   5.900  49.831  1.00  0.00    -0.360 OA
HETATM   16  C1  UNL     1      21.582   7.080  50.569  1.00  0.00     0.209 C 
ENDBRANCH  10  15
BRANCH  12  17
HETATM   17  N4  UNL     1      25.483   3.834  49.176  1.00  0.00    -0.327 N 
HETATM   18  C19 UNL     1      26.313   4.994  49.317  1.00  0.00     0.245 C 
HETATM   19  O2  UNL     1      25.795   5.810  50.084  1.00  0.00    -0.268 OA
HETATM   20  H13 UNL     1      25.757   3.013  48.555  1.00  0.00     0.169 HD
BRANCH  18  21
HETATM   21  C20 UNL     1      27.568   5.077  48.604  1.00  0.00     0.072 C 
HETATM   22  C21 UNL     1      28.080   6.220  48.185  1.00  0.00     0.008 C 
BRANCH  22  23
HETATM   23  C22 UNL     1      27.644   7.626  48.265  1.00  0.00     0.294 C 
BRANCH  23  24
HETATM   24  N5  UNL     1      27.842   8.144  49.621  1.00  0.00     0.081 N 
HETATM   25  H18 UNL     1      27.494   9.125  49.689  1.00  0.00     0.313 HD
HETATM   26  H19 UNL     1      28.872   8.101  49.834  1.00  0.00     0.313 HD
ENDBRANCH  23  24
ENDBRANCH  22  23
ENDBRANCH  18  21
ENDBRANCH  12  17
BRANCH  14  27
HETATM   27  N3  UNL     1      24.934   0.501  52.017  1.00  0.00    -0.355 N 
HETATM   28  H8  UNL     1      24.732   0.230  51.031  1.00  0.00     0.166 HD
BRANCH  27  29
HETATM   29  C10 UNL     1      26.134   0.311  52.710  1.00  0.00     0.034 A 
HETATM   30  C11 UNL     1      26.625   1.305  53.527  1.00  0.00     0.032 A 
HETATM   31  C12 UNL     1      27.815   1.041  54.175  1.00  0.00     0.046 A 
HETATM   32  C13 UNL     1      28.510  -0.164  54.030  1.00  0.00     0.138 A 
HETATM   33  F1  UNL     1      29.673  -0.441  54.651  1.00  0.00    -0.204 F 
HETATM   34  C14 UNL     1      27.943  -1.106  53.187  1.00  0.00     0.074 A 
HETATM   35 CL1  UNL     1      28.802  -2.640  52.984  1.00  0.00    -0.081 Cl
HETATM   36  C15 UNL     1      26.747  -0.904  52.504  1.00  0.00     0.056 A 
ENDBRANCH  27  29
ENDBRANCH  14  27
ENDBRANCH   1   4
TORSDOF 8
ENDMDL
MODEL 2
REMARK VINA RESULT:      -8.8      3.455      5.848
REMARK  8 active torsions:
REMARK  status: ('A' for Active; 'I' for Inactive)
REMARK    1  A    between atoms: O1_2  and  C2_3 
REMARK    2  A    between atoms: C6_8  and  C7_9 
REMARK    3  A    between atoms: C9_12  and  N3_13 
REMARK    4  A    between atoms: N3_13  and  C10_14 
REMARK    5  A    between atoms: C18_24  and  N4_25 
REMARK       I    between atoms: N4_25  and  C19_26 
REMARK    6  A    between atoms: C19_26  and  C20_28 
REMARK    7  A    between atoms: C21_29  and  C22_30 
REMARK    8  A    between atoms: C22_30  and  N5_31 
ROOT
HETATM    1  C7  UNL     1      19.625  -0.170  53.141  1.00  0.00     0.166 C 
HETATM    2  C8  UNL     1      18.897  -1.418  53.473  1.00  0.00     0.063 C 
HETATM    3  N2  UNL     1      18.323  -2.386  53.739  1.00  0.00    -0.197 NA
ENDROOT
BRANCH   1   4
HETATM    4  C6  UNL     1      21.055  -0.285  53.501  1.00  0.00     0.000 A 
HETATM    5  C5  UNL     1      21.410  -0.987  54.631  1.00  0.00     0.127 A 
HETATM    6  N1  UNL     1      22.711  -1.089  54.953  1.00  0.00    -0.260 NA
HETATM    7  C4  UNL     1      23.666  -0.523  54.194  1.00  0.00     0.071 A 
HETATM    8  C3  UNL     1      25.027  -0.728  54.686  1.00  0.00     0.065 C 
HETATM    9  C16 UNL     1      23.313   0.190  53.047  1.00  0.00     0.022 A 
HETATM   10  C2  UNL     1      26.174  -0.095  54.379  1.00  0.00     0.053 C 
HETATM   11  C23 UNL     1      26.405   1.005  53.448  1.00  0.00     0.121 C 
HETATM   12  C18 UNL     1      25.465   1.168  52.349  1.00  0.00     0.019 C 
HETATM   13  C17 UNL     1      24.202   0.868  52.109  1.00  0.00     0.041 C 
HETATM   14  C9  UNL     1      21.970   0.324  52.670  1.00  0.00     0.054 A 
BRANCH  10  15
HETATM   15  O1  UNL     1      27.312  -0.545  55.038  1.00  0.00    -0.360 OA
HETATM   16  C1  UNL     1      28.558   0.054  54.744  1.00  0.00     0.209 C 
ENDBRANCH  10  15
BRANCH  12  17
HETATM   17  N4  UNL     1      26.015   1.822  51.213  1.00  0.00    -0.327 N 
HETATM   18  C19 UNL     1      25.742   3.170  50.806  1.00  0.00     0.245 C 
HETATM   19  O2  UNL     1      24.951   3.709  51.585  1.00  0.00    -0.268 OA
HETATM   20  H13 UNL     1      26.676   1.189  50.669  1.00  0.00     0.169 HD
BRANCH  18  21
HETATM   21  C20 UNL     1      26.372   3.710  49.622  1.00  0.00     0.072 C 
HETATM   22  C21 UNL     1      26.250   4.974  49.259  1.00  0.00     0.008 C 
BRANCH  22  23
HETATM   23  C22 UNL     1      25.541   6.136  49.824  1.00  0.00     0.294 C 
BRANCH  23  24
HETATM   24  N5  UNL     1      26.473   7.248  50.034  1.00  0.00     0.081 N 
HETATM   25  H18 UNL     1      27.104   7.351  49.211  1.00  0.00     0.313 HD
HETATM   26  H19 UNL     1      27.029   7.040  50.903  1.00  0.00     0.313 HD
ENDBRANCH  23  24
ENDBRANCH  22  23
ENDBRANCH  18  21
ENDBRANCH  12  17
BRANCH  14  27
HETATM   27  N3  UNL     1      21.676   1.061  51.494  1.00  0.00    -0.355 N 
HETATM   28  H8  UNL     1      21.397   0.236  50.919  1.00  0.00     0.166 HD
BRANCH  27  29
HETATM   29  C10 UNL     1      21.698   2.398  51.086  1.00  0.00     0.034 A 
HETATM   30  C11 UNL     1      21.294   3.392  51.949  1.00  0.00     0.032 A 
HETATM   31  C12 UNL     1      21.346   4.685  51.471  1.00  0.00     0.046 A 
HETATM   32  C13 UNL     1      21.780   5.003  50.180  1.00  0.00     0.138 A 
HETATM   33  F1  UNL     1      21.837   6.258  49.693  1.00  0.00    -0.204 F 
HETATM   34  C14 UNL     1      22.168   3.941  49.380  1.00  0.00     0.074 A 
HETATM   35 CL1  UNL     1      22.722   4.313  47.741  1.00  0.00    -0.081 Cl
HETATM   36  C15 UNL     1      22.141   2.614  49.800  1.00  0.00     0.056 A 
ENDBRANCH  27  29
ENDBRANCH  14  27
ENDBRANCH   1   4
TORSDOF 8
ENDMDL
MODEL 3
REMARK VINA RESULT:      -8.7      2.219      3.027
REMARK  8 active torsions:
REMARK  status: ('A' for Active; 'I' for Inactive)
REMARK    1  A    between atoms: O1_2  and  C2_3 
REMARK    2  A    between atoms: C6_8  and  C7_9 
REMARK    3  A    between atoms: C9_12  and  N3_13 
REMARK    4  A    between atoms: N3_13  and  C10_14 
REMARK    5  A    between atoms: C18_24  and  N4_25 
REMARK       I    between atoms: N4_25  and  C19_26 
REMARK    6  A    between atoms: C19_26  and  C20_28 
REMARK    7  A    between atoms: C21_29  and  C22_30 
REMARK    8  A    between atoms: C22_30  and  N5_31 
ROOT
HETATM    1  C7  UNL     1      23.443   1.470  52.780  1.00  0.00     0.166 C 
HETATM    2  C8  UNL     1      22.358   0.699  52.127  1.00  0.00     0.063 C 
HETATM    3  N2  UNL     1      21.519   0.090  51.615  1.00  0.00    -0.197 NA
ENDROOT
BRANCH   1   4
HETATM    4  C6  UNL     1      23.663   2.757  52.087  1.00  0.00     0.000 A 
HETATM    5  C5  UNL     1      22.720   3.754  52.203  1.00  0.00     0.127 A 
HETATM    6  N1  UNL     1      22.924   4.922  51.572  1.00  0.00    -0.260 NA
HETATM    7  C4  UNL     1      24.028   5.134  50.833  1.00  0.00     0.071 A 
HETATM    8  C3  UNL     1      24.094   6.457  50.213  1.00  0.00     0.065 C 
HETATM    9  C16 UNL     1      24.988   4.128  50.711  1.00  0.00     0.022 A 
HETATM   10  C2  UNL     1      24.861   6.915  49.208  1.00  0.00     0.053 C 
HETATM   11  C23 UNL     1      25.874   6.217  48.422  1.00  0.00     0.121 C 
HETATM   12  C18 UNL     1      26.527   5.068  49.031  1.00  0.00     0.019 C 
HETATM   13  C17 UNL     1      26.237   4.174  49.958  1.00  0.00     0.041 C 
HETATM   14  C9  UNL     1      24.820   2.893  51.351  1.00  0.00     0.054 A 
BRANCH  10  15
HETATM   15  O1  UNL     1      24.671   8.247  48.857  1.00  0.00    -0.360 OA
HETATM   16  C1  UNL     1      23.382   8.812  48.982  1.00  0.00     0.209 C 
ENDBRANCH  10  15
BRANCH  12  17
HETATM   17  N4  UNL     1      27.825   4.804  48.515  1.00  0.00    -0.327 N 
HETATM   18  C19 UNL     1      28.866   5.771  48.325  1.00  0.00     0.245 C 
HETATM   19  O2  UNL     1      28.489   6.892  48.675  1.00  0.00    -0.268 OA
HETATM   20  H13 UNL     1      27.956   3.775  48.271  1.00  0.00     0.169 HD
BRANCH  18  21
HETATM   21  C20 UNL     1      30.145   5.362  47.786  1.00  0.00     0.072 C 
HETATM   22  C21 UNL     1      31.279   5.504  48.447  1.00  0.00     0.008 C 
BRANCH  22  23
HETATM   23  C22 UNL     1      31.629   6.048  49.773  1.00  0.00     0.294 C 
BRANCH  23  24
HETATM   24  N5  UNL     1      31.395   7.494  49.808  1.00  0.00     0.081 N 
HETATM   25  H18 UNL     1      30.375   7.693  49.899  1.00  0.00     0.313 HD
HETATM   26  H19 UNL     1      31.773   7.902  48.915  1.00  0.00     0.313 HD
ENDBRANCH  23  24
ENDBRANCH  22  23
ENDBRANCH  18  21
ENDBRANCH  12  17
BRANCH  14  27
HETATM   27  N3  UNL     1      25.830   1.912  51.187  1.00  0.00    -0.355 N 
HETATM   28  H8  UNL     1      25.739   1.836  50.151  1.00  0.00     0.166 HD
BRANCH  27  29
HETATM   29  C10 UNL     1      26.716   1.202  52.004  1.00  0.00     0.034 A 
HETATM   30  C11 UNL     1      26.689  -0.175  52.021  1.00  0.00     0.032 A 
HETATM   31  C12 UNL     1      27.594  -0.801  52.853  1.00  0.00     0.046 A 
HETATM   32  C13 UNL     1      28.506  -0.103  53.650  1.00  0.00     0.138 A 
HETATM   33  F1  UNL     1      29.397  -0.694  54.470  1.00  0.00    -0.204 F 
HETATM   34  C14 UNL     1      28.463   1.280  53.570  1.00  0.00     0.074 A 
HETATM   35 CL1  UNL     1      29.605   2.191  54.569  1.00  0.00    -0.081 Cl
HETATM   36  C15 UNL     1      27.575   1.974  52.752  1.00  0.00     0.056 A 
ENDBRANCH  27  29
ENDBRANCH  14  27
ENDBRANCH   1   4
TORSDOF 8
ENDMDL
MODEL 4
REMARK VINA RESULT:      -8.6      3.885      7.161
REMARK  8 active torsions:
REMARK  status: ('A' for Active; 'I' for Inactive)
REMARK    1  A    between atoms: O1_2  and  C2_3 
REMARK    2  A    between atoms: C6_8  and  C7_9 
REMARK    3  A    between atoms: C9_12  and  N3_13 
REMARK    4  A    between atoms: N3_13  and  C10_14 
REMARK    5  A    between atoms: C18_24  and  N4_25 
REMARK       I    between atoms: N4_25  and  C19_26 
REMARK    6  A    between atoms: C19_26  and  C20_28 
REMARK    7  A    between atoms: C21_29  and  C22_30 
REMARK    8  A    between atoms: C22_30  and  N5_31 
ROOT
HETATM    1  C7  UNL     1      23.069   5.955  47.727  1.00  0.00     0.166 C 
HETATM    2  C8  UNL     1      22.348   7.106  48.323  1.00  0.00     0.063 C 
HETATM    3  N2  UNL     1      21.795   8.009  48.788  1.00  0.00    -0.197 NA
ENDROOT
BRANCH   1   4
HETATM    4  C6  UNL     1      22.967   4.765  48.599  1.00  0.00     0.000 A 
HETATM    5  C5  UNL     1      21.911   3.897  48.432  1.00  0.00     0.127 A 
HETATM    6  N1  UNL     1      21.823   2.817  49.226  1.00  0.00    -0.260 NA
HETATM    7  C4  UNL     1      22.743   2.569  50.175  1.00  0.00     0.071 A 
HETATM    8  C3  UNL     1      22.498   1.354  50.951  1.00  0.00     0.065 C 
HETATM    9  C16 UNL     1      23.817   3.445  50.349  1.00  0.00     0.022 A 
HETATM   10  C2  UNL     1      23.009   0.949  52.128  1.00  0.00     0.053 C 
HETATM   11  C23 UNL     1      23.976   1.613  52.997  1.00  0.00     0.121 C 
HETATM   12  C18 UNL     1      24.892   2.563  52.384  1.00  0.00     0.019 C 
HETATM   13  C17 UNL     1      24.902   3.342  51.318  1.00  0.00     0.041 C 
HETATM   14  C9  UNL     1      23.952   4.585  49.546  1.00  0.00     0.054 A 
BRANCH  10  15
HETATM   15  O1  UNL     1      22.557  -0.280  52.595  1.00  0.00    -0.360 OA
HETATM   16  C1  UNL     1      22.234  -0.416  53.964  1.00  0.00     0.209 C 
ENDBRANCH  10  15
BRANCH  12  17
HETATM   17  N4  UNL     1      26.114   2.724  53.094  1.00  0.00    -0.327 N 
HETATM   18  C19 UNL     1      27.378   2.154  52.730  1.00  0.00     0.245 C 
HETATM   19  O2  UNL     1      27.275   1.490  51.695  1.00  0.00    -0.268 OA
HETATM   20  H13 UNL     1      25.995   3.333  53.960  1.00  0.00     0.169 HD
BRANCH  18  21
HETATM   21  C20 UNL     1      28.545   2.399  53.548  1.00  0.00     0.072 C 
HETATM   22  C21 UNL     1      29.194   1.437  54.177  1.00  0.00     0.008 C 
BRANCH  22  23
HETATM   23  C22 UNL     1      29.012  -0.023  54.278  1.00  0.00     0.294 C 
BRANCH  23  24
HETATM   24  N5  UNL     1      27.838  -0.334  55.098  1.00  0.00     0.081 N 
HETATM   25  H18 UNL     1      27.844  -1.341  55.370  1.00  0.00     0.313 HD
HETATM   26  H19 UNL     1      26.981  -0.109  54.531  1.00  0.00     0.313 HD
ENDBRANCH  23  24
ENDBRANCH  22  23
ENDBRANCH  18  21
ENDBRANCH  12  17
BRANCH  14  27
HETATM   27  N3  UNL     1      25.063   5.435  49.773  1.00  0.00    -0.355 N 
HETATM   28  H8  UNL     1      24.693   5.862  50.649  1.00  0.00     0.166 HD
BRANCH  27  29
HETATM   29  C10 UNL     1      26.284   5.720  49.152  1.00  0.00     0.034 A 
HETATM   30  C11 UNL     1      27.217   4.723  48.972  1.00  0.00     0.032 A 
HETATM   31  C12 UNL     1      28.396   5.086  48.352  1.00  0.00     0.046 A 
HETATM   32  C13 UNL     1      28.660   6.389  47.918  1.00  0.00     0.138 A 
HETATM   33  F1  UNL     1      29.803   6.764  47.313  1.00  0.00    -0.204 F 
HETATM   34  C14 UNL     1      27.665   7.327  48.142  1.00  0.00     0.074 A 
HETATM   35 CL1  UNL     1      27.971   8.985  47.604  1.00  0.00    -0.081 Cl
HETATM   36  C15 UNL     1      26.453   7.028  48.760  1.00  0.00     0.056 A 
ENDBRANCH  27  29
ENDBRANCH  14  27
ENDBRANCH   1   4
TORSDOF 8
ENDMDL
MODEL 5
REMARK VINA RESULT:      -8.5      3.975      7.247
REMARK  8 active torsions:
REMARK  status: ('A' for Active; 'I' for Inactive)
REMARK    1  A    between atoms: O1_2  and  C2_3 
REMARK    2  A    between atoms: C6_8  and  C7_9 
REMARK    3  A    between atoms: C9_12  and  N3_13 
REMARK    4  A    between atoms: N3_13  and  C10_14 
REMARK    5  A    between atoms: C18_24  and  N4_25 
REMARK       I    between atoms: N4_25  and  C19_26 
REMARK    6  A    between atoms: C19_26  and  C20_28 
REMARK    7  A    between atoms: C21_29  and  C22_30 
REMARK    8  A    between atoms: C22_30  and  N5_31 
ROOT
HETATM    1  C7  UNL     1      22.295   4.685  47.030  1.00  0.00     0.166 C 
HETATM    2  C8  UNL     1      21.955   4.062  45.728  1.00  0.00     0.063 C 
HETATM    3  N2  UNL     1      21.681   3.582  44.712  1.00  0.00    -0.197 NA
ENDROOT
BRANCH   1   4
HETATM    4  C6  UNL     1      22.278   3.679  48.113  1.00  0.00     0.000 A 
HETATM    5  C5  UNL     1      21.214   2.809  48.208  1.00  0.00     0.127 A 
HETATM    6  N1  UNL     1      21.204   1.896  49.194  1.00  0.00    -0.260 NA
HETATM    7  C4  UNL     1      22.209   1.817  50.084  1.00  0.00     0.071 A 
HETATM    8  C3  UNL     1      22.040   0.770  51.091  1.00  0.00     0.065 C 
HETATM    9  C16 UNL     1      23.290   2.695  49.994  1.00  0.00     0.022 A 
HETATM   10  C2  UNL     1      22.658   0.583  52.272  1.00  0.00     0.053 C 
HETATM   11  C23 UNL     1      23.699   1.384  52.910  1.00  0.00     0.121 C 
HETATM   12  C18 UNL     1      24.552   2.191  52.051  1.00  0.00     0.019 C 
HETATM   13  C17 UNL     1      24.461   2.759  50.862  1.00  0.00     0.041 C 
HETATM   14  C9  UNL     1      23.347   3.664  48.983  1.00  0.00     0.054 A 
BRANCH  10  15
HETATM   15  O1  UNL     1      22.256  -0.531  52.998  1.00  0.00    -0.360 OA
HETATM   16  C1  UNL     1      22.638  -0.639  54.355  1.00  0.00     0.209 C 
ENDBRANCH  10  15
BRANCH  12  17
HETATM   17  N4  UNL     1      25.833   2.464  52.604  1.00  0.00    -0.327 N 
HETATM   18  C19 UNL     1      26.976   1.601  52.540  1.00  0.00     0.245 C 
HETATM   19  O2  UNL     1      26.707   0.565  51.929  1.00  0.00    -0.268 OA
HETATM   20  H13 UNL     1      25.864   3.411  53.091  1.00  0.00     0.169 HD
BRANCH  18  21
HETATM   21  C20 UNL     1      28.223   2.006  53.151  1.00  0.00     0.072 C 
HETATM   22  C21 UNL     1      28.829   1.294  54.084  1.00  0.00     0.008 C 
BRANCH  22  23
HETATM   23  C22 UNL     1      28.521   0.019  54.758  1.00  0.00     0.294 C 
BRANCH  23  24
HETATM   24  N5  UNL     1      28.715  -1.103  53.836  1.00  0.00     0.081 N 
HETATM   25  H18 UNL     1      28.364  -0.855  52.886  1.00  0.00     0.313 HD
HETATM   26  H19 UNL     1      28.188  -1.929  54.221  1.00  0.00     0.313 HD
ENDBRANCH  23  24
ENDBRANCH  22  23
ENDBRANCH  18  21
ENDBRANCH  12  17
BRANCH  14  27
HETATM   27  N3  UNL     1      24.471   4.526  48.946  1.00  0.00    -0.355 N 
HETATM   28  H8  UNL     1      25.115   3.842  48.493  1.00  0.00     0.166 HD
BRANCH  27  29
HETATM   29  C10 UNL     1      24.777   5.836  49.331  1.00  0.00     0.034 A 
HETATM   30  C11 UNL     1      23.845   6.593  50.006  1.00  0.00     0.032 A 
HETATM   31  C12 UNL     1      24.223   7.875  50.350  1.00  0.00     0.046 A 
HETATM   32  C13 UNL     1      25.479   8.408  50.043  1.00  0.00     0.138 A 
HETATM   33  F1  UNL     1      25.868   9.656  50.368  1.00  0.00    -0.204 F 
HETATM   34  C14 UNL     1      26.353   7.575  49.361  1.00  0.00     0.074 A 
HETATM   35 CL1  UNL     1      27.950   8.222  48.958  1.00  0.00    -0.081 Cl
HETATM   36  C15 UNL     1      26.035   6.273  48.985  1.00  0.00     0.056 A 
ENDBRANCH  27  29
ENDBRANCH  14  27
ENDBRANCH   1   4
TORSDOF 8
ENDMDL
MODEL 6
REMARK VINA RESULT:      -8.4      3.698      6.574
REMARK  8 active torsions:
REMARK  status: ('A' for Active; 'I' for Inactive)
REMARK    1  A    between atoms: O1_2  and  C2_3 
REMARK    2  A    between atoms: C6_8  and  C7_9 
REMARK    3  A    between atoms: C9_12  and  N3_13 
REMARK    4  A    between atoms: N3_13  and  C10_14 
REMARK    5  A    between atoms: C18_24  and  N4_25 
REMARK       I    between atoms: N4_25  and  C19_26 
REMARK    6  A    between atoms: C19_26  and  C20_28 
REMARK    7  A    between atoms: C21_29  and  C22_30 
REMARK    8  A    between atoms: C22_30  and  N5_31 
ROOT
HETATM    1  C7  UNL     1      26.786   1.379  51.886  1.00  0.00     0.166 C 
HETATM    2  C8  UNL     1      27.503   2.004  53.024  1.00  0.00     0.063 C 
HETATM    3  N2  UNL     1      28.068   2.483  53.911  1.00  0.00    -0.197 NA
ENDROOT
BRANCH   1   4
HETATM    4  C6  UNL     1      25.440   0.928  52.298  1.00  0.00     0.000 A 
HETATM    5  C5  UNL     1      25.322  -0.052  53.257  1.00  0.00     0.127 A 
HETATM    6  N1  UNL     1      24.096  -0.458  53.628  1.00  0.00    -0.260 NA
HETATM    7  C4  UNL     1      22.988   0.075  53.082  1.00  0.00     0.071 A 
HETATM    8  C3  UNL     1      21.736  -0.480  53.596  1.00  0.00     0.065 C 
HETATM    9  C16 UNL     1      23.100   1.069  52.109  1.00  0.00     0.022 A 
HETATM   10  C2  UNL     1      20.485  -0.418  53.106  1.00  0.00     0.053 C 
HETATM   11  C23 UNL     1      19.994   0.232  51.894  1.00  0.00     0.121 C 
HETATM   12  C18 UNL     1      20.765   1.348  51.368  1.00  0.00     0.019 C 
HETATM   13  C17 UNL     1      22.020   1.757  51.409  1.00  0.00     0.041 C 
HETATM   14  C9  UNL     1      24.357   1.525  51.689  1.00  0.00     0.054 A 
BRANCH  10  15
HETATM   15  O1  UNL     1      19.507  -1.062  53.855  1.00  0.00    -0.360 OA
HETATM   16  C1  UNL     1      18.258  -1.343  53.255  1.00  0.00     0.209 C 
ENDBRANCH  10  15
BRANCH  12  17
HETATM   17  N4  UNL     1      19.999   2.265  50.598  1.00  0.00    -0.327 N 
HETATM   18  C19 UNL     1      19.279   3.395  51.109  1.00  0.00     0.245 C 
HETATM   19  O2  UNL     1      19.411   3.478  52.332  1.00  0.00    -0.268 OA
HETATM   20  H13 UNL     1      20.010   2.022  49.561  1.00  0.00     0.169 HD
BRANCH  18  21
HETATM   21  C20 UNL     1      18.535   4.247  50.207  1.00  0.00     0.072 C 
HETATM   22  C21 UNL     1      19.044   5.342  49.674  1.00  0.00     0.008 C 
BRANCH  22  23
HETATM   23  C22 UNL     1      20.353   6.015  49.772  1.00  0.00     0.294 C 
BRANCH  23  24
HETATM   24  N5  UNL     1      21.270   5.495  48.755  1.00  0.00     0.081 N 
HETATM   25  H18 UNL     1      20.859   5.610  47.803  1.00  0.00     0.313 HD
HETATM   26  H19 UNL     1      21.438   4.477  48.964  1.00  0.00     0.313 HD
ENDBRANCH  23  24
ENDBRANCH  22  23
ENDBRANCH  18  21
ENDBRANCH  12  17
BRANCH  14  27
HETATM   27  N3  UNL     1      24.404   2.537  50.697  1.00  0.00    -0.355 N 
HETATM   28  H8  UNL     1      24.273   1.895  49.885  1.00  0.00     0.166 HD
BRANCH  27  29
HETATM   29  C10 UNL     1      24.561   3.925  50.650  1.00  0.00     0.034 A 
HETATM   30  C11 UNL     1      23.796   4.736  51.460  1.00  0.00     0.032 A 
HETATM   31  C12 UNL     1      24.011   6.095  51.354  1.00  0.00     0.046 A 
HETATM   32  C13 UNL     1      24.949   6.652  50.479  1.00  0.00     0.138 A 
HETATM   33  F1  UNL     1      25.173   7.975  50.360  1.00  0.00    -0.204 F 
HETATM   34  C14 UNL     1      25.673   5.763  49.702  1.00  0.00     0.074 A 
HETATM   35 CL1  UNL     1      26.867   6.440  48.585  1.00  0.00    -0.081 Cl
HETATM   36  C15 UNL     1      25.506   4.381  49.760  1.00  0.00     0.056 A 
ENDBRANCH  27  29
ENDBRANCH  14  27
ENDBRANCH   1   4
TORSDOF 8
ENDMDL
MODEL 7
REMARK VINA RESULT:      -8.4      3.935      6.212
REMARK  8 active torsions:
REMARK  status: ('A' for Active; 'I' for Inactive)
REMARK    1  A    between atoms: O1_2  and  C2_3 
REMARK    2  A    between atoms: C6_8  and  C7_9 
REMARK    3  A    between atoms: C9_12  and  N3_13 
REMARK    4  A    between atoms: N3_13  and  C10_14 
REMARK    5  A    between atoms: C18_24  and  N4_25 
REMARK       I    between atoms: N4_25  and  C19_26 
REMARK    6  A    between atoms: C19_26  and  C20_28 
REMARK    7  A    between atoms: C21_29  and  C22_30 
REMARK    8  A    between atoms: C22_30  and  N5_31 
ROOT
HETATM    1  C7  UNL     1      20.475   0.831  53.524  1.00  0.00     0.166 C 
HETATM    2  C8  UNL     1      19.593  -0.355  53.394  1.00  0.00     0.063 C 
HETATM    3  N2  UNL     1      18.903  -1.277  53.301  1.00  0.00    -0.197 NA
ENDROOT
BRANCH   1   4
HETATM    4  C6  UNL     1      21.897   0.427  53.547  1.00  0.00     0.000 A 
HETATM    5  C5  UNL     1      22.300  -0.571  54.405  1.00  0.00     0.127 A 
HETATM    6  N1  UNL     1      23.594  -0.934  54.421  1.00  0.00    -0.260 NA
HETATM    7  C4  UNL     1      24.496  -0.345  53.617  1.00  0.00     0.071 A 
HETATM    8  C3  UNL     1      25.858  -0.857  53.761  1.00  0.00     0.065 C 
HETATM    9  C16 UNL     1      24.094   0.668  52.744  1.00  0.00     0.022 A 
HETATM   10  C2  UNL     1      27.035  -0.340  53.362  1.00  0.00     0.053 C 
HETATM   11  C23 UNL     1      27.307   0.908  52.656  1.00  0.00     0.121 C 
HETATM   12  C18 UNL     1      26.242   1.466  51.836  1.00  0.00     0.019 C 
HETATM   13  C17 UNL     1      24.923   1.417  51.806  1.00  0.00     0.041 C 
HETATM   14  C9  UNL     1      22.756   1.081  52.691  1.00  0.00     0.054 A 
BRANCH  10  15
HETATM   15  O1  UNL     1      28.162  -1.095  53.661  1.00  0.00    -0.360 OA
HETATM   16  C1  UNL     1      29.431  -0.472  53.639  1.00  0.00     0.209 C 
ENDBRANCH  10  15
BRANCH  12  17
HETATM   17  N4  UNL     1      26.705   2.289  50.774  1.00  0.00    -0.327 N 
HETATM   18  C19 UNL     1      26.147   3.552  50.386  1.00  0.00     0.245 C 
HETATM   19  O2  UNL     1      25.192   3.847  51.109  1.00  0.00    -0.268 OA
HETATM   20  H13 UNL     1      27.540   1.861  50.270  1.00  0.00     0.169 HD
BRANCH  18  21
HETATM   21  C20 UNL     1      26.719   4.287  49.279  1.00  0.00     0.072 C 
HETATM   22  C21 UNL     1      26.364   5.524  48.981  1.00  0.00     0.008 C 
BRANCH  22  23
HETATM   23  C22 UNL     1      25.404   6.480  49.562  1.00  0.00     0.294 C 
BRANCH  23  24
HETATM   24  N5  UNL     1      25.915   7.008  50.829  1.00  0.00     0.081 N 
HETATM   25  H18 UNL     1      25.233   6.828  51.597  1.00  0.00     0.313 HD
HETATM   26  H19 UNL     1      26.071   8.041  50.708  1.00  0.00     0.313 HD
ENDBRANCH  23  24
ENDBRANCH  22  23
ENDBRANCH  18  21
ENDBRANCH  12  17
BRANCH  14  27
HETATM   27  N3  UNL     1      22.412   2.115  51.783  1.00  0.00    -0.355 N 
HETATM   28  H8  UNL     1      22.779   2.896  52.367  1.00  0.00     0.166 HD
BRANCH  27  29
HETATM   29  C10 UNL     1      21.801   2.222  50.529  1.00  0.00     0.034 A 
HETATM   30  C11 UNL     1      22.552   2.092  49.382  1.00  0.00     0.032 A 
HETATM   31  C12 UNL     1      21.876   2.211  48.184  1.00  0.00     0.046 A 
HETATM   32  C13 UNL     1      20.500   2.450  48.107  1.00  0.00     0.138 A 
HETATM   33  F1  UNL     1      19.821   2.570  46.949  1.00  0.00    -0.204 F 
HETATM   34  C14 UNL     1      19.825   2.567  49.311  1.00  0.00     0.074 A 
HETATM   35 CL1  UNL     1      18.083   2.871  49.243  1.00  0.00    -0.081 Cl
HETATM   36  C15 UNL     1      20.446   2.458  50.552  1.00  0.00     0.056 A 
ENDBRANCH  27  29
ENDBRANCH  14  27
ENDBRANCH   1   4
TORSDOF 8
ENDMDL
MODEL 8
REMARK VINA RESULT:      -8.4      1.778      6.234
REMARK  8 active torsions:
REMARK  status: ('A' for Active; 'I' for Inactive)
REMARK    1  A    between atoms: O1_2  and  C2_3 
REMARK    2  A    between atoms: C6_8  and  C7_9 
REMARK    3  A    between atoms: C9_12  and  N3_13 
REMARK    4  A    between atoms: N3_13  and  C10_14 
REMARK    5  A    between atoms: C18_24  and  N4_25 
REMARK       I    between atoms: N4_25  and  C19_26 
REMARK    6  A    between atoms: C19_26  and  C20_28 
REMARK    7  A    between atoms: C21_29  and  C22_30 
REMARK    8  A    between atoms: C22_30  and  N5_31 
ROOT
HETATM    1  C7  UNL     1      27.677   4.759  48.919  1.00  0.00     0.166 C 
HETATM    2  C8  UNL     1      28.081   6.000  48.214  1.00  0.00     0.063 C 
HETATM    3  N2  UNL     1      28.402   6.969  47.674  1.00  0.00    -0.197 NA
ENDROOT
BRANCH   1   4
HETATM    4  C6  UNL     1      26.226   4.765  49.202  1.00  0.00     0.000 A 
HETATM    5  C5  UNL     1      25.478   5.869  48.859  1.00  0.00     0.127 A 
HETATM    6  N1  UNL     1      24.159   5.870  49.117  1.00  0.00    -0.260 NA
HETATM    7  C4  UNL     1      23.561   4.816  49.701  1.00  0.00     0.071 A 
HETATM    8  C3  UNL     1      22.123   4.980  49.912  1.00  0.00     0.065 C 
HETATM    9  C16 UNL     1      24.313   3.693  50.051  1.00  0.00     0.022 A 
HETATM   10  C2  UNL     1      21.270   4.300  50.700  1.00  0.00     0.053 C 
HETATM   11  C23 UNL     1      21.530   3.176  51.594  1.00  0.00     0.121 C 
HETATM   12  C18 UNL     1      22.681   2.335  51.303  1.00  0.00     0.019 C 
HETATM   13  C17 UNL     1      23.842   2.468  50.688  1.00  0.00     0.041 C 
HETATM   14  C9  UNL     1      25.691   3.646  49.802  1.00  0.00     0.054 A 
BRANCH  10  15
HETATM   15  O1  UNL     1      19.946   4.719  50.665  1.00  0.00    -0.360 OA
HETATM   16  C1  UNL     1      18.968   3.857  50.118  1.00  0.00     0.209 C 
ENDBRANCH  10  15
BRANCH  12  17
HETATM   17  N4  UNL     1      22.564   1.007  51.799  1.00  0.00    -0.327 N 
HETATM   18  C19 UNL     1      23.236   0.478  52.950  1.00  0.00     0.245 C 
HETATM   19  O2  UNL     1      23.947   1.340  53.474  1.00  0.00    -0.268 OA
HETATM   20  H13 UNL     1      21.902   0.417  51.209  1.00  0.00     0.169 HD
BRANCH  18  21
HETATM   21  C20 UNL     1      23.026  -0.898  53.342  1.00  0.00     0.072 C 
HETATM   22  C21 UNL     1      21.852  -1.360  53.731  1.00  0.00     0.008 C 
BRANCH  22  23
HETATM   23  C22 UNL     1      20.517  -0.755  53.892  1.00  0.00     0.294 C 
BRANCH  23  24
HETATM   24  N5  UNL     1      20.538   0.248  54.960  1.00  0.00     0.081 N 
HETATM   25  H18 UNL     1      21.280   0.018  55.657  1.00  0.00     0.313 HD
HETATM   26  H19 UNL     1      19.590   0.251  55.416  1.00  0.00     0.313 HD
ENDBRANCH  23  24
ENDBRANCH  22  23
ENDBRANCH  18  21
ENDBRANCH  12  17
BRANCH  14  27
HETATM   27  N3  UNL     1      26.399   2.477  50.182  1.00  0.00    -0.355 N 
HETATM   28  H8  UNL     1      26.595   2.152  49.211  1.00  0.00     0.166 HD
BRANCH  27  29
HETATM   29  C10 UNL     1      26.781   1.847  51.370  1.00  0.00     0.034 A 
HETATM   30  C11 UNL     1      27.244   2.594  52.431  1.00  0.00     0.032 A 
HETATM   31  C12 UNL     1      27.601   1.897  53.568  1.00  0.00     0.046 A 
HETATM   32  C13 UNL     1      27.509   0.505  53.669  1.00  0.00     0.138 A 
HETATM   33  F1  UNL     1      27.853  -0.194  54.768  1.00  0.00    -0.204 F 
HETATM   34  C14 UNL     1      27.033  -0.165  52.554  1.00  0.00     0.074 A 
HETATM   35 CL1  UNL     1      26.907  -1.927  52.653  1.00  0.00    -0.081 Cl
HETATM   36  C15 UNL     1      26.656   0.477  51.377  1.00  0.00     0.056 A 
ENDBRANCH  27  29
ENDBRANCH  14  27
ENDBRANCH   1   4
TORSDOF 8
ENDMDL
MODEL 9
REMARK VINA RESULT:      -8.1      3.948      7.045
REMARK  8 active torsions:
REMARK  status: ('A' for Active; 'I' for Inactive)
REMARK    1  A    between atoms: O1_2  and  C2_3 
REMARK    2  A    between atoms: C6_8  and  C7_9 
REMARK    3  A    between atoms: C9_12  and  N3_13 
REMARK    4  A    between atoms: N3_13  and  C10_14 
REMARK    5  A    between atoms: C18_24  and  N4_25 
REMARK       I    between atoms: N4_25  and  C19_26 
REMARK    6  A    between atoms: C19_26  and  C20_28 
REMARK    7  A    between atoms: C21_29  and  C22_30 
REMARK    8  A    between atoms: C22_30  and  N5_31 
ROOT
HETATM    1  C7  UNL     1      25.604   0.542  52.825  1.00  0.00     0.166 C 
HETATM    2  C8  UNL     1      26.393   0.147  54.017  1.00  0.00     0.063 C 
HETATM    3  N2  UNL     1      27.012  -0.168  54.940  1.00  0.00    -0.197 NA
ENDROOT
BRANCH   1   4
HETATM    4  C6  UNL     1      24.170   0.242  53.022  1.00  0.00     0.000 A 
HETATM    5  C5  UNL     1      23.796  -0.641  54.010  1.00  0.00     0.127 A 
HETATM    6  N1  UNL     1      22.491  -0.910  54.185  1.00  0.00    -0.260 NA
HETATM    7  C4  UNL     1      21.549  -0.333  53.417  1.00  0.00     0.071 A 
HETATM    8  C3  UNL     1      20.181  -0.736  53.738  1.00  0.00     0.065 C 
HETATM    9  C16 UNL     1      21.921   0.563  52.413  1.00  0.00     0.022 A 
HETATM   10  C2  UNL     1      19.042  -0.610  53.032  1.00  0.00     0.053 C 
HETATM   11  C23 UNL     1      18.831  -0.025  51.711  1.00  0.00     0.121 C 
HETATM   12  C18 UNL     1      19.785   0.974  51.255  1.00  0.00     0.019 C 
HETATM   13  C17 UNL     1      21.048   1.278  51.489  1.00  0.00     0.041 C 
HETATM   14  C9  UNL     1      23.270   0.875  52.192  1.00  0.00     0.054 A 
BRANCH  10  15
HETATM   15  O1  UNL     1      17.894  -1.105  53.637  1.00  0.00    -0.360 OA
HETATM   16  C1  UNL     1      17.697  -2.503  53.695  1.00  0.00     0.209 C 
ENDBRANCH  10  15
BRANCH  12  17
HETATM   17  N4  UNL     1      19.253   1.884  50.301  1.00  0.00    -0.327 N 
HETATM   18  C19 UNL     1      18.637   3.145  50.595  1.00  0.00     0.245 C 
HETATM   19  O2  UNL     1      18.626   3.351  51.811  1.00  0.00    -0.268 OA
HETATM   20  H13 UNL     1      19.360   1.525  49.303  1.00  0.00     0.169 HD
BRANCH  18  21
HETATM   21  C20 UNL     1      18.135   3.974  49.521  1.00  0.00     0.072 C 
HETATM   22  C21 UNL     1      16.847   4.185  49.321  1.00  0.00     0.008 C 
BRANCH  22  23
HETATM   23  C22 UNL     1      15.619   3.732  50.000  1.00  0.00     0.294 C 
BRANCH  23  24
HETATM   24  N5  UNL     1      15.549   4.293  51.352  1.00  0.00     0.081 N 
HETATM   25  H18 UNL     1      16.476   4.680  51.632  1.00  0.00     0.313 HD
HETATM   26  H19 UNL     1      15.259   3.520  52.005  1.00  0.00     0.313 HD
ENDBRANCH  23  24
ENDBRANCH  22  23
ENDBRANCH  18  21
ENDBRANCH  12  17
BRANCH  14  27
HETATM   27  N3  UNL     1      23.582   1.792  51.157  1.00  0.00    -0.355 N 
HETATM   28  H8  UNL     1      23.426   1.124  50.372  1.00  0.00     0.166 HD
BRANCH  27  29
HETATM   29  C10 UNL     1      23.974   3.131  51.053  1.00  0.00     0.034 A 
HETATM   30  C11 UNL     1      23.361   4.093  51.824  1.00  0.00     0.032 A 
HETATM   31  C12 UNL     1      23.804   5.390  51.662  1.00  0.00     0.046 A 
HETATM   32  C13 UNL     1      24.821   5.742  50.769  1.00  0.00     0.138 A 
HETATM   33  F1  UNL     1      25.268   7.001  50.595  1.00  0.00    -0.204 F 
HETATM   34  C14 UNL     1      25.381   4.710  50.034  1.00  0.00     0.074 A 
HETATM   35 CL1  UNL     1      26.671   5.125  48.895  1.00  0.00    -0.081 Cl
HETATM   36  C15 UNL     1      24.981   3.381  50.149  1.00  0.00     0.056 A 
ENDBRANCH  27  29
ENDBRANCH  14  27
ENDBRANCH   1   4
TORSDOF 8
ENDMDL
