MODEL 1
REMARK VINA RESULT:      -6.7      0.000      0.000
REMARK  9 active torsions:
REMARK  status: ('A' for Active; 'I' for Inactive)
REMARK    1  A    between atoms: C2_2  and  C3_3 
REMARK    2  A    between atoms: C3_3  and  C4_4 
REMARK    3  A    between atoms: C4_4  and  C5_5 
REMARK    4  A    between atoms: C5_5  and  C6_6 
REMARK    5  A    between atoms: C6_6  and  O1_7 
REMARK    6  A    between atoms: O1_7  and  C7_8 
REMARK    7  A    between atoms: C7_8  and  C8_10 
REMARK    8  A    between atoms: C8_10  and  O3_11 
REMARK    9  A    between atoms: O3_11  and  C9_12 
ROOT
HETATM    1  C9  UNL     1      25.601   1.725  52.918  1.00  0.00     0.072 A 
HETATM    2  C10 UNL     1      25.211   0.416  52.747  1.00  0.00     0.038 A 
HETATM    3  C11 UNL     1      26.053  -0.672  52.820  1.00  0.00     0.021 A 
HETATM    4  C12 UNL     1      27.385  -0.427  53.086  1.00  0.00     0.048 A 
HETATM    5  C13 UNL     1      28.211  -1.546  53.154  1.00  0.00     0.186 A 
HETATM    6  O4  UNL     1      27.775  -2.707  52.986  1.00  0.00    -0.287 OA
HETATM    7  C14 UNL     1      29.550  -1.357  53.418  1.00  0.00     0.080 A 
HETATM    8  C15 UNL     1      29.925  -0.029  53.587  1.00  0.00     0.146 A 
HETATM    9  O5  UNL     1      29.109   1.005  53.514  1.00  0.00    -0.322 OA
HETATM   10  C16 UNL     1      27.827   0.868  53.267  1.00  0.00     0.091 A 
HETATM   11  C17 UNL     1      26.942   1.923  53.182  1.00  0.00     0.075 A 
ENDROOT
BRANCH   1  12
HETATM   12  O3  UNL     1      24.704   2.786  52.832  1.00  0.00    -0.341 OA
BRANCH  12  13
HETATM   13  C8  UNL     1      24.601   3.359  51.521  1.00  0.00     0.286 C 
BRANCH  13  14
HETATM   14  C7  UNL     1      23.424   2.890  50.782  1.00  0.00     0.283 C 
HETATM   15  O2  UNL     1      23.524   3.206  49.576  1.00  0.00    -0.263 OA
BRANCH  14  16
HETATM   16  O1  UNL     1      22.416   2.216  51.402  1.00  0.00    -0.320 OA
BRANCH  16  17
HETATM   17  C6  UNL     1      21.961   0.988  50.872  1.00  0.00     0.178 C 
BRANCH  17  18
HETATM   18  C5  UNL     1      21.620   0.075  52.008  1.00  0.00     0.027 C 
BRANCH  18  19
HETATM   19  C4  UNL     1      21.187   0.945  53.171  1.00  0.00     0.002 C 
BRANCH  19  20
HETATM   20  C3  UNL     1      21.236   0.103  54.413  1.00  0.00    -0.000 C 
BRANCH  20  21
HETATM   21  C2  UNL     1      22.117  -1.134  54.195  1.00  0.00    -0.005 C 
HETATM   22  C1  UNL     1      23.005  -1.374  55.393  1.00  0.00     0.005 C 
ENDBRANCH  20  21
ENDBRANCH  19  20
ENDBRANCH  18  19
ENDBRANCH  17  18
ENDBRANCH  16  17
ENDBRANCH  14  16
ENDBRANCH  13  14
ENDBRANCH  12  13
ENDBRANCH   1  12
TORSDOF 9
ENDMDL
MODEL 2
REMARK VINA RESULT:      -6.5      1.986      3.948
REMARK  9 active torsions:
REMARK  status: ('A' for Active; 'I' for Inactive)
REMARK    1  A    between atoms: C2_2  and  C3_3 
REMARK    2  A    between atoms: C3_3  and  C4_4 
REMARK    3  A    between atoms: C4_4  and  C5_5 
REMARK    4  A    between atoms: C5_5  and  C6_6 
REMARK    5  A    between atoms: C6_6  and  O1_7 
REMARK    6  A    between atoms: O1_7  and  C7_8 
REMARK    7  A    between atoms: C7_8  and  C8_10 
REMARK    8  A    between atoms: C8_10  and  O3_11 
REMARK    9  A    between atoms: O3_11  and  C9_12 
ROOT
HETATM    1  C9  UNL     1      24.669   0.453  53.111  1.00  0.00     0.072 A 
HETATM    2  C10 UNL     1      25.119   1.724  53.385  1.00  0.00     0.038 A 
HETATM    3  C11 UNL     1      26.430   2.055  53.654  1.00  0.00     0.021 A 
HETATM    4  C12 UNL     1      27.356   1.033  53.646  1.00  0.00     0.048 A 
HETATM    5  C13 UNL     1      28.672   1.397  53.921  1.00  0.00     0.186 A 
HETATM    6  O4  UNL     1      28.999   2.582  54.161  1.00  0.00    -0.287 OA
HETATM    7  C14 UNL     1      29.637   0.414  53.925  1.00  0.00     0.080 A 
HETATM    8  C15 UNL     1      29.164  -0.863  53.647  1.00  0.00     0.146 A 
HETATM    9  O5  UNL     1      27.906  -1.168  53.391  1.00  0.00    -0.322 OA
HETATM   10  C16 UNL     1      26.957  -0.261  53.376  1.00  0.00     0.091 A 
HETATM   11  C17 UNL     1      25.631  -0.539  53.114  1.00  0.00     0.075 A 
ENDROOT
BRANCH   1  12
HETATM   12  O3  UNL     1      23.331   0.178  52.847  1.00  0.00    -0.341 OA
BRANCH  12  13
HETATM   13  C8  UNL     1      22.868  -1.062  53.400  1.00  0.00     0.286 C 
BRANCH  13  14
HETATM   14  C7  UNL     1      21.815  -0.883  54.404  1.00  0.00     0.283 C 
HETATM   15  O2  UNL     1      21.937  -1.739  55.308  1.00  0.00    -0.263 OA
BRANCH  14  16
HETATM   16  O1  UNL     1      20.879   0.099  54.287  1.00  0.00    -0.320 OA
BRANCH  16  17
HETATM   17  C6  UNL     1      19.809  -0.052  53.376  1.00  0.00     0.178 C 
BRANCH  17  18
HETATM   18  C5  UNL     1      19.882   1.049  52.366  1.00  0.00     0.027 C 
BRANCH  18  19
HETATM   19  C4  UNL     1      20.342   0.433  51.059  1.00  0.00     0.002 C 
BRANCH  19  20
HETATM   20  C3  UNL     1      19.714   1.215  49.942  1.00  0.00    -0.000 C 
BRANCH  20  21
HETATM   21  C2  UNL     1      20.764   1.598  48.891  1.00  0.00    -0.005 C 
HETATM   22  C1  UNL     1      22.148   1.602  49.497  1.00  0.00     0.005 C 
ENDBRANCH  20  21
ENDBRANCH  19  20
ENDBRANCH  18  19
ENDBRANCH  17  18
ENDBRANCH  16  17
ENDBRANCH  14  16
ENDBRANCH  13  14
ENDBRANCH  12  13
ENDBRANCH   1  12
TORSDOF 9
ENDMDL
MODEL 3
REMARK VINA RESULT:      -6.5      1.236      2.220
REMARK  9 active torsions:
REMARK  status: ('A' for Active; 'I' for Inactive)
REMARK    1  A    between atoms: C2_2  and  C3_3 
REMARK    2  A    between atoms: C3_3  and  C4_4 
REMARK    3  A    between atoms: C4_4  and  C5_5 
REMARK    4  A    between atoms: C5_5  and  C6_6 
REMARK    5  A    between atoms: C6_6  and  O1_7 
REMARK    6  A    between atoms: O1_7  and  C7_8 
REMARK    7  A    between atoms: C7_8  and  C8_10 
REMARK    8  A    between atoms: C8_10  and  O3_11 
REMARK    9  A    between atoms: O3_11  and  C9_12 
ROOT
HETATM    1  C9  UNL     1      24.918   0.565  52.796  1.00  0.00     0.072 A 
HETATM    2  C10 UNL     1      25.451   1.725  53.309  1.00  0.00     0.038 A 
HETATM    3  C11 UNL     1      26.747   1.867  53.753  1.00  0.00     0.021 A 
HETATM    4  C12 UNL     1      27.568   0.761  53.677  1.00  0.00     0.048 A 
HETATM    5  C13 UNL     1      28.873   0.935  54.134  1.00  0.00     0.186 A 
HETATM    6  O4  UNL     1      29.279   2.028  54.587  1.00  0.00    -0.287 OA
HETATM    7  C14 UNL     1      29.735  -0.139  54.079  1.00  0.00     0.080 A 
HETATM    8  C15 UNL     1      29.179  -1.302  53.559  1.00  0.00     0.146 A 
HETATM    9  O5  UNL     1      27.935  -1.426  53.136  1.00  0.00    -0.322 OA
HETATM   10  C16 UNL     1      27.084  -0.427  53.170  1.00  0.00     0.091 A 
HETATM   11  C17 UNL     1      25.776  -0.517  52.738  1.00  0.00     0.075 A 
ENDROOT
BRANCH   1  12
HETATM   12  O3  UNL     1      23.599   0.480  52.361  1.00  0.00    -0.341 OA
BRANCH  12  13
HETATM   13  C8  UNL     1      23.171   1.598  51.570  1.00  0.00     0.286 C 
BRANCH  13  14
HETATM   14  C7  UNL     1      22.057   1.272  50.673  1.00  0.00     0.283 C 
HETATM   15  O2  UNL     1      21.980   2.124  49.760  1.00  0.00    -0.263 OA
BRANCH  14  16
HETATM   16  O1  UNL     1      21.272   0.179  50.882  1.00  0.00    -0.320 OA
BRANCH  16  17
HETATM   17  C6  UNL     1      19.915   0.346  51.242  1.00  0.00     0.178 C 
BRANCH  17  18
HETATM   18  C5  UNL     1      19.852   0.813  52.662  1.00  0.00     0.027 C 
BRANCH  18  19
HETATM   19  C4  UNL     1      19.901  -0.420  53.544  1.00  0.00     0.002 C 
BRANCH  19  20
HETATM   20  C3  UNL     1      21.050  -0.253  54.496  1.00  0.00    -0.000 C 
BRANCH  20  21
HETATM   21  C2  UNL     1      21.845  -1.560  54.622  1.00  0.00    -0.005 C 
HETATM   22  C1  UNL     1      23.113  -1.339  55.412  1.00  0.00     0.005 C 
ENDBRANCH  20  21
ENDBRANCH  19  20
ENDBRANCH  18  19
ENDBRANCH  17  18
ENDBRANCH  16  17
ENDBRANCH  14  16
ENDBRANCH  13  14
ENDBRANCH  12  13
ENDBRANCH   1  12
TORSDOF 9
ENDMDL
MODEL 4
REMARK VINA RESULT:      -6.5      2.282      4.695
REMARK  9 active torsions:
REMARK  status: ('A' for Active; 'I' for Inactive)
REMARK    1  A    between atoms: C2_2  and  C3_3 
REMARK    2  A    between atoms: C3_3  and  C4_4 
REMARK    3  A    between atoms: C4_4  and  C5_5 
REMARK    4  A    between atoms: C5_5  and  C6_6 
REMARK    5  A    between atoms: C6_6  and  O1_7 
REMARK    6  A    between atoms: O1_7  and  C7_8 
REMARK    7  A    between atoms: C7_8  and  C8_10 
REMARK    8  A    between atoms: C8_10  and  O3_11 
REMARK    9  A    between atoms: O3_11  and  C9_12 
ROOT
HETATM    1  C9  UNL     1      24.615   1.326  53.030  1.00  0.00     0.072 A 
HETATM    2  C10 UNL     1      24.875  -0.015  52.860  1.00  0.00     0.038 A 
HETATM    3  C11 UNL     1      26.101  -0.611  53.059  1.00  0.00     0.021 A 
HETATM    4  C12 UNL     1      27.143   0.200  53.458  1.00  0.00     0.048 A 
HETATM    5  C13 UNL     1      28.370  -0.431  53.651  1.00  0.00     0.186 A 
HETATM    6  O4  UNL     1      28.522  -1.661  53.474  1.00  0.00    -0.287 OA
HETATM    7  C14 UNL     1      29.444   0.334  54.051  1.00  0.00     0.080 A 
HETATM    8  C15 UNL     1      29.163   1.685  54.217  1.00  0.00     0.146 A 
HETATM    9  O5  UNL     1      27.984   2.245  54.023  1.00  0.00    -0.322 OA
HETATM   10  C16 UNL     1      26.936   1.552  53.644  1.00  0.00     0.091 A 
HETATM   11  C17 UNL     1      25.687   2.099  53.430  1.00  0.00     0.075 A 
ENDROOT
BRANCH   1  12
HETATM   12  O3  UNL     1      23.354   1.873  52.814  1.00  0.00    -0.341 OA
BRANCH  12  13
HETATM   13  C8  UNL     1      22.761   1.499  51.562  1.00  0.00     0.286 C 
BRANCH  13  14
HETATM   14  C7  UNL     1      22.991   2.486  50.502  1.00  0.00     0.283 C 
HETATM   15  O2  UNL     1      22.596   2.034  49.405  1.00  0.00    -0.263 OA
BRANCH  14  16
HETATM   16  O1  UNL     1      23.560   3.695  50.766  1.00  0.00    -0.320 OA
BRANCH  16  17
HETATM   17  C6  UNL     1      24.551   4.210  49.901  1.00  0.00     0.178 C 
BRANCH  17  18
HETATM   18  C5  UNL     1      25.803   3.411  50.079  1.00  0.00     0.027 C 
BRANCH  18  19
HETATM   19  C4  UNL     1      26.889   4.087  49.265  1.00  0.00     0.002 C 
BRANCH  19  20
HETATM   20  C3  UNL     1      26.317   5.360  48.711  1.00  0.00    -0.000 C 
BRANCH  20  21
HETATM   21  C2  UNL     1      27.350   6.492  48.776  1.00  0.00    -0.005 C 
HETATM   22  C1  UNL     1      28.617   6.100  48.053  1.00  0.00     0.005 C 
ENDBRANCH  20  21
ENDBRANCH  19  20
ENDBRANCH  18  19
ENDBRANCH  17  18
ENDBRANCH  16  17
ENDBRANCH  14  16
ENDBRANCH  13  14
ENDBRANCH  12  13
ENDBRANCH   1  12
TORSDOF 9
ENDMDL
MODEL 5
REMARK VINA RESULT:      -6.5      1.570      3.942
REMARK  9 active torsions:
REMARK  status: ('A' for Active; 'I' for Inactive)
REMARK    1  A    between atoms: C2_2  and  C3_3 
REMARK    2  A    between atoms: C3_3  and  C4_4 
REMARK    3  A    between atoms: C4_4  and  C5_5 
REMARK    4  A    between atoms: C5_5  and  C6_6 
REMARK    5  A    between atoms: C6_6  and  O1_7 
REMARK    6  A    between atoms: O1_7  and  C7_8 
REMARK    7  A    between atoms: C7_8  and  C8_10 
REMARK    8  A    between atoms: C8_10  and  O3_11 
REMARK    9  A    between atoms: O3_11  and  C9_12 
ROOT
HETATM    1  C9  UNL     1      24.617  -0.055  53.255  1.00  0.00     0.072 A 
HETATM    2  C10 UNL     1      24.911   1.279  53.423  1.00  0.00     0.038 A 
HETATM    3  C11 UNL     1      26.176   1.788  53.621  1.00  0.00     0.021 A 
HETATM    4  C12 UNL     1      27.223   0.889  53.652  1.00  0.00     0.048 A 
HETATM    5  C13 UNL     1      28.490   1.432  53.854  1.00  0.00     0.186 A 
HETATM    6  O4  UNL     1      28.671   2.663  53.998  1.00  0.00    -0.287 OA
HETATM    7  C14 UNL     1      29.570   0.579  53.893  1.00  0.00     0.080 A 
HETATM    8  C15 UNL     1      29.253  -0.764  53.723  1.00  0.00     0.146 A 
HETATM    9  O5  UNL     1      28.037  -1.239  53.534  1.00  0.00    -0.322 OA
HETATM   10  C16 UNL     1      26.982  -0.460  53.489  1.00  0.00     0.091 A 
HETATM   11  C17 UNL     1      25.695  -0.917  53.294  1.00  0.00     0.075 A 
ENDROOT
BRANCH   1  12
HETATM   12  O3  UNL     1      23.317  -0.511  53.058  1.00  0.00    -0.341 OA
BRANCH  12  13
HETATM   13  C8  UNL     1      22.313   0.293  53.693  1.00  0.00     0.286 C 
BRANCH  13  14
HETATM   14  C7  UNL     1      21.192   0.617  52.804  1.00  0.00     0.283 C 
HETATM   15  O2  UNL     1      20.262  -0.203  52.973  1.00  0.00    -0.263 OA
BRANCH  14  16
HETATM   16  O1  UNL     1      21.245   1.676  51.950  1.00  0.00    -0.320 OA
BRANCH  16  17
HETATM   17  C6  UNL     1      21.615   1.474  50.601  1.00  0.00     0.178 C 
BRANCH  17  18
HETATM   18  C5  UNL     1      23.005   1.990  50.405  1.00  0.00     0.027 C 
BRANCH  18  19
HETATM   19  C4  UNL     1      23.054   3.388  50.990  1.00  0.00     0.002 C 
BRANCH  19  20
HETATM   20  C3  UNL     1      24.464   3.886  50.863  1.00  0.00    -0.000 C 
BRANCH  20  21
HETATM   21  C2  UNL     1      25.066   3.475  49.512  1.00  0.00    -0.005 C 
HETATM   22  C1  UNL     1      26.574   3.460  49.583  1.00  0.00     0.005 C 
ENDBRANCH  20  21
ENDBRANCH  19  20
ENDBRANCH  18  19
ENDBRANCH  17  18
ENDBRANCH  16  17
ENDBRANCH  14  16
ENDBRANCH  13  14
ENDBRANCH  12  13
ENDBRANCH   1  12
TORSDOF 9
ENDMDL
MODEL 6
REMARK VINA RESULT:      -6.3      1.578      1.746
REMARK  9 active torsions:
REMARK  status: ('A' for Active; 'I' for Inactive)
REMARK    1  A    between atoms: C2_2  and  C3_3 
REMARK    2  A    between atoms: C3_3  and  C4_4 
REMARK    3  A    between atoms: C4_4  and  C5_5 
REMARK    4  A    between atoms: C5_5  and  C6_6 
REMARK    5  A    between atoms: C6_6  and  O1_7 
REMARK    6  A    between atoms: O1_7  and  C7_8 
REMARK    7  A    between atoms: C7_8  and  C8_10 
REMARK    8  A    between atoms: C8_10  and  O3_11 
REMARK    9  A    between atoms: O3_11  and  C9_12 
ROOT
HETATM    1  C9  UNL     1      25.439   2.232  51.412  1.00  0.00     0.072 A 
HETATM    2  C10 UNL     1      24.724   1.438  52.280  1.00  0.00     0.038 A 
HETATM    3  C11 UNL     1      25.263   0.757  53.350  1.00  0.00     0.021 A 
HETATM    4  C12 UNL     1      26.620   0.884  53.564  1.00  0.00     0.048 A 
HETATM    5  C13 UNL     1      27.136   0.185  54.653  1.00  0.00     0.186 A 
HETATM    6  O4  UNL     1      26.413  -0.518  55.396  1.00  0.00    -0.287 OA
HETATM    7  C14 UNL     1      28.485   0.278  54.911  1.00  0.00     0.080 A 
HETATM    8  C15 UNL     1      29.191   1.083  54.025  1.00  0.00     0.146 A 
HETATM    9  O5  UNL     1      28.664   1.730  53.003  1.00  0.00    -0.322 OA
HETATM   10  C16 UNL     1      27.383   1.669  52.724  1.00  0.00     0.091 A 
HETATM   11  C17 UNL     1      26.794   2.329  51.665  1.00  0.00     0.075 A 
ENDROOT
BRANCH   1  12
HETATM   12  O3  UNL     1      24.840   2.896  50.347  1.00  0.00    -0.341 OA
BRANCH  12  13
HETATM   13  C8  UNL     1      23.581   3.504  50.670  1.00  0.00     0.286 C 
BRANCH  13  14
HETATM   14  C7  UNL     1      22.436   2.791  50.093  1.00  0.00     0.283 C 
HETATM   15  O2  UNL     1      22.469   2.871  48.845  1.00  0.00    -0.263 OA
BRANCH  14  16
HETATM   16  O1  UNL     1      21.519   2.163  50.879  1.00  0.00    -0.320 OA
BRANCH  16  17
HETATM   17  C6  UNL     1      21.275   2.634  52.189  1.00  0.00     0.178 C 
BRANCH  17  18
HETATM   18  C5  UNL     1      20.548   1.571  52.951  1.00  0.00     0.027 C 
BRANCH  18  19
HETATM   19  C4  UNL     1      20.989   0.233  52.389  1.00  0.00     0.002 C 
BRANCH  19  20
HETATM   20  C3  UNL     1      20.769  -0.802  53.454  1.00  0.00    -0.000 C 
BRANCH  20  21
HETATM   21  C2  UNL     1      21.489  -0.410  54.751  1.00  0.00    -0.005 C 
HETATM   22  C1  UNL     1      22.714  -1.268  54.961  1.00  0.00     0.005 C 
ENDBRANCH  20  21
ENDBRANCH  19  20
ENDBRANCH  18  19
ENDBRANCH  17  18
ENDBRANCH  16  17
ENDBRANCH  14  16
ENDBRANCH  13  14
ENDBRANCH  12  13
ENDBRANCH   1  12
TORSDOF 9
ENDMDL
MODEL 7
REMARK VINA RESULT:      -6.1      3.442      6.502
REMARK  9 active torsions:
REMARK  status: ('A' for Active; 'I' for Inactive)
REMARK    1  A    between atoms: C2_2  and  C3_3 
REMARK    2  A    between atoms: C3_3  and  C4_4 
REMARK    3  A    between atoms: C4_4  and  C5_5 
REMARK    4  A    between atoms: C5_5  and  C6_6 
REMARK    5  A    between atoms: C6_6  and  O1_7 
REMARK    6  A    between atoms: O1_7  and  C7_8 
REMARK    7  A    between atoms: C7_8  and  C8_10 
REMARK    8  A    between atoms: C8_10  and  O3_11 
REMARK    9  A    between atoms: O3_11  and  C9_12 
ROOT
HETATM    1  C9  UNL     1      24.950   3.863  49.522  1.00  0.00     0.072 A 
HETATM    2  C10 UNL     1      24.451   5.117  49.255  1.00  0.00     0.038 A 
HETATM    3  C11 UNL     1      25.202   6.187  48.819  1.00  0.00     0.021 A 
HETATM    4  C12 UNL     1      26.554   5.982  48.639  1.00  0.00     0.048 A 
HETATM    5  C13 UNL     1      27.287   7.081  48.198  1.00  0.00     0.186 A 
HETATM    6  O4  UNL     1      26.753   8.192  47.977  1.00  0.00    -0.287 OA
HETATM    7  C14 UNL     1      28.642   6.929  48.001  1.00  0.00     0.080 A 
HETATM    8  C15 UNL     1      29.128   5.656  48.276  1.00  0.00     0.146 A 
HETATM    9  O5  UNL     1      28.399   4.639  48.693  1.00  0.00    -0.322 OA
HETATM   10  C16 UNL     1      27.105   4.742  48.892  1.00  0.00     0.091 A 
HETATM   11  C17 UNL     1      26.308   3.703  49.327  1.00  0.00     0.075 A 
ENDROOT
BRANCH   1  12
HETATM   12  O3  UNL     1      24.142   2.818  49.960  1.00  0.00    -0.341 OA
BRANCH  12  13
HETATM   13  C8  UNL     1      24.174   2.611  51.379  1.00  0.00     0.286 C 
BRANCH  13  14
HETATM   14  C7  UNL     1      23.579   1.333  51.784  1.00  0.00     0.283 C 
HETATM   15  O2  UNL     1      22.431   1.223  51.298  1.00  0.00    -0.263 OA
BRANCH  14  16
HETATM   16  O1  UNL     1      24.252   0.454  52.577  1.00  0.00    -0.320 OA
BRANCH  16  17
HETATM   17  C6  UNL     1      25.603   0.698  52.909  1.00  0.00     0.178 C 
BRANCH  17  18
HETATM   18  C5  UNL     1      26.469  -0.189  52.071  1.00  0.00     0.027 C 
BRANCH  18  19
HETATM   19  C4  UNL     1      27.398  -0.931  53.012  1.00  0.00     0.002 C 
BRANCH  19  20
HETATM   20  C3  UNL     1      27.700  -0.020  54.166  1.00  0.00    -0.000 C 
BRANCH  20  21
HETATM   21  C2  UNL     1      29.199   0.300  54.227  1.00  0.00    -0.005 C 
HETATM   22  C1  UNL     1      30.005  -0.795  53.569  1.00  0.00     0.005 C 
ENDBRANCH  20  21
ENDBRANCH  19  20
ENDBRANCH  18  19
ENDBRANCH  17  18
ENDBRANCH  16  17
ENDBRANCH  14  16
ENDBRANCH  13  14
ENDBRANCH  12  13
ENDBRANCH   1  12
TORSDOF 9
ENDMDL
MODEL 8
REMARK VINA RESULT:      -6.0      3.229      5.603
REMARK  9 active torsions:
REMARK  status: ('A' for Active; 'I' for Inactive)
REMARK    1  A    between atoms: C2_2  and  C3_3 
REMARK    2  A    between atoms: C3_3  and  C4_4 
REMARK    3  A    between atoms: C4_4  and  C5_5 
REMARK    4  A    between atoms: C5_5  and  C6_6 
REMARK    5  A    between atoms: C6_6  and  O1_7 
REMARK    6  A    between atoms: O1_7  and  C7_8 
REMARK    7  A    between atoms: C7_8  and  C8_10 
REMARK    8  A    between atoms: C8_10  and  O3_11 
REMARK    9  A    between atoms: O3_11  and  C9_12 
ROOT
HETATM    1  C9  UNL     1      24.927   2.087  51.462  1.00  0.00     0.072 A 
HETATM    2  C10 UNL     1      24.371   1.254  52.407  1.00  0.00     0.038 A 
HETATM    3  C11 UNL     1      25.067   0.649  53.430  1.00  0.00     0.021 A 
HETATM    4  C12 UNL     1      26.422   0.899  53.511  1.00  0.00     0.048 A 
HETATM    5  C13 UNL     1      27.099   0.273  54.555  1.00  0.00     0.186 A 
HETATM    6  O4  UNL     1      26.516  -0.472  55.375  1.00  0.00    -0.287 OA
HETATM    7  C14 UNL     1      28.453   0.490  54.681  1.00  0.00     0.080 A 
HETATM    8  C15 UNL     1      28.997   1.333  53.718  1.00  0.00     0.146 A 
HETATM    9  O5  UNL     1      28.320   1.907  52.743  1.00  0.00    -0.322 OA
HETATM   10  C16 UNL     1      27.029   1.727  52.589  1.00  0.00     0.091 A 
HETATM   11  C17 UNL     1      26.285   2.308  51.582  1.00  0.00     0.075 A 
ENDROOT
BRANCH   1  12
HETATM   12  O3  UNL     1      24.173   2.671  50.449  1.00  0.00    -0.341 OA
BRANCH  12  13
HETATM   13  C8  UNL     1      23.193   3.609  50.917  1.00  0.00     0.286 C 
BRANCH  13  14
HETATM   14  C7  UNL     1      23.341   4.939  50.317  1.00  0.00     0.283 C 
HETATM   15  O2  UNL     1      22.869   5.807  51.084  1.00  0.00    -0.263 OA
BRANCH  14  16
HETATM   16  O1  UNL     1      23.923   5.109  49.098  1.00  0.00    -0.320 OA
BRANCH  16  17
HETATM   17  C6  UNL     1      24.956   6.060  48.938  1.00  0.00     0.178 C 
BRANCH  17  18
HETATM   18  C5  UNL     1      26.265   5.395  49.222  1.00  0.00     0.027 C 
BRANCH  18  19
HETATM   19  C4  UNL     1      27.320   6.103  48.396  1.00  0.00     0.002 C 
BRANCH  19  20
HETATM   20  C3  UNL     1      28.505   5.188  48.288  1.00  0.00    -0.000 C 
BRANCH  20  21
HETATM   21  C2  UNL     1      29.813   5.969  48.476  1.00  0.00    -0.005 C 
HETATM   22  C1  UNL     1      30.951   5.284  47.758  1.00  0.00     0.005 C 
ENDBRANCH  20  21
ENDBRANCH  19  20
ENDBRANCH  18  19
ENDBRANCH  17  18
ENDBRANCH  16  17
ENDBRANCH  14  16
ENDBRANCH  13  14
ENDBRANCH  12  13
ENDBRANCH   1  12
TORSDOF 9
ENDMDL
MODEL 9
REMARK VINA RESULT:      -5.9      2.849      4.360
REMARK  9 active torsions:
REMARK  status: ('A' for Active; 'I' for Inactive)
REMARK    1  A    between atoms: C2_2  and  C3_3 
REMARK    2  A    between atoms: C3_3  and  C4_4 
REMARK    3  A    between atoms: C4_4  and  C5_5 
REMARK    4  A    between atoms: C5_5  and  C6_6 
REMARK    5  A    between atoms: C6_6  and  O1_7 
REMARK    6  A    between atoms: O1_7  and  C7_8 
REMARK    7  A    between atoms: C7_8  and  C8_10 
REMARK    8  A    between atoms: C8_10  and  O3_11 
REMARK    9  A    between atoms: O3_11  and  C9_12 
ROOT
HETATM    1  C9  UNL     1      24.447   0.620  53.340  1.00  0.00     0.072 A 
HETATM    2  C10 UNL     1      24.957   1.888  53.498  1.00  0.00     0.038 A 
HETATM    3  C11 UNL     1      26.288   2.184  53.690  1.00  0.00     0.021 A 
HETATM    4  C12 UNL     1      27.174   1.127  53.725  1.00  0.00     0.048 A 
HETATM    5  C13 UNL     1      28.514   1.456  53.920  1.00  0.00     0.186 A 
HETATM    6  O4  UNL     1      28.895   2.641  54.055  1.00  0.00    -0.287 OA
HETATM    7  C14 UNL     1      29.439   0.437  53.962  1.00  0.00     0.080 A 
HETATM    8  C15 UNL     1      28.907  -0.837  53.801  1.00  0.00     0.146 A 
HETATM    9  O5  UNL     1      27.629  -1.107  53.618  1.00  0.00    -0.322 OA
HETATM   10  C16 UNL     1      26.715  -0.166  53.571  1.00  0.00     0.091 A 
HETATM   11  C17 UNL     1      25.370  -0.408  53.382  1.00  0.00     0.075 A 
ENDROOT
BRANCH   1  12
HETATM   12  O3  UNL     1      23.089   0.381  53.149  1.00  0.00    -0.341 OA
BRANCH  12  13
HETATM   13  C8  UNL     1      22.711  -0.994  53.300  1.00  0.00     0.286 C 
BRANCH  13  14
HETATM   14  C7  UNL     1      21.511  -1.170  54.125  1.00  0.00     0.283 C 
HETATM   15  O2  UNL     1      21.811  -1.742  55.197  1.00  0.00    -0.263 OA
BRANCH  14  16
HETATM   16  O1  UNL     1      20.289  -0.742  53.705  1.00  0.00    -0.320 OA
BRANCH  16  17
HETATM   17  C6  UNL     1      19.232  -1.669  53.558  1.00  0.00     0.178 C 
BRANCH  17  18
HETATM   18  C5  UNL     1      18.000  -0.925  53.148  1.00  0.00     0.027 C 
BRANCH  18  19
HETATM   19  C4  UNL     1      18.170  -0.538  51.692  1.00  0.00     0.002 C 
BRANCH  19  20
HETATM   20  C3  UNL     1      17.919   0.938  51.581  1.00  0.00    -0.000 C 
BRANCH  20  21
HETATM   21  C2  UNL     1      16.598   1.210  50.849  1.00  0.00    -0.005 C 
HETATM   22  C1  UNL     1      15.487   1.473  51.837  1.00  0.00     0.005 C 
ENDBRANCH  20  21
ENDBRANCH  19  20
ENDBRANCH  18  19
ENDBRANCH  17  18
ENDBRANCH  16  17
ENDBRANCH  14  16
ENDBRANCH  13  14
ENDBRANCH  12  13
ENDBRANCH   1  12
TORSDOF 9
ENDMDL
