MODEL 1
REMARK VINA RESULT:      -8.0      0.000      0.000
REMARK  6 active torsions:
REMARK  status: ('A' for Active; 'I' for Inactive)
REMARK    1  A    between atoms: O1_2  and  C2_3 
REMARK    2  A    between atoms: C6_9  and  N3_10 
REMARK    3  A    between atoms: N4_13  and  C9_14 
REMARK    4  A    between atoms: C9_14  and  N5_15 
REMARK    5  A    between atoms: N5_15  and  C10_16 
REMARK    6  A    between atoms: C15_21  and  S1_22 
ROOT
HETATM    1  N3  UNL     1      22.415   2.715  51.851  1.00  0.00    -0.362 N 
HETATM    2  C7  UNL     1      21.772   3.925  52.308  1.00  0.00     0.144 C 
HETATM    3  C8  UNL     1      22.603   5.076  51.727  1.00  0.00     0.138 C 
HETATM    4  N4  UNL     1      22.362   5.082  50.330  1.00  0.00    -0.394 N 
HETATM    5  C16 UNL     1      22.352   3.846  49.654  1.00  0.00     0.138 C 
HETATM    6  C17 UNL     1      22.734   2.644  50.450  1.00  0.00     0.144 C 
ENDROOT
BRANCH   1   7
HETATM    7  C6  UNL     1      22.846   1.486  52.471  1.00  0.00     0.138 A 
HETATM    8  N2  UNL     1      21.996   0.433  52.445  1.00  0.00    -0.224 NA
HETATM    9  C5  UNL     1      22.339  -0.753  53.011  1.00  0.00     0.235 A 
HETATM   10  N1  UNL     1      23.547  -0.900  53.614  1.00  0.00    -0.241 NA
HETATM   11  C4  UNL     1      24.424   0.121  53.664  1.00  0.00     0.075 A 
HETATM   12  C3  UNL     1      25.720  -0.049  54.315  1.00  0.00     0.096 A 
HETATM   13  C18 UNL     1      24.070   1.324  53.086  1.00  0.00     0.041 A 
HETATM   14  C2  UNL     1      26.538   1.003  54.326  1.00  0.00     0.182 A 
HETATM   15  O2  UNL     1      26.198   2.208  53.756  1.00  0.00    -0.326 OA
HETATM   16  C19 UNL     1      24.978   2.480  53.104  1.00  0.00     0.223 A 
BRANCH  14  17
HETATM   17  O1  UNL     1      27.772   0.836  54.949  1.00  0.00    -0.336 OA
HETATM   18  C1  UNL     1      28.691  -0.133  54.456  1.00  0.00     0.212 C 
ENDBRANCH  14  17
ENDBRANCH   1   7
BRANCH   4  19
HETATM   19  C9  UNL     1      23.094   6.118  49.627  1.00  0.00     0.241 C 
BRANCH  19  20
HETATM   20  N5  UNL     1      24.323   6.351  50.363  1.00  0.00    -0.373 N 
HETATM   21  H12 UNL     1      24.388   6.724  51.317  1.00  0.00     0.161 HD
BRANCH  20  22
HETATM   22  C10 UNL     1      25.556   6.042  49.720  1.00  0.00     0.045 A 
HETATM   23  C11 UNL     1      25.991   4.727  49.569  1.00  0.00     0.030 A 
HETATM   24  C12 UNL     1      27.171   4.357  48.957  1.00  0.00     0.002 A 
HETATM   25  C13 UNL     1      27.978   5.358  48.461  1.00  0.00     0.002 A 
HETATM   26  C14 UNL     1      27.594   6.684  48.583  1.00  0.00     0.021 A 
HETATM   27  C15 UNL     1      26.405   7.002  49.202  1.00  0.00     0.024 A 
BRANCH  27  28
HETATM   28  S1  UNL     1      25.951   8.704  49.338  1.00  0.00    -0.141 SA
HETATM   29  H17 UNL     1      26.921   9.404  50.071  1.00  0.00     0.107 HD
ENDBRANCH  27  28
ENDBRANCH  20  22
ENDBRANCH  19  20
ENDBRANCH   4  19
TORSDOF 6
ENDMDL
MODEL 2
REMARK VINA RESULT:      -7.3      3.297      7.820
REMARK  6 active torsions:
REMARK  status: ('A' for Active; 'I' for Inactive)
REMARK    1  A    between atoms: O1_2  and  C2_3 
REMARK    2  A    between atoms: C6_9  and  N3_10 
REMARK    3  A    between atoms: N4_13  and  C9_14 
REMARK    4  A    between atoms: C9_14  and  N5_15 
REMARK    5  A    between atoms: N5_15  and  C10_16 
REMARK    6  A    between atoms: C15_21  and  S1_22 
ROOT
HETATM    1  N3  UNL     1      24.494   5.535  49.481  1.00  0.00    -0.362 N 
HETATM    2  C7  UNL     1      23.811   4.314  49.117  1.00  0.00     0.144 C 
HETATM    3  C8  UNL     1      24.123   3.319  50.242  1.00  0.00     0.138 C 
HETATM    4  N4  UNL     1      23.413   3.765  51.384  1.00  0.00    -0.394 N 
HETATM    5  C16 UNL     1      23.428   5.143  51.677  1.00  0.00     0.138 C 
HETATM    6  C17 UNL     1      24.309   5.999  50.830  1.00  0.00     0.144 C 
ENDROOT
BRANCH   1   7
HETATM    7  C6  UNL     1      25.364   6.464  48.802  1.00  0.00     0.138 A 
HETATM    8  N2  UNL     1      24.843   7.652  48.420  1.00  0.00    -0.224 NA
HETATM    9  C5  UNL     1      25.607   8.573  47.776  1.00  0.00     0.235 A 
HETATM   10  N1  UNL     1      26.913   8.311  47.507  1.00  0.00    -0.241 NA
HETATM   11  C4  UNL     1      27.472   7.141  47.870  1.00  0.00     0.075 A 
HETATM   12  C3  UNL     1      28.877   6.871  47.575  1.00  0.00     0.096 A 
HETATM   13  C18 UNL     1      26.691   6.210  48.524  1.00  0.00     0.041 A 
HETATM   14  C2  UNL     1      29.365   5.694  47.964  1.00  0.00     0.182 A 
HETATM   15  O2  UNL     1      28.597   4.756  48.615  1.00  0.00    -0.326 OA
HETATM   16  C19 UNL     1      27.237   4.913  48.948  1.00  0.00     0.223 A 
BRANCH  14  17
HETATM   17  O1  UNL     1      30.704   5.441  47.680  1.00  0.00    -0.336 OA
HETATM   18  C1  UNL     1      31.705   5.753  48.643  1.00  0.00     0.212 C 
ENDBRANCH  14  17
ENDBRANCH   1   7
BRANCH   4  19
HETATM   19  C9  UNL     1      23.616   2.926  52.549  1.00  0.00     0.241 C 
BRANCH  19  20
HETATM   20  N5  UNL     1      23.433   1.550  52.125  1.00  0.00    -0.373 N 
HETATM   21  H12 UNL     1      23.732   1.156  51.226  1.00  0.00     0.161 HD
BRANCH  20  22
HETATM   22  C10 UNL     1      22.783   0.655  53.023  1.00  0.00     0.045 A 
HETATM   23  C11 UNL     1      21.401   0.675  53.202  1.00  0.00     0.030 A 
HETATM   24  C12 UNL     1      20.709  -0.162  54.052  1.00  0.00     0.002 A 
HETATM   25  C13 UNL     1      21.433  -1.083  54.777  1.00  0.00     0.002 A 
HETATM   26  C14 UNL     1      22.811  -1.148  54.638  1.00  0.00     0.021 A 
HETATM   27  C15 UNL     1      23.456  -0.289  53.774  1.00  0.00     0.024 A 
BRANCH  27  28
HETATM   28  S1  UNL     1      25.213  -0.403  53.625  1.00  0.00    -0.141 SA
HETATM   29  H17 UNL     1      25.594  -0.249  52.284  1.00  0.00     0.107 HD
ENDBRANCH  27  28
ENDBRANCH  20  22
ENDBRANCH  19  20
ENDBRANCH   4  19
TORSDOF 6
ENDMDL
MODEL 3
REMARK VINA RESULT:      -7.2      2.779      6.996
REMARK  6 active torsions:
REMARK  status: ('A' for Active; 'I' for Inactive)
REMARK    1  A    between atoms: O1_2  and  C2_3 
REMARK    2  A    between atoms: C6_9  and  N3_10 
REMARK    3  A    between atoms: N4_13  and  C9_14 
REMARK    4  A    between atoms: C9_14  and  N5_15 
REMARK    5  A    between atoms: N5_15  and  C10_16 
REMARK    6  A    between atoms: C15_21  and  S1_22 
ROOT
HETATM    1  N3  UNL     1      24.190   5.885  49.582  1.00  0.00    -0.362 N 
HETATM    2  C7  UNL     1      23.368   4.889  48.935  1.00  0.00     0.144 C 
HETATM    3  C8  UNL     1      23.423   3.656  49.846  1.00  0.00     0.138 C 
HETATM    4  N4  UNL     1      22.688   3.983  51.012  1.00  0.00    -0.394 N 
HETATM    5  C16 UNL     1      22.883   5.256  51.583  1.00  0.00     0.138 C 
HETATM    6  C17 UNL     1      23.955   6.102  50.984  1.00  0.00     0.144 C 
ENDROOT
BRANCH   1   7
HETATM    7  C6  UNL     1      25.247   6.771  49.161  1.00  0.00     0.138 A 
HETATM    8  N2  UNL     1      24.966   8.092  49.068  1.00  0.00    -0.224 NA
HETATM    9  C5  UNL     1      25.915   8.981  48.679  1.00  0.00     0.235 A 
HETATM   10  N1  UNL     1      27.169   8.554  48.375  1.00  0.00    -0.241 NA
HETATM   11  C4  UNL     1      27.493   7.250  48.454  1.00  0.00     0.075 A 
HETATM   12  C3  UNL     1      28.845   6.803  48.126  1.00  0.00     0.096 A 
HETATM   13  C18 UNL     1      26.524   6.351  48.852  1.00  0.00     0.041 A 
HETATM   14  C2  UNL     1      29.095   5.499  48.227  1.00  0.00     0.182 A 
HETATM   15  O2  UNL     1      28.139   4.592  48.620  1.00  0.00    -0.326 OA
HETATM   16  C19 UNL     1      26.809   4.913  48.959  1.00  0.00     0.223 A 
BRANCH  14  17
HETATM   17  O1  UNL     1      30.385   5.079  47.911  1.00  0.00    -0.336 OA
HETATM   18  C1  UNL     1      31.499   5.611  48.621  1.00  0.00     0.212 C 
ENDBRANCH  14  17
ENDBRANCH   1   7
BRANCH   4  19
HETATM   19  C9  UNL     1      22.656   2.912  51.989  1.00  0.00     0.241 C 
BRANCH  19  20
HETATM   20  N5  UNL     1      23.973   2.840  52.593  1.00  0.00    -0.373 N 
HETATM   21  H12 UNL     1      24.531   3.642  52.911  1.00  0.00     0.161 HD
BRANCH  20  22
HETATM   22  C10 UNL     1      24.561   1.554  52.766  1.00  0.00     0.045 A 
HETATM   23  C11 UNL     1      23.898   0.535  53.448  1.00  0.00     0.030 A 
HETATM   24  C12 UNL     1      24.407  -0.731  53.653  1.00  0.00     0.002 A 
HETATM   25  C13 UNL     1      25.658  -1.009  53.147  1.00  0.00     0.002 A 
HETATM   26  C14 UNL     1      26.362  -0.033  52.460  1.00  0.00     0.021 A 
HETATM   27  C15 UNL     1      25.810   1.217  52.282  1.00  0.00     0.024 A 
BRANCH  27  28
HETATM   28  S1  UNL     1      26.740   2.434  51.401  1.00  0.00    -0.141 SA
HETATM   29  H17 UNL     1      25.929   3.541  51.108  1.00  0.00     0.107 HD
ENDBRANCH  27  28
ENDBRANCH  20  22
ENDBRANCH  19  20
ENDBRANCH   4  19
TORSDOF 6
ENDMDL
MODEL 4
REMARK VINA RESULT:      -7.2      2.671      3.933
REMARK  6 active torsions:
REMARK  status: ('A' for Active; 'I' for Inactive)
REMARK    1  A    between atoms: O1_2  and  C2_3 
REMARK    2  A    between atoms: C6_9  and  N3_10 
REMARK    3  A    between atoms: N4_13  and  C9_14 
REMARK    4  A    between atoms: C9_14  and  N5_15 
REMARK    5  A    between atoms: N5_15  and  C10_16 
REMARK    6  A    between atoms: C15_21  and  S1_22 
ROOT
HETATM    1  N3  UNL     1      22.873   3.243  52.161  1.00  0.00    -0.362 N 
HETATM    2  C7  UNL     1      22.659   4.565  52.702  1.00  0.00     0.144 C 
HETATM    3  C8  UNL     1      23.574   5.493  51.892  1.00  0.00     0.138 C 
HETATM    4  N4  UNL     1      23.016   5.575  50.592  1.00  0.00    -0.394 N 
HETATM    5  C16 UNL     1      22.556   4.386  49.992  1.00  0.00     0.138 C 
HETATM    6  C17 UNL     1      22.824   3.117  50.729  1.00  0.00     0.144 C 
ENDROOT
BRANCH   1   7
HETATM    7  C6  UNL     1      23.140   1.939  52.717  1.00  0.00     0.138 A 
HETATM    8  N2  UNL     1      24.429   1.606  52.958  1.00  0.00    -0.224 NA
HETATM    9  C5  UNL     1      24.750   0.395  53.480  1.00  0.00     0.235 A 
HETATM   10  N1  UNL     1      23.775  -0.506  53.771  1.00  0.00    -0.241 NA
HETATM   11  C4  UNL     1      22.479  -0.217  53.547  1.00  0.00     0.075 A 
HETATM   12  C3  UNL     1      21.439  -1.193  53.864  1.00  0.00     0.096 A 
HETATM   13  C18 UNL     1      22.159   1.017  53.016  1.00  0.00     0.041 A 
HETATM   14  C2  UNL     1      20.179  -0.840  53.618  1.00  0.00     0.182 A 
HETATM   15  O2  UNL     1      19.845   0.385  53.088  1.00  0.00    -0.326 OA
HETATM   16  C19 UNL     1      20.765   1.397  52.747  1.00  0.00     0.223 A 
BRANCH  14  17
HETATM   17  O1  UNL     1      19.192  -1.775  53.920  1.00  0.00    -0.336 OA
HETATM   18  C1  UNL     1      17.922  -1.699  53.280  1.00  0.00     0.212 C 
ENDBRANCH  14  17
ENDBRANCH   1   7
BRANCH   4  19
HETATM   19  C9  UNL     1      23.781   6.417  49.692  1.00  0.00     0.241 C 
BRANCH  19  20
HETATM   20  N5  UNL     1      24.499   5.538  48.788  1.00  0.00    -0.373 N 
HETATM   21  H12 UNL     1      24.104   4.721  48.307  1.00  0.00     0.161 HD
BRANCH  20  22
HETATM   22  C10 UNL     1      25.872   5.818  48.532  1.00  0.00     0.045 A 
HETATM   23  C11 UNL     1      26.275   7.011  47.934  1.00  0.00     0.030 A 
HETATM   24  C12 UNL     1      27.584   7.346  47.658  1.00  0.00     0.002 A 
HETATM   25  C13 UNL     1      28.564   6.439  47.998  1.00  0.00     0.002 A 
HETATM   26  C14 UNL     1      28.221   5.237  48.597  1.00  0.00     0.021 A 
HETATM   27  C15 UNL     1      26.897   4.949  48.851  1.00  0.00     0.024 A 
BRANCH  27  28
HETATM   28  S1  UNL     1      26.500   3.406  49.615  1.00  0.00    -0.141 SA
HETATM   29  H17 UNL     1      27.087   2.350  48.902  1.00  0.00     0.107 HD
ENDBRANCH  27  28
ENDBRANCH  20  22
ENDBRANCH  19  20
ENDBRANCH   4  19
TORSDOF 6
ENDMDL
MODEL 5
REMARK VINA RESULT:      -6.9      3.067      4.599
REMARK  6 active torsions:
REMARK  status: ('A' for Active; 'I' for Inactive)
REMARK    1  A    between atoms: O1_2  and  C2_3 
REMARK    2  A    between atoms: C6_9  and  N3_10 
REMARK    3  A    between atoms: N4_13  and  C9_14 
REMARK    4  A    between atoms: C9_14  and  N5_15 
REMARK    5  A    between atoms: N5_15  and  C10_16 
REMARK    6  A    between atoms: C15_21  and  S1_22 
ROOT
HETATM    1  N3  UNL     1      23.167   1.133  52.247  1.00  0.00    -0.362 N 
HETATM    2  C7  UNL     1      23.069   1.430  50.836  1.00  0.00     0.144 C 
HETATM    3  C8  UNL     1      22.909   2.954  50.748  1.00  0.00     0.138 C 
HETATM    4  N4  UNL     1      24.159   3.511  51.116  1.00  0.00    -0.394 N 
HETATM    5  C16 UNL     1      24.827   2.965  52.229  1.00  0.00     0.138 C 
HETATM    6  C17 UNL     1      24.090   1.930  53.010  1.00  0.00     0.144 C 
ENDROOT
BRANCH   1   7
HETATM    7  C6  UNL     1      22.542   0.190  53.141  1.00  0.00     0.138 A 
HETATM    8  N2  UNL     1      23.309  -0.370  54.105  1.00  0.00    -0.224 NA
HETATM    9  C5  UNL     1      22.784  -1.266  54.980  1.00  0.00     0.235 A 
HETATM   10  N1  UNL     1      21.473  -1.613  54.900  1.00  0.00    -0.241 NA
HETATM   11  C4  UNL     1      20.673  -1.081  53.958  1.00  0.00     0.075 A 
HETATM   12  C3  UNL     1      19.265  -1.461  53.882  1.00  0.00     0.096 A 
HETATM   13  C18 UNL     1      21.212  -0.170  53.071  1.00  0.00     0.041 A 
HETATM   14  C2  UNL     1      18.532  -0.894  52.925  1.00  0.00     0.182 A 
HETATM   15  O2  UNL     1      19.056   0.013  52.034  1.00  0.00    -0.326 OA
HETATM   16  C19 UNL     1      20.397   0.450  52.017  1.00  0.00     0.223 A 
BRANCH  14  17
HETATM   17  O1  UNL     1      17.191  -1.262  52.856  1.00  0.00    -0.336 OA
HETATM   18  C1  UNL     1      16.807  -2.605  53.134  1.00  0.00     0.212 C 
ENDBRANCH  14  17
ENDBRANCH   1   7
BRANCH   4  19
HETATM   19  C9  UNL     1      24.168   4.962  51.093  1.00  0.00     0.241 C 
BRANCH  19  20
HETATM   20  N5  UNL     1      24.298   5.369  49.706  1.00  0.00    -0.373 N 
HETATM   21  H12 UNL     1      23.527   5.464  49.034  1.00  0.00     0.161 HD
BRANCH  20  22
HETATM   22  C10 UNL     1      25.602   5.667  49.216  1.00  0.00     0.045 A 
HETATM   23  C11 UNL     1      26.580   4.682  49.098  1.00  0.00     0.030 A 
HETATM   24  C12 UNL     1      27.860   4.900  48.632  1.00  0.00     0.002 A 
HETATM   25  C13 UNL     1      28.196   6.182  48.256  1.00  0.00     0.002 A 
HETATM   26  C14 UNL     1      27.262   7.202  48.352  1.00  0.00     0.021 A 
HETATM   27  C15 UNL     1      25.996   6.932  48.824  1.00  0.00     0.024 A 
BRANCH  27  28
HETATM   28  S1  UNL     1      24.834   8.259  48.931  1.00  0.00    -0.141 SA
HETATM   29  H17 UNL     1      25.496   9.489  48.814  1.00  0.00     0.107 HD
ENDBRANCH  27  28
ENDBRANCH  20  22
ENDBRANCH  19  20
ENDBRANCH   4  19
TORSDOF 6
ENDMDL
MODEL 6
REMARK VINA RESULT:      -6.9      5.469      8.045
REMARK  6 active torsions:
REMARK  status: ('A' for Active; 'I' for Inactive)
REMARK    1  A    between atoms: O1_2  and  C2_3 
REMARK    2  A    between atoms: C6_9  and  N3_10 
REMARK    3  A    between atoms: N4_13  and  C9_14 
REMARK    4  A    between atoms: C9_14  and  N5_15 
REMARK    5  A    between atoms: N5_15  and  C10_16 
REMARK    6  A    between atoms: C15_21  and  S1_22 
ROOT
HETATM    1  N3  UNL     1      20.359   1.184  52.093  1.00  0.00    -0.362 N 
HETATM    2  C7  UNL     1      19.563   0.868  50.929  1.00  0.00     0.144 C 
HETATM    3  C8  UNL     1      18.146   1.356  51.258  1.00  0.00     0.138 C 
HETATM    4  N4  UNL     1      18.195   2.772  51.248  1.00  0.00    -0.394 N 
HETATM    5  C16 UNL     1      19.289   3.402  51.874  1.00  0.00     0.138 C 
HETATM    6  C17 UNL     1      20.236   2.519  52.615  1.00  0.00     0.144 C 
ENDROOT
BRANCH   1   7
HETATM    7  C6  UNL     1      21.302   0.466  52.915  1.00  0.00     0.138 A 
HETATM    8  N2  UNL     1      20.812  -0.295  53.921  1.00  0.00    -0.224 NA
HETATM    9  C5  UNL     1      21.643  -0.997  54.732  1.00  0.00     0.235 A 
HETATM   10  N1  UNL     1      22.988  -0.945  54.545  1.00  0.00    -0.241 NA
HETATM   11  C4  UNL     1      23.520  -0.202  53.556  1.00  0.00     0.075 A 
HETATM   12  C3  UNL     1      24.967  -0.154  53.364  1.00  0.00     0.096 A 
HETATM   13  C18 UNL     1      22.669   0.510  52.734  1.00  0.00     0.041 A 
HETATM   14  C2  UNL     1      25.423   0.602  52.366  1.00  0.00     0.182 A 
HETATM   15  O2  UNL     1      24.587   1.317  51.540  1.00  0.00    -0.326 OA
HETATM   16  C19 UNL     1      23.181   1.342  51.636  1.00  0.00     0.223 A 
BRANCH  14  17
HETATM   17  O1  UNL     1      26.803   0.644  52.188  1.00  0.00    -0.336 OA
HETATM   18  C1  UNL     1      27.669   0.481  53.306  1.00  0.00     0.212 C 
ENDBRANCH  14  17
ENDBRANCH   1   7
BRANCH   4  19
HETATM   19  C9  UNL     1      16.920   3.392  51.556  1.00  0.00     0.241 C 
BRANCH  19  20
HETATM   20  N5  UNL     1      16.008   2.331  51.941  1.00  0.00    -0.373 N 
HETATM   21  H12 UNL     1      16.133   1.332  51.741  1.00  0.00     0.161 HD
BRANCH  20  22
HETATM   22  C10 UNL     1      14.831   2.689  52.659  1.00  0.00     0.045 A 
HETATM   23  C11 UNL     1      14.588   4.003  53.054  1.00  0.00     0.030 A 
HETATM   24  C12 UNL     1      13.472   4.418  53.750  1.00  0.00     0.002 A 
HETATM   25  C13 UNL     1      12.530   3.468  54.079  1.00  0.00     0.002 A 
HETATM   26  C14 UNL     1      12.720   2.145  53.711  1.00  0.00     0.021 A 
HETATM   27  C15 UNL     1      13.853   1.781  53.016  1.00  0.00     0.024 A 
BRANCH  27  28
HETATM   28  S1  UNL     1      14.059   0.085  52.565  1.00  0.00    -0.141 SA
HETATM   29  H17 UNL     1      14.368  -0.681  53.699  1.00  0.00     0.107 HD
ENDBRANCH  27  28
ENDBRANCH  20  22
ENDBRANCH  19  20
ENDBRANCH   4  19
TORSDOF 6
ENDMDL
MODEL 7
REMARK VINA RESULT:      -6.7      2.515      3.650
REMARK  6 active torsions:
REMARK  status: ('A' for Active; 'I' for Inactive)
REMARK    1  A    between atoms: O1_2  and  C2_3 
REMARK    2  A    between atoms: C6_9  and  N3_10 
REMARK    3  A    between atoms: N4_13  and  C9_14 
REMARK    4  A    between atoms: C9_14  and  N5_15 
REMARK    5  A    between atoms: N5_15  and  C10_16 
REMARK    6  A    between atoms: C15_21  and  S1_22 
ROOT
HETATM    1  N3  UNL     1      23.526   4.137  50.929  1.00  0.00    -0.362 N 
HETATM    2  C7  UNL     1      23.111   5.444  51.384  1.00  0.00     0.144 C 
HETATM    3  C8  UNL     1      24.067   6.436  50.710  1.00  0.00     0.138 C 
HETATM    4  N4  UNL     1      23.732   6.445  49.333  1.00  0.00    -0.394 N 
HETATM    5  C16 UNL     1      23.484   5.210  48.703  1.00  0.00     0.138 C 
HETATM    6  C17 UNL     1      23.731   3.983  49.514  1.00  0.00     0.144 C 
ENDROOT
BRANCH   1   7
HETATM    7  C6  UNL     1      23.805   2.871  51.563  1.00  0.00     0.138 A 
HETATM    8  N2  UNL     1      25.089   2.445  51.584  1.00  0.00    -0.224 NA
HETATM    9  C5  UNL     1      25.422   1.263  52.164  1.00  0.00     0.235 A 
HETATM   10  N1  UNL     1      24.463   0.488  52.737  1.00  0.00    -0.241 NA
HETATM   11  C4  UNL     1      23.174   0.873  52.740  1.00  0.00     0.075 A 
HETATM   12  C3  UNL     1      22.152   0.033  53.358  1.00  0.00     0.096 A 
HETATM   13  C18 UNL     1      22.842   2.077  52.148  1.00  0.00     0.041 A 
HETATM   14  C2  UNL     1      20.897   0.476  53.325  1.00  0.00     0.182 A 
HETATM   15  O2  UNL     1      20.552   1.672  52.738  1.00  0.00    -0.326 OA
HETATM   16  C19 UNL     1      21.454   2.558  52.115  1.00  0.00     0.223 A 
BRANCH  14  17
HETATM   17  O1  UNL     1      19.927  -0.330  53.915  1.00  0.00    -0.336 OA
HETATM   18  C1  UNL     1      18.833  -0.809  53.139  1.00  0.00     0.212 C 
ENDBRANCH  14  17
ENDBRANCH   1   7
BRANCH   4  19
HETATM   19  C9  UNL     1      24.564   7.337  48.547  1.00  0.00     0.241 C 
BRANCH  19  20
HETATM   20  N5  UNL     1      25.735   7.648  49.346  1.00  0.00    -0.373 N 
HETATM   21  H12 UNL     1      25.743   8.218  50.200  1.00  0.00     0.161 HD
BRANCH  20  22
HETATM   22  C10 UNL     1      26.991   7.127  48.923  1.00  0.00     0.045 A 
HETATM   23  C11 UNL     1      27.177   5.765  48.693  1.00  0.00     0.030 A 
HETATM   24  C12 UNL     1      28.363   5.194  48.283  1.00  0.00     0.002 A 
HETATM   25  C13 UNL     1      29.442   6.028  48.086  1.00  0.00     0.002 A 
HETATM   26  C14 UNL     1      29.315   7.391  48.300  1.00  0.00     0.021 A 
HETATM   27  C15 UNL     1      28.107   7.913  48.709  1.00  0.00     0.024 A 
BRANCH  27  28
HETATM   28  S1  UNL     1      27.985   9.656  48.971  1.00  0.00    -0.141 SA
HETATM   29  H17 UNL     1      29.005  10.086  49.833  1.00  0.00     0.107 HD
ENDBRANCH  27  28
ENDBRANCH  20  22
ENDBRANCH  19  20
ENDBRANCH   4  19
TORSDOF 6
ENDMDL
MODEL 8
REMARK VINA RESULT:      -6.7      3.906      8.247
REMARK  6 active torsions:
REMARK  status: ('A' for Active; 'I' for Inactive)
REMARK    1  A    between atoms: O1_2  and  C2_3 
REMARK    2  A    between atoms: C6_9  and  N3_10 
REMARK    3  A    between atoms: N4_13  and  C9_14 
REMARK    4  A    between atoms: C9_14  and  N5_15 
REMARK    5  A    between atoms: N5_15  and  C10_16 
REMARK    6  A    between atoms: C15_21  and  S1_22 
ROOT
HETATM    1  N3  UNL     1      25.045   4.909  49.623  1.00  0.00    -0.362 N 
HETATM    2  C7  UNL     1      23.657   4.941  49.223  1.00  0.00     0.144 C 
HETATM    3  C8  UNL     1      23.234   3.472  49.095  1.00  0.00     0.138 C 
HETATM    4  N4  UNL     1      23.185   2.950  50.411  1.00  0.00    -0.394 N 
HETATM    5  C16 UNL     1      24.235   3.277  51.293  1.00  0.00     0.138 C 
HETATM    6  C17 UNL     1      25.381   4.037  50.717  1.00  0.00     0.144 C 
ENDROOT
BRANCH   1   7
HETATM    7  C6  UNL     1      26.253   5.564  49.184  1.00  0.00     0.138 A 
HETATM    8  N2  UNL     1      27.266   4.786  48.737  1.00  0.00    -0.224 NA
HETATM    9  C5  UNL     1      28.431   5.337  48.309  1.00  0.00     0.235 A 
HETATM   10  N1  UNL     1      28.596   6.686  48.322  1.00  0.00    -0.241 NA
HETATM   11  C4  UNL     1      27.615   7.498  48.757  1.00  0.00     0.075 A 
HETATM   12  C3  UNL     1      27.803   8.946  48.767  1.00  0.00     0.096 A 
HETATM   13  C18 UNL     1      26.432   6.931  49.192  1.00  0.00     0.041 A 
HETATM   14  C2  UNL     1      26.790   9.688  49.210  1.00  0.00     0.182 A 
HETATM   15  O2  UNL     1      25.607   9.138  49.646  1.00  0.00    -0.326 OA
HETATM   16  C19 UNL     1      25.320   7.758  49.680  1.00  0.00     0.223 A 
BRANCH  14  17
HETATM   17  O1  UNL     1      26.975  11.068  49.218  1.00  0.00    -0.336 OA
HETATM   18  C1  UNL     1      28.229  11.619  48.827  1.00  0.00     0.212 C 
ENDBRANCH  14  17
ENDBRANCH   1   7
BRANCH   4  19
HETATM   19  C9  UNL     1      22.807   1.551  50.459  1.00  0.00     0.241 C 
BRANCH  19  20
HETATM   20  N5  UNL     1      21.672   1.443  51.357  1.00  0.00    -0.373 N 
HETATM   21  H12 UNL     1      20.802   1.985  51.291  1.00  0.00     0.161 HD
BRANCH  20  22
HETATM   22  C10 UNL     1      21.754   0.508  52.429  1.00  0.00     0.045 A 
HETATM   23  C11 UNL     1      22.972   0.183  53.023  1.00  0.00     0.030 A 
HETATM   24  C12 UNL     1      23.123  -0.711  54.062  1.00  0.00     0.002 A 
HETATM   25  C13 UNL     1      21.991  -1.327  54.549  1.00  0.00     0.002 A 
HETATM   26  C14 UNL     1      20.752  -1.041  53.997  1.00  0.00     0.021 A 
HETATM   27  C15 UNL     1      20.654  -0.139  52.959  1.00  0.00     0.024 A 
BRANCH  27  28
HETATM   28  S1  UNL     1      19.058   0.198  52.281  1.00  0.00    -0.141 SA
HETATM   29  H17 UNL     1      18.190   0.641  53.290  1.00  0.00     0.107 HD
ENDBRANCH  27  28
ENDBRANCH  20  22
ENDBRANCH  19  20
ENDBRANCH   4  19
TORSDOF 6
ENDMDL
MODEL 9
REMARK VINA RESULT:      -6.7      3.021      4.461
REMARK  6 active torsions:
REMARK  status: ('A' for Active; 'I' for Inactive)
REMARK    1  A    between atoms: O1_2  and  C2_3 
REMARK    2  A    between atoms: C6_9  and  N3_10 
REMARK    3  A    between atoms: N4_13  and  C9_14 
REMARK    4  A    between atoms: C9_14  and  N5_15 
REMARK    5  A    between atoms: N5_15  and  C10_16 
REMARK    6  A    between atoms: C15_21  and  S1_22 
ROOT
HETATM    1  N3  UNL     1      25.448   3.646  50.347  1.00  0.00    -0.362 N 
HETATM    2  C7  UNL     1      24.442   4.641  50.055  1.00  0.00     0.144 C 
HETATM    3  C8  UNL     1      25.137   5.996  50.245  1.00  0.00     0.138 C 
HETATM    4  N4  UNL     1      26.055   6.131  49.174  1.00  0.00    -0.394 N 
HETATM    5  C16 UNL     1      26.837   5.013  48.826  1.00  0.00     0.138 C 
HETATM    6  C17 UNL     1      26.726   3.816  49.710  1.00  0.00     0.144 C 
ENDROOT
BRANCH   1   7
HETATM    7  C6  UNL     1      25.506   2.456  51.161  1.00  0.00     0.138 A 
HETATM    8  N2  UNL     1      26.694   1.815  51.256  1.00  0.00    -0.224 NA
HETATM    9  C5  UNL     1      26.819   0.689  52.005  1.00  0.00     0.235 A 
HETATM   10  N1  UNL     1      25.747   0.188  52.673  1.00  0.00    -0.241 NA
HETATM   11  C4  UNL     1      24.546   0.794  52.606  1.00  0.00     0.075 A 
HETATM   12  C3  UNL     1      23.401   0.247  53.328  1.00  0.00     0.096 A 
HETATM   13  C18 UNL     1      24.426   1.939  51.843  1.00  0.00     0.041 A 
HETATM   14  C2  UNL     1      22.245   0.898  53.218  1.00  0.00     0.182 A 
HETATM   15  O2  UNL     1      22.109   2.039  52.461  1.00  0.00    -0.326 OA
HETATM   16  C19 UNL     1      23.145   2.651  51.726  1.00  0.00     0.223 A 
BRANCH  14  17
HETATM   17  O1  UNL     1      21.155   0.372  53.908  1.00  0.00    -0.336 OA
HETATM   18  C1  UNL     1      21.203  -0.965  54.396  1.00  0.00     0.212 C 
ENDBRANCH  14  17
ENDBRANCH   1   7
BRANCH   4  19
HETATM   19  C9  UNL     1      26.808   7.370  49.219  1.00  0.00     0.241 C 
BRANCH  19  20
HETATM   20  N5  UNL     1      28.209   7.028  49.057  1.00  0.00    -0.373 N 
HETATM   21  H12 UNL     1      28.598   6.078  49.065  1.00  0.00     0.161 HD
BRANCH  20  22
HETATM   22  C10 UNL     1      29.139   8.090  48.870  1.00  0.00     0.045 A 
HETATM   23  C11 UNL     1      28.804   9.413  49.152  1.00  0.00     0.030 A 
HETATM   24  C12 UNL     1      29.653  10.488  48.995  1.00  0.00     0.002 A 
HETATM   25  C13 UNL     1      30.925  10.238  48.526  1.00  0.00     0.002 A 
HETATM   26  C14 UNL     1      31.313   8.941  48.230  1.00  0.00     0.021 A 
HETATM   27  C15 UNL     1      30.426   7.901  48.404  1.00  0.00     0.024 A 
BRANCH  27  28
HETATM   28  S1  UNL     1      30.959   6.261  48.015  1.00  0.00    -0.141 SA
HETATM   29  H17 UNL     1      30.981   5.474  49.175  1.00  0.00     0.107 HD
ENDBRANCH  27  28
ENDBRANCH  20  22
ENDBRANCH  19  20
ENDBRANCH   4  19
TORSDOF 6
ENDMDL
