MODEL 1
REMARK VINA RESULT:      -7.1      0.000      0.000
REMARK  9 active torsions:
REMARK  status: ('A' for Active; 'I' for Inactive)
REMARK    1  A    between atoms: C2_2  and  O1_3 
REMARK    2  A    between atoms: O1_3  and  C3_4 
REMARK    3  A    between atoms: C3_4  and  C4_5 
REMARK    4  A    between atoms: C6_9  and  N3_10 
REMARK    5  A    between atoms: N3_10  and  C7_11 
REMARK    6  A    between atoms: C8_12  and  C9_13 
REMARK    7  A    between atoms: C11_15  and  C12_16 
REMARK    8  A    between atoms: C13_17  and  C14_18 
REMARK    9  A    between atoms: C15_19  and  N4_20 
ROOT
HETATM    1  C4  UNL     1      25.590  -0.255  52.856  1.00  0.00     0.073 A 
HETATM    2  N1  UNL     1      24.296  -0.486  53.200  1.00  0.00    -0.243 NA
HETATM    3  C5  UNL     1      23.305   0.361  52.942  1.00  0.00     0.235 A 
HETATM    4  N2  UNL     1      23.614   1.514  52.302  1.00  0.00    -0.224 NA
HETATM    5  C6  UNL     1      24.918   1.765  51.949  1.00  0.00     0.138 A 
HETATM    6  C13 UNL     1      25.999   0.860  52.221  1.00  0.00     0.038 A 
ENDROOT
BRANCH   5   7
HETATM    7  N3  UNL     1      25.048   2.983  51.306  1.00  0.00    -0.357 N 
HETATM    8  H9  UNL     1      24.137   3.248  50.813  1.00  0.00     0.162 HD
BRANCH   7   9
HETATM    9  C7  UNL     1      25.163   4.176  50.668  1.00  0.00     0.094 A 
HETATM   10  C8  UNL     1      25.711   4.819  49.894  1.00  0.00    -0.037 A 
HETATM   11  C12 UNL     1      26.446   3.659  49.858  1.00  0.00     0.062 A 
BRANCH  10  12
HETATM   12  C9  UNL     1      26.237   5.402  49.164  1.00  0.00    -0.063 A 
HETATM   13  C10 UNL     1      26.809   6.004  48.392  1.00  0.00     0.033 A 
HETATM   14  C11 UNL     1      27.291   4.581  48.896  1.00  0.00     0.035 A 
ENDBRANCH  10  12
ENDBRANCH   7   9
ENDBRANCH   5   7
BRANCH   6  15
HETATM   15  C14 UNL     1      27.248   1.520  51.971  1.00  0.00     0.039 C 
HETATM   16  C15 UNL     1      28.016   2.149  52.878  1.00  0.00     0.150 C 
BRANCH  16  17
HETATM   17  N4  UNL     1      28.311   2.608  54.228  1.00  0.00    -0.110 NA
HETATM   18  O2  UNL     1      28.813   1.658  54.948  1.00  0.00    -0.062 OA
ENDBRANCH  16  17
ENDBRANCH   6  15
BRANCH   1  19
HETATM   19  C3  UNL     1      26.553  -1.337  53.021  1.00  0.00     0.227 C 
BRANCH  19  20
HETATM   20  O1  UNL     1      27.623  -1.118  53.811  1.00  0.00    -0.386 OA
BRANCH  20  21
HETATM   21  C2  UNL     1      28.754  -1.595  53.110  1.00  0.00     0.163 C 
HETATM   22  C1  UNL     1      30.004  -1.066  53.736  1.00  0.00     0.033 C 
ENDBRANCH  20  21
ENDBRANCH  19  20
ENDBRANCH   1  19
TORSDOF 9
ENDMDL
MODEL 2
REMARK VINA RESULT:      -7.0      1.901      5.115
REMARK  9 active torsions:
REMARK  status: ('A' for Active; 'I' for Inactive)
REMARK    1  A    between atoms: C2_2  and  O1_3 
REMARK    2  A    between atoms: O1_3  and  C3_4 
REMARK    3  A    between atoms: C3_4  and  C4_5 
REMARK    4  A    between atoms: C6_9  and  N3_10 
REMARK    5  A    between atoms: N3_10  and  C7_11 
REMARK    6  A    between atoms: C8_12  and  C9_13 
REMARK    7  A    between atoms: C11_15  and  C12_16 
REMARK    8  A    between atoms: C13_17  and  C14_18 
REMARK    9  A    between atoms: C15_19  and  N4_20 
ROOT
HETATM    1  C4  UNL     1      26.900   1.815  51.997  1.00  0.00     0.073 A 
HETATM    2  N1  UNL     1      26.927   2.930  51.219  1.00  0.00    -0.243 NA
HETATM    3  C5  UNL     1      25.857   3.419  50.600  1.00  0.00     0.235 A 
HETATM    4  N2  UNL     1      24.683   2.763  50.760  1.00  0.00    -0.224 NA
HETATM    5  C6  UNL     1      24.639   1.633  51.541  1.00  0.00     0.138 A 
HETATM    6  C13 UNL     1      25.785   1.092  52.214  1.00  0.00     0.038 A 
ENDROOT
BRANCH   5   7
HETATM    7  N3  UNL     1      23.365   1.097  51.591  1.00  0.00    -0.357 N 
HETATM    8  H9  UNL     1      22.914   1.104  50.622  1.00  0.00     0.162 HD
BRANCH   7   9
HETATM    9  C7  UNL     1      22.112   0.575  51.627  1.00  0.00     0.094 A 
HETATM   10  C8  UNL     1      21.223   0.215  52.255  1.00  0.00    -0.037 A 
HETATM   11  C12 UNL     1      22.134   0.542  53.230  1.00  0.00     0.062 A 
BRANCH  10  12
HETATM   12  C9  UNL     1      20.402  -0.113  52.862  1.00  0.00    -0.063 A 
HETATM   13  C10 UNL     1      19.546  -0.456  53.521  1.00  0.00     0.033 A 
HETATM   14  C11 UNL     1      20.835   0.263  54.099  1.00  0.00     0.035 A 
ENDBRANCH  10  12
ENDBRANCH   7   9
ENDBRANCH   5   7
BRANCH   6  15
HETATM   15  C14 UNL     1      25.470  -0.214  52.718  1.00  0.00     0.039 C 
HETATM   16  C15 UNL     1      25.627  -0.643  53.982  1.00  0.00     0.150 C 
BRANCH  16  17
HETATM   17  N4  UNL     1      26.024  -0.459  55.371  1.00  0.00    -0.110 NA
HETATM   18  O2  UNL     1      25.277  -1.150  56.169  1.00  0.00    -0.062 OA
ENDBRANCH  16  17
ENDBRANCH   6  15
BRANCH   1  19
HETATM   19  C3  UNL     1      28.089   1.485  52.772  1.00  0.00     0.227 C 
BRANCH  19  20
HETATM   20  O1  UNL     1      28.154   1.916  54.048  1.00  0.00    -0.386 OA
BRANCH  20  21
HETATM   21  C2  UNL     1      29.178   1.174  54.680  1.00  0.00     0.163 C 
HETATM   22  C1  UNL     1      29.395  -0.116  53.957  1.00  0.00     0.033 C 
ENDBRANCH  20  21
ENDBRANCH  19  20
ENDBRANCH   1  19
TORSDOF 9
ENDMDL
MODEL 3
REMARK VINA RESULT:      -6.9      3.587      6.159
REMARK  9 active torsions:
REMARK  status: ('A' for Active; 'I' for Inactive)
REMARK    1  A    between atoms: C2_2  and  O1_3 
REMARK    2  A    between atoms: O1_3  and  C3_4 
REMARK    3  A    between atoms: C3_4  and  C4_5 
REMARK    4  A    between atoms: C6_9  and  N3_10 
REMARK    5  A    between atoms: N3_10  and  C7_11 
REMARK    6  A    between atoms: C8_12  and  C9_13 
REMARK    7  A    between atoms: C11_15  and  C12_16 
REMARK    8  A    between atoms: C13_17  and  C14_18 
REMARK    9  A    between atoms: C15_19  and  N4_20 
ROOT
HETATM    1  C4  UNL     1      22.416   1.733  52.174  1.00  0.00     0.073 A 
HETATM    2  N1  UNL     1      22.417   3.088  52.063  1.00  0.00    -0.243 NA
HETATM    3  C5  UNL     1      23.435   3.855  52.440  1.00  0.00     0.235 A 
HETATM    4  N2  UNL     1      24.524   3.243  52.962  1.00  0.00    -0.224 NA
HETATM    5  C6  UNL     1      24.539   1.874  53.083  1.00  0.00     0.138 A 
HETATM    6  C13 UNL     1      23.448   1.032  52.682  1.00  0.00     0.038 A 
ENDROOT
BRANCH   5   7
HETATM    7  N3  UNL     1      25.726   1.423  53.633  1.00  0.00    -0.357 N 
HETATM    8  H9  UNL     1      25.832   0.368  53.488  1.00  0.00     0.162 HD
BRANCH   7   9
HETATM    9  C7  UNL     1      26.887   0.966  54.170  1.00  0.00     0.094 A 
HETATM   10  C8  UNL     1      27.874   0.404  54.021  1.00  0.00    -0.037 A 
HETATM   11  C12 UNL     1      27.297   0.276  52.781  1.00  0.00     0.062 A 
BRANCH  10  12
HETATM   12  C9  UNL     1      28.794  -0.123  53.860  1.00  0.00    -0.063 A 
HETATM   13  C10 UNL     1      29.755  -0.696  53.681  1.00  0.00     0.033 A 
HETATM   14  C11 UNL     1      28.352  -1.189  53.135  1.00  0.00     0.035 A 
ENDBRANCH  10  12
ENDBRANCH   7   9
ENDBRANCH   5   7
BRANCH   6  15
HETATM   15  C14 UNL     1      23.663  -0.297  53.177  1.00  0.00     0.039 C 
HETATM   16  C15 UNL     1      22.960  -0.915  54.142  1.00  0.00     0.150 C 
BRANCH  16  17
HETATM   17  N4  UNL     1      21.904  -0.963  55.144  1.00  0.00    -0.110 NA
HETATM   18  O2  UNL     1      21.189  -2.034  55.021  1.00  0.00    -0.062 OA
ENDBRANCH  16  17
ENDBRANCH   6  15
BRANCH   1  19
HETATM   19  C3  UNL     1      21.325   0.990  51.556  1.00  0.00     0.227 C 
BRANCH  19  20
HETATM   20  O1  UNL     1      21.562   0.381  50.377  1.00  0.00    -0.386 OA
BRANCH  20  21
HETATM   21  C2  UNL     1      20.923   1.154  49.380  1.00  0.00     0.163 C 
HETATM   22  C1  UNL     1      21.905   1.531  48.318  1.00  0.00     0.033 C 
ENDBRANCH  20  21
ENDBRANCH  19  20
ENDBRANCH   1  19
TORSDOF 9
ENDMDL
MODEL 4
REMARK VINA RESULT:      -6.9      1.812      2.782
REMARK  9 active torsions:
REMARK  status: ('A' for Active; 'I' for Inactive)
REMARK    1  A    between atoms: C2_2  and  O1_3 
REMARK    2  A    between atoms: O1_3  and  C3_4 
REMARK    3  A    between atoms: C3_4  and  C4_5 
REMARK    4  A    between atoms: C6_9  and  N3_10 
REMARK    5  A    between atoms: N3_10  and  C7_11 
REMARK    6  A    between atoms: C8_12  and  C9_13 
REMARK    7  A    between atoms: C11_15  and  C12_16 
REMARK    8  A    between atoms: C13_17  and  C14_18 
REMARK    9  A    between atoms: C15_19  and  N4_20 
ROOT
HETATM    1  C4  UNL     1      23.883   1.072  52.447  1.00  0.00     0.073 A 
HETATM    2  N1  UNL     1      22.709   1.754  52.384  1.00  0.00    -0.243 NA
HETATM    3  C5  UNL     1      22.532   2.845  51.646  1.00  0.00     0.235 A 
HETATM    4  N2  UNL     1      23.586   3.293  50.923  1.00  0.00    -0.224 NA
HETATM    5  C6  UNL     1      24.782   2.618  50.977  1.00  0.00     0.138 A 
HETATM    6  C13 UNL     1      24.989   1.439  51.770  1.00  0.00     0.038 A 
ENDROOT
BRANCH   5   7
HETATM    7  N3  UNL     1      25.742   3.213  50.179  1.00  0.00    -0.357 N 
HETATM    8  H9  UNL     1      26.691   2.740  50.314  1.00  0.00     0.162 HD
BRANCH   7   9
HETATM    9  C7  UNL     1      26.695   3.790  49.403  1.00  0.00     0.094 A 
HETATM   10  C8  UNL     1      27.117   4.741  48.923  1.00  0.00    -0.037 A 
HETATM   11  C12 UNL     1      25.986   5.222  49.537  1.00  0.00     0.062 A 
BRANCH  10  12
HETATM   12  C9  UNL     1      27.496   5.644  48.486  1.00  0.00    -0.063 A 
HETATM   13  C10 UNL     1      27.918   6.591  48.027  1.00  0.00     0.033 A 
HETATM   14  C11 UNL     1      28.813   5.322  48.341  1.00  0.00     0.035 A 
ENDBRANCH  10  12
ENDBRANCH   7   9
ENDBRANCH   5   7
BRANCH   6  15
HETATM   15  C14 UNL     1      26.390   1.135  51.817  1.00  0.00     0.039 C 
HETATM   16  C15 UNL     1      27.240   1.434  52.815  1.00  0.00     0.150 C 
BRANCH  16  17
HETATM   17  N4  UNL     1      27.559   2.013  54.113  1.00  0.00    -0.110 NA
HETATM   18  O2  UNL     1      28.653   2.700  54.064  1.00  0.00    -0.062 OA
ENDBRANCH  16  17
ENDBRANCH   6  15
BRANCH   1  19
HETATM   19  C3  UNL     1      23.901  -0.211  53.138  1.00  0.00     0.227 C 
BRANCH  19  20
HETATM   20  O1  UNL     1      24.456  -0.261  54.366  1.00  0.00    -0.386 OA
BRANCH  20  21
HETATM   21  C2  UNL     1      23.720  -1.213  55.109  1.00  0.00     0.163 C 
HETATM   22  C1  UNL     1      22.288  -1.199  54.681  1.00  0.00     0.033 C 
ENDBRANCH  20  21
ENDBRANCH  19  20
ENDBRANCH   1  19
TORSDOF 9
ENDMDL
MODEL 5
REMARK VINA RESULT:      -6.7      3.122      5.705
REMARK  9 active torsions:
REMARK  status: ('A' for Active; 'I' for Inactive)
REMARK    1  A    between atoms: C2_2  and  O1_3 
REMARK    2  A    between atoms: O1_3  and  C3_4 
REMARK    3  A    between atoms: C3_4  and  C4_5 
REMARK    4  A    between atoms: C6_9  and  N3_10 
REMARK    5  A    between atoms: N3_10  and  C7_11 
REMARK    6  A    between atoms: C8_12  and  C9_13 
REMARK    7  A    between atoms: C11_15  and  C12_16 
REMARK    8  A    between atoms: C13_17  and  C14_18 
REMARK    9  A    between atoms: C15_19  and  N4_20 
ROOT
HETATM    1  C4  UNL     1      25.436  -0.337  54.284  1.00  0.00     0.073 A 
HETATM    2  N1  UNL     1      25.174  -1.040  55.417  1.00  0.00    -0.243 NA
HETATM    3  C5  UNL     1      23.958  -1.448  55.764  1.00  0.00     0.235 A 
HETATM    4  N2  UNL     1      22.931  -1.139  54.936  1.00  0.00    -0.224 NA
HETATM    5  C6  UNL     1      23.178  -0.426  53.787  1.00  0.00     0.138 A 
HETATM    6  C13 UNL     1      24.486   0.022  53.400  1.00  0.00     0.038 A 
ENDROOT
BRANCH   5   7
HETATM    7  N3  UNL     1      22.019  -0.203  53.066  1.00  0.00    -0.357 N 
HETATM    8  H9  UNL     1      21.371   0.468  53.591  1.00  0.00     0.162 HD
BRANCH   7   9
HETATM    9  C7  UNL     1      20.875   0.024  52.369  1.00  0.00     0.094 A 
HETATM   10  C8  UNL     1      19.736  -0.082  52.305  1.00  0.00    -0.037 A 
HETATM   11  C12 UNL     1      20.008  -0.742  53.480  1.00  0.00     0.062 A 
BRANCH  10  12
HETATM   12  C9  UNL     1      18.670  -0.190  52.267  1.00  0.00    -0.063 A 
HETATM   13  C10 UNL     1      17.543  -0.292  52.208  1.00  0.00     0.033 A 
HETATM   14  C11 UNL     1      18.411   0.292  51.019  1.00  0.00     0.035 A 
ENDBRANCH  10  12
ENDBRANCH   7   9
ENDBRANCH   5   7
BRANCH   6  15
HETATM   15  C14 UNL     1      24.369   0.949  52.311  1.00  0.00     0.039 C 
HETATM   16  C15 UNL     1      24.226   2.282  52.408  1.00  0.00     0.150 C 
BRANCH  16  17
HETATM   17  N4  UNL     1      24.096   3.517  53.168  1.00  0.00    -0.110 NA
HETATM   18  O2  UNL     1      23.542   4.448  52.461  1.00  0.00    -0.062 OA
ENDBRANCH  16  17
ENDBRANCH   6  15
BRANCH   1  19
HETATM   19  C3  UNL     1      26.828  -0.111  53.917  1.00  0.00     0.227 C 
BRANCH  19  20
HETATM   20  O1  UNL     1      27.780  -0.410  54.824  1.00  0.00    -0.386 OA
BRANCH  20  21
HETATM   21  C2  UNL     1      28.992   0.135  54.342  1.00  0.00     0.163 C 
HETATM   22  C1  UNL     1      29.816  -0.937  53.705  1.00  0.00     0.033 C 
ENDBRANCH  20  21
ENDBRANCH  19  20
ENDBRANCH   1  19
TORSDOF 9
ENDMDL
MODEL 6
REMARK VINA RESULT:      -6.7      3.379      5.982
REMARK  9 active torsions:
REMARK  status: ('A' for Active; 'I' for Inactive)
REMARK    1  A    between atoms: C2_2  and  O1_3 
REMARK    2  A    between atoms: O1_3  and  C3_4 
REMARK    3  A    between atoms: C3_4  and  C4_5 
REMARK    4  A    between atoms: C6_9  and  N3_10 
REMARK    5  A    between atoms: N3_10  and  C7_11 
REMARK    6  A    between atoms: C8_12  and  C9_13 
REMARK    7  A    between atoms: C11_15  and  C12_16 
REMARK    8  A    between atoms: C13_17  and  C14_18 
REMARK    9  A    between atoms: C15_19  and  N4_20 
ROOT
HETATM    1  C4  UNL     1      21.911   0.247  52.776  1.00  0.00     0.073 A 
HETATM    2  N1  UNL     1      21.340  -0.625  53.648  1.00  0.00    -0.243 NA
HETATM    3  C5  UNL     1      22.020  -1.278  54.585  1.00  0.00     0.235 A 
HETATM    4  N2  UNL     1      23.354  -1.056  54.663  1.00  0.00    -0.224 NA
HETATM    5  C6  UNL     1      23.948  -0.179  53.787  1.00  0.00     0.138 A 
HETATM    6  C13 UNL     1      23.227   0.533  52.770  1.00  0.00     0.038 A 
ENDROOT
BRANCH   5   7
HETATM    7  N3  UNL     1      25.309  -0.076  54.012  1.00  0.00    -0.357 N 
HETATM    8  H9  UNL     1      25.501   0.395  54.953  1.00  0.00     0.162 HD
BRANCH   7   9
HETATM    9  C7  UNL     1      26.642   0.035  54.244  1.00  0.00     0.094 A 
HETATM   10  C8  UNL     1      27.709  -0.278  53.967  1.00  0.00    -0.037 A 
HETATM   11  C12 UNL     1      26.964  -1.054  53.112  1.00  0.00     0.062 A 
BRANCH  10  12
HETATM   12  C9  UNL     1      28.699  -0.582  53.689  1.00  0.00    -0.063 A 
HETATM   13  C10 UNL     1      29.751  -0.883  53.393  1.00  0.00     0.033 A 
HETATM   14  C11 UNL     1      29.341   0.620  53.681  1.00  0.00     0.035 A 
ENDBRANCH  10  12
ENDBRANCH   7   9
ENDBRANCH   5   7
BRANCH   6  15
HETATM   15  C14 UNL     1      24.157   1.150  51.868  1.00  0.00     0.039 C 
HETATM   16  C15 UNL     1      24.334   2.469  51.680  1.00  0.00     0.150 C 
BRANCH  16  17
HETATM   17  N4  UNL     1      24.024   3.867  51.948  1.00  0.00    -0.110 NA
HETATM   18  O2  UNL     1      22.822   4.002  52.404  1.00  0.00    -0.062 OA
ENDBRANCH  16  17
ENDBRANCH   6  15
BRANCH   1  19
HETATM   19  C3  UNL     1      21.037   1.043  51.922  1.00  0.00     0.227 C 
BRANCH  19  20
HETATM   20  O1  UNL     1      20.811   0.608  50.666  1.00  0.00    -0.386 OA
BRANCH  20  21
HETATM   21  C2  UNL     1      20.955   1.727  49.814  1.00  0.00     0.163 C 
HETATM   22  C1  UNL     1      21.689   1.333  48.573  1.00  0.00     0.033 C 
ENDBRANCH  20  21
ENDBRANCH  19  20
ENDBRANCH   1  19
TORSDOF 9
ENDMDL
MODEL 7
REMARK VINA RESULT:      -6.5      2.830      6.288
REMARK  9 active torsions:
REMARK  status: ('A' for Active; 'I' for Inactive)
REMARK    1  A    between atoms: C2_2  and  O1_3 
REMARK    2  A    between atoms: O1_3  and  C3_4 
REMARK    3  A    between atoms: C3_4  and  C4_5 
REMARK    4  A    between atoms: C6_9  and  N3_10 
REMARK    5  A    between atoms: N3_10  and  C7_11 
REMARK    6  A    between atoms: C8_12  and  C9_13 
REMARK    7  A    between atoms: C11_15  and  C12_16 
REMARK    8  A    between atoms: C13_17  and  C14_18 
REMARK    9  A    between atoms: C15_19  and  N4_20 
ROOT
HETATM    1  C4  UNL     1      26.318   1.467  52.221  1.00  0.00     0.073 A 
HETATM    2  N1  UNL     1      27.121   0.381  52.376  1.00  0.00    -0.243 NA
HETATM    3  C5  UNL     1      26.703  -0.774  52.882  1.00  0.00     0.235 A 
HETATM    4  N2  UNL     1      25.406  -0.863  53.262  1.00  0.00    -0.224 NA
HETATM    5  C6  UNL     1      24.581   0.226  53.114  1.00  0.00     0.138 A 
HETATM    6  C13 UNL     1      25.017   1.481  52.570  1.00  0.00     0.038 A 
ENDROOT
BRANCH   5   7
HETATM    7  N3  UNL     1      23.296  -0.043  53.551  1.00  0.00    -0.357 N 
HETATM    8  H9  UNL     1      23.225   0.078  54.612  1.00  0.00     0.162 HD
BRANCH   7   9
HETATM    9  C7  UNL     1      22.040  -0.307  53.994  1.00  0.00     0.094 A 
HETATM   10  C8  UNL     1      20.936  -0.485  53.744  1.00  0.00    -0.037 A 
HETATM   11  C12 UNL     1      21.459  -0.219  52.502  1.00  0.00     0.062 A 
BRANCH  10  12
HETATM   12  C9  UNL     1      19.908  -0.651  53.488  1.00  0.00    -0.063 A 
HETATM   13  C10 UNL     1      18.823  -0.812  53.203  1.00  0.00     0.033 A 
HETATM   14  C11 UNL     1      19.790   0.139  52.384  1.00  0.00     0.035 A 
ENDBRANCH  10  12
ENDBRANCH   7   9
ENDBRANCH   5   7
BRANCH   6  15
HETATM   15  C14 UNL     1      24.007   2.476  52.795  1.00  0.00     0.039 C 
HETATM   16  C15 UNL     1      23.218   3.038  51.863  1.00  0.00     0.150 C 
BRANCH  16  17
HETATM   17  N4  UNL     1      22.758   3.215  50.493  1.00  0.00    -0.110 NA
HETATM   18  O2  UNL     1      22.680   2.082  49.874  1.00  0.00    -0.062 OA
ENDBRANCH  16  17
ENDBRANCH   6  15
BRANCH   1  19
HETATM   19  C3  UNL     1      26.838   2.611  51.483  1.00  0.00     0.227 C 
BRANCH  19  20
HETATM   20  O1  UNL     1      26.768   2.583  50.137  1.00  0.00    -0.386 OA
BRANCH  20  21
HETATM   21  C2  UNL     1      26.263   3.838  49.726  1.00  0.00     0.163 C 
HETATM   22  C1  UNL     1      27.275   4.545  48.884  1.00  0.00     0.033 C 
ENDBRANCH  20  21
ENDBRANCH  19  20
ENDBRANCH   1  19
TORSDOF 9
ENDMDL
MODEL 8
REMARK VINA RESULT:      -6.4      2.964      6.805
REMARK  9 active torsions:
REMARK  status: ('A' for Active; 'I' for Inactive)
REMARK    1  A    between atoms: C2_2  and  O1_3 
REMARK    2  A    between atoms: O1_3  and  C3_4 
REMARK    3  A    between atoms: C3_4  and  C4_5 
REMARK    4  A    between atoms: C6_9  and  N3_10 
REMARK    5  A    between atoms: N3_10  and  C7_11 
REMARK    6  A    between atoms: C8_12  and  C9_13 
REMARK    7  A    between atoms: C11_15  and  C12_16 
REMARK    8  A    between atoms: C13_17  and  C14_18 
REMARK    9  A    between atoms: C15_19  and  N4_20 
ROOT
HETATM    1  C4  UNL     1      26.149   3.276  50.538  1.00  0.00     0.073 A 
HETATM    2  N1  UNL     1      27.220   2.828  51.245  1.00  0.00    -0.243 NA
HETATM    3  C5  UNL     1      27.126   1.970  52.255  1.00  0.00     0.235 A 
HETATM    4  N2  UNL     1      25.892   1.525  52.590  1.00  0.00    -0.224 NA
HETATM    5  C6  UNL     1      24.797   1.969  51.888  1.00  0.00     0.138 A 
HETATM    6  C13 UNL     1      24.882   2.897  50.795  1.00  0.00     0.038 A 
ENDROOT
BRANCH   5   7
HETATM    7  N3  UNL     1      23.624   1.413  52.364  1.00  0.00    -0.357 N 
HETATM    8  H9  UNL     1      23.809   0.846  53.252  1.00  0.00     0.162 HD
BRANCH   7   9
HETATM    9  C7  UNL     1      22.480   0.858  52.842  1.00  0.00     0.094 A 
HETATM   10  C8  UNL     1      21.968  -0.027  53.359  1.00  0.00    -0.037 A 
HETATM   11  C12 UNL     1      23.262  -0.478  53.259  1.00  0.00     0.062 A 
BRANCH  10  12
HETATM   12  C9  UNL     1      21.510  -0.864  53.847  1.00  0.00    -0.063 A 
HETATM   13  C10 UNL     1      21.043  -1.751  54.376  1.00  0.00     0.033 A 
HETATM   14  C11 UNL     1      22.349  -1.030  54.908  1.00  0.00     0.035 A 
ENDBRANCH  10  12
ENDBRANCH   7   9
ENDBRANCH   5   7
BRANCH   6  15
HETATM   15  C14 UNL     1      23.566   3.356  50.456  1.00  0.00     0.039 C 
HETATM   16  C15 UNL     1      22.861   3.024  49.360  1.00  0.00     0.150 C 
BRANCH  16  17
HETATM   17  N4  UNL     1      22.690   2.322  48.095  1.00  0.00    -0.110 NA
HETATM   18  O2  UNL     1      21.870   1.329  48.217  1.00  0.00    -0.062 OA
ENDBRANCH  16  17
ENDBRANCH   6  15
BRANCH   1  19
HETATM   19  C3  UNL     1      26.394   4.064  49.337  1.00  0.00     0.227 C 
BRANCH  19  20
HETATM   20  O1  UNL     1      27.643   4.077  48.831  1.00  0.00    -0.386 OA
BRANCH  20  21
HETATM   21  C2  UNL     1      27.941   5.421  48.510  1.00  0.00     0.163 C 
HETATM   22  C1  UNL     1      26.692   6.241  48.530  1.00  0.00     0.033 C 
ENDBRANCH  20  21
ENDBRANCH  19  20
ENDBRANCH   1  19
TORSDOF 9
ENDMDL
MODEL 9
REMARK VINA RESULT:      -6.3      2.904      6.600
REMARK  9 active torsions:
REMARK  status: ('A' for Active; 'I' for Inactive)
REMARK    1  A    between atoms: C2_2  and  O1_3 
REMARK    2  A    between atoms: O1_3  and  C3_4 
REMARK    3  A    between atoms: C3_4  and  C4_5 
REMARK    4  A    between atoms: C6_9  and  N3_10 
REMARK    5  A    between atoms: N3_10  and  C7_11 
REMARK    6  A    between atoms: C8_12  and  C9_13 
REMARK    7  A    between atoms: C11_15  and  C12_16 
REMARK    8  A    between atoms: C13_17  and  C14_18 
REMARK    9  A    between atoms: C15_19  and  N4_20 
ROOT
HETATM    1  C4  UNL     1      26.164   3.217  50.759  1.00  0.00     0.073 A 
HETATM    2  N1  UNL     1      27.244   2.679  51.385  1.00  0.00    -0.243 NA
HETATM    3  C5  UNL     1      27.155   1.783  52.363  1.00  0.00     0.235 A 
HETATM    4  N2  UNL     1      25.917   1.393  52.748  1.00  0.00    -0.224 NA
HETATM    5  C6  UNL     1      24.814   1.928  52.128  1.00  0.00     0.138 A 
HETATM    6  C13 UNL     1      24.893   2.897  51.071  1.00  0.00     0.038 A 
ENDROOT
BRANCH   5   7
HETATM    7  N3  UNL     1      23.638   1.417  52.646  1.00  0.00    -0.357 N 
HETATM    8  H9  UNL     1      23.842   0.740  53.448  1.00  0.00     0.162 HD
BRANCH   7   9
HETATM    9  C7  UNL     1      22.491   0.906  53.163  1.00  0.00     0.094 A 
HETATM   10  C8  UNL     1      21.932  -0.001  53.586  1.00  0.00    -0.037 A 
HETATM   11  C12 UNL     1      23.143  -0.557  53.252  1.00  0.00     0.062 A 
BRANCH  10  12
HETATM   12  C9  UNL     1      21.429  -0.861  53.980  1.00  0.00    -0.063 A 
HETATM   13  C10 UNL     1      20.914  -1.776  54.409  1.00  0.00     0.033 A 
HETATM   14  C11 UNL     1      22.329  -1.275  54.916  1.00  0.00     0.035 A 
ENDBRANCH  10  12
ENDBRANCH   7   9
ENDBRANCH   5   7
BRANCH   6  15
HETATM   15  C14 UNL     1      23.589   3.444  50.826  1.00  0.00     0.039 C 
HETATM   16  C15 UNL     1      23.203   4.715  51.031  1.00  0.00     0.150 C 
BRANCH  16  17
HETATM   17  N4  UNL     1      23.444   6.088  51.453  1.00  0.00    -0.110 NA
HETATM   18  O2  UNL     1      23.972   6.785  50.501  1.00  0.00    -0.062 OA
ENDBRANCH  16  17
ENDBRANCH   6  15
BRANCH   1  19
HETATM   19  C3  UNL     1      26.389   4.043  49.580  1.00  0.00     0.227 C 
BRANCH  19  20
HETATM   20  O1  UNL     1      27.582   3.952  48.960  1.00  0.00    -0.386 OA
BRANCH  20  21
HETATM   21  C2  UNL     1      27.917   5.254  48.521  1.00  0.00     0.163 C 
HETATM   22  C1  UNL     1      26.706   6.130  48.552  1.00  0.00     0.033 C 
ENDBRANCH  20  21
ENDBRANCH  19  20
ENDBRANCH   1  19
TORSDOF 9
ENDMDL
