MODEL 1
REMARK VINA RESULT:      -9.4      0.000      0.000
REMARK  4 active torsions:
REMARK  status: ('A' for Active; 'I' for Inactive)
REMARK    1  A    between atoms: C5_6  and  N1_7 
REMARK    2  A    between atoms: N1_7  and  C6_8 
REMARK    3  A    between atoms: C10_17  and  N7_18 
REMARK    4  A    between atoms: N7_18  and  C11_19 
ROOT
HETATM    1  C6  UNL     1      22.961   2.804  51.581  1.00  0.00     0.153 C 
HETATM    2  N2  UNL     1      22.008   3.610  51.517  1.00  0.00    -0.221 NA
HETATM    3  C7  UNL     1      20.702   3.266  51.285  1.00  0.00     0.257 C 
HETATM    4  N3  UNL     1      20.583   4.534  51.188  1.00  0.00    -0.167 NA
HETATM    5  N4  UNL     1      21.652   5.402  51.342  1.00  0.00    -0.270 N 
HETATM    6  C8  UNL     1      22.726   6.329  51.102  1.00  0.00     0.241 C 
HETATM    7  N5  UNL     1      23.997   5.987  51.376  1.00  0.00    -0.190 NA
HETATM    8  N6  UNL     1      24.088   4.698  51.886  1.00  0.00    -0.176 NA
HETATM    9  C9  UNL     1      24.367   3.311  51.769  1.00  0.00     0.091 C 
HETATM   10  C10 UNL     1      25.400   2.513  51.767  1.00  0.00     0.117 C 
HETATM   11  H6  UNL     1      21.708   5.314  52.389  1.00  0.00     0.190 HD
HETATM   12  H8  UNL     1      24.445   4.694  50.876  1.00  0.00     0.155 HD
ENDROOT
BRANCH   1  13
HETATM   13  N1  UNL     1      22.760   1.413  51.416  1.00  0.00    -0.339 N 
HETATM   14  H4  UNL     1      22.865   1.027  50.423  1.00  0.00     0.167 HD
BRANCH  13  15
HETATM   15  C5  UNL     1      22.422   0.531  52.473  1.00  0.00     0.035 A 
HETATM   16  C4  UNL     1      21.183   0.010  52.766  1.00  0.00     0.029 A 
HETATM   17  C3  UNL     1      20.981  -0.833  53.812  1.00  0.00     0.004 A 
HETATM   18  C2  UNL     1      21.977  -1.241  54.666  1.00  0.00     0.024 A 
HETATM   19  C1  UNL     1      23.271  -0.748  54.425  1.00  0.00     0.036 A 
HETATM   20 CL1  UNL     1      24.690  -1.147  55.400  1.00  0.00    -0.084 Cl
HETATM   21  C18 UNL     1      23.438   0.111  53.348  1.00  0.00     0.053 A 
ENDBRANCH  13  15
ENDBRANCH   1  13
BRANCH  10  22
HETATM   22  N7  UNL     1      26.793   2.635  51.901  1.00  0.00    -0.364 N 
HETATM   23  H10 UNL     1      27.000   3.475  51.317  1.00  0.00     0.165 HD
BRANCH  22  24
HETATM   24  C11 UNL     1      27.418   1.632  52.736  1.00  0.00     0.028 C 
HETATM   25  C12 UNL     1      28.462   1.888  53.549  1.00  0.00     0.006 C 
HETATM   26  C13 UNL     1      29.239   1.030  54.466  1.00  0.00     0.056 C 
HETATM   27  C14 UNL     1      29.682  -0.257  53.884  1.00  0.00    -0.023 C 
HETATM   28  C15 UNL     1      28.837  -1.054  53.191  1.00  0.00    -0.004 C 
HETATM   29  C16 UNL     1      27.407  -0.929  52.833  1.00  0.00     0.002 C 
HETATM   30  C17 UNL     1      26.881   0.278  52.656  1.00  0.00     0.029 C 
ENDBRANCH  22  24
ENDBRANCH  10  22
TORSDOF 4
ENDMDL
MODEL 2
REMARK VINA RESULT:      -9.3      3.292      7.263
REMARK  4 active torsions:
REMARK  status: ('A' for Active; 'I' for Inactive)
REMARK    1  A    between atoms: C5_6  and  N1_7 
REMARK    2  A    between atoms: N1_7  and  C6_8 
REMARK    3  A    between atoms: C10_17  and  N7_18 
REMARK    4  A    between atoms: N7_18  and  C11_19 
ROOT
HETATM    1  C6  UNL     1      26.801   0.541  54.018  1.00  0.00     0.153 C 
HETATM    2  N2  UNL     1      28.029   0.303  54.021  1.00  0.00    -0.221 NA
HETATM    3  C7  UNL     1      29.011   1.244  54.189  1.00  0.00     0.257 C 
HETATM    4  N3  UNL     1      29.750   0.254  53.863  1.00  0.00    -0.167 NA
HETATM    5  N4  UNL     1      29.239  -1.001  53.571  1.00  0.00    -0.270 N 
HETATM    6  C8  UNL     1      28.797  -2.189  52.892  1.00  0.00     0.241 C 
HETATM    7  N5  UNL     1      27.502  -2.547  52.915  1.00  0.00    -0.190 NA
HETATM    8  N6  UNL     1      26.729  -1.650  53.643  1.00  0.00    -0.176 NA
HETATM    9  C9  UNL     1      25.818  -0.567  53.750  1.00  0.00     0.091 C 
HETATM   10  C10 UNL     1      24.534  -0.352  53.663  1.00  0.00     0.117 C 
HETATM   11  H6  UNL     1      29.030  -1.262  54.569  1.00  0.00     0.190 HD
HETATM   12  H8  UNL     1      26.533  -1.505  52.600  1.00  0.00     0.155 HD
ENDROOT
BRANCH   1  13
HETATM   13  N1  UNL     1      26.307   1.856  54.197  1.00  0.00    -0.339 N 
HETATM   14  H4  UNL     1      26.459   2.299  55.159  1.00  0.00     0.167 HD
BRANCH  13  15
HETATM   15  C5  UNL     1      25.628   2.589  53.192  1.00  0.00     0.035 A 
HETATM   16  C4  UNL     1      24.449   3.288  53.317  1.00  0.00     0.029 A 
HETATM   17  C3  UNL     1      23.891   3.959  52.275  1.00  0.00     0.004 A 
HETATM   18  C2  UNL     1      24.441   4.005  51.017  1.00  0.00     0.024 A 
HETATM   19  C1  UNL     1      25.648   3.314  50.817  1.00  0.00     0.036 A 
HETATM   20 CL1  UNL     1      26.519   3.246  49.281  1.00  0.00    -0.084 Cl
HETATM   21  C18 UNL     1      26.186   2.640  51.904  1.00  0.00     0.053 A 
ENDBRANCH  13  15
ENDBRANCH   1  13
BRANCH  10  22
HETATM   22  N7  UNL     1      23.377  -1.113  53.428  1.00  0.00    -0.364 N 
HETATM   23  H10 UNL     1      23.681  -2.072  53.707  1.00  0.00     0.165 HD
BRANCH  22  24
HETATM   24  C11 UNL     1      22.247  -0.368  52.917  1.00  0.00     0.028 C 
HETATM   25  C12 UNL     1      20.980  -0.560  53.337  1.00  0.00     0.006 C 
HETATM   26  C13 UNL     1      19.702   0.075  52.956  1.00  0.00     0.056 C 
HETATM   27  C14 UNL     1      19.472   0.177  51.496  1.00  0.00    -0.023 C 
HETATM   28  C15 UNL     1      20.426   0.635  50.655  1.00  0.00    -0.004 C 
HETATM   29  C16 UNL     1      21.810   1.114  50.872  1.00  0.00     0.002 C 
HETATM   30  C17 UNL     1      22.521   0.620  51.879  1.00  0.00     0.029 C 
ENDBRANCH  22  24
ENDBRANCH  10  22
TORSDOF 4
ENDMDL
MODEL 3
REMARK VINA RESULT:      -9.2      3.156      7.275
REMARK  4 active torsions:
REMARK  status: ('A' for Active; 'I' for Inactive)
REMARK    1  A    between atoms: C5_6  and  N1_7 
REMARK    2  A    between atoms: N1_7  and  C6_8 
REMARK    3  A    between atoms: C10_17  and  N7_18 
REMARK    4  A    between atoms: N7_18  and  C11_19 
ROOT
HETATM    1  C6  UNL     1      26.778   0.607  53.840  1.00  0.00     0.153 C 
HETATM    2  N2  UNL     1      28.011   0.403  53.888  1.00  0.00    -0.221 NA
HETATM    3  C7  UNL     1      28.966   1.382  53.984  1.00  0.00     0.257 C 
HETATM    4  N3  UNL     1      29.736   0.385  53.768  1.00  0.00    -0.167 NA
HETATM    5  N4  UNL     1      29.262  -0.905  53.587  1.00  0.00    -0.270 N 
HETATM    6  C8  UNL     1      28.865  -2.164  53.017  1.00  0.00     0.241 C 
HETATM    7  N5  UNL     1      27.578  -2.552  53.050  1.00  0.00    -0.190 NA
HETATM    8  N6  UNL     1      26.768  -1.612  53.674  1.00  0.00    -0.176 NA
HETATM    9  C9  UNL     1      25.828  -0.548  53.661  1.00  0.00     0.091 C 
HETATM   10  C10 UNL     1      24.541  -0.376  53.530  1.00  0.00     0.117 C 
HETATM   11  H6  UNL     1      29.039  -1.076  54.601  1.00  0.00     0.190 HD
HETATM   12  H8  UNL     1      26.591  -1.571  52.619  1.00  0.00     0.155 HD
ENDROOT
BRANCH   1  13
HETATM   13  N1  UNL     1      26.248   1.919  53.884  1.00  0.00    -0.339 N 
HETATM   14  H4  UNL     1      26.319   2.434  54.819  1.00  0.00     0.167 HD
BRANCH  13  15
HETATM   15  C5  UNL     1      25.631   2.560  52.780  1.00  0.00     0.035 A 
HETATM   16  C4  UNL     1      26.051   2.562  51.470  1.00  0.00     0.029 A 
HETATM   17  C3  UNL     1      25.371   3.216  50.492  1.00  0.00     0.004 A 
HETATM   18  C2  UNL     1      24.217   3.928  50.713  1.00  0.00     0.024 A 
HETATM   19  C1  UNL     1      23.728   3.968  52.030  1.00  0.00     0.036 A 
HETATM   20 CL1  UNL     1      22.264   4.824  52.527  1.00  0.00    -0.084 Cl
HETATM   21  C18 UNL     1      24.451   3.289  53.001  1.00  0.00     0.053 A 
ENDBRANCH  13  15
ENDBRANCH   1  13
BRANCH  10  22
HETATM   22  N7  UNL     1      23.409  -1.187  53.347  1.00  0.00    -0.364 N 
HETATM   23  H10 UNL     1      23.788  -2.143  53.531  1.00  0.00     0.165 HD
BRANCH  22  24
HETATM   24  C11 UNL     1      22.198  -0.478  52.994  1.00  0.00     0.028 C 
HETATM   25  C12 UNL     1      20.997  -0.737  53.549  1.00  0.00     0.006 C 
HETATM   26  C13 UNL     1      19.659  -0.148  53.337  1.00  0.00     0.056 C 
HETATM   27  C14 UNL     1      19.259  -0.015  51.917  1.00  0.00    -0.023 C 
HETATM   28  C15 UNL     1      20.090   0.508  50.989  1.00  0.00    -0.004 C 
HETATM   29  C16 UNL     1      21.469   1.041  51.062  1.00  0.00     0.002 C 
HETATM   30  C17 UNL     1      22.311   0.549  51.964  1.00  0.00     0.029 C 
ENDBRANCH  22  24
ENDBRANCH  10  22
TORSDOF 4
ENDMDL
MODEL 4
REMARK VINA RESULT:      -9.0      2.053      6.279
REMARK  4 active torsions:
REMARK  status: ('A' for Active; 'I' for Inactive)
REMARK    1  A    between atoms: C5_6  and  N1_7 
REMARK    2  A    between atoms: N1_7  and  C6_8 
REMARK    3  A    between atoms: C10_17  and  N7_18 
REMARK    4  A    between atoms: N7_18  and  C11_19 
ROOT
HETATM    1  C6  UNL     1      26.121   0.555  52.689  1.00  0.00     0.153 C 
HETATM    2  N2  UNL     1      27.184  -0.039  52.971  1.00  0.00    -0.221 NA
HETATM    3  C7  UNL     1      27.348  -1.400  52.973  1.00  0.00     0.257 C 
HETATM    4  N3  UNL     1      28.461  -1.075  53.508  1.00  0.00    -0.167 NA
HETATM    5  N4  UNL     1      28.822   0.241  53.750  1.00  0.00    -0.270 N 
HETATM    6  C8  UNL     1      29.113   1.501  54.379  1.00  0.00     0.241 C 
HETATM    7  N5  UNL     1      28.384   2.594  54.090  1.00  0.00    -0.190 NA
HETATM    8  N6  UNL     1      27.388   2.321  53.160  1.00  0.00    -0.176 NA
HETATM    9  C9  UNL     1      26.044   2.055  52.793  1.00  0.00     0.091 C 
HETATM   10  C10 UNL     1      24.935   2.710  52.581  1.00  0.00     0.117 C 
HETATM   11  H6  UNL     1      29.038   0.475  52.747  1.00  0.00     0.190 HD
HETATM   12  H8  UNL     1      26.936   2.437  54.124  1.00  0.00     0.155 HD
ENDROOT
BRANCH   1  13
HETATM   13  N1  UNL     1      24.952  -0.160  52.331  1.00  0.00    -0.339 N 
HETATM   14  H4  UNL     1      24.884  -0.491  51.316  1.00  0.00     0.167 HD
BRANCH  13  15
HETATM   15  C5  UNL     1      23.891  -0.440  53.228  1.00  0.00     0.035 A 
HETATM   16  C4  UNL     1      23.986  -0.888  54.525  1.00  0.00     0.029 A 
HETATM   17  C3  UNL     1      22.890  -1.121  55.293  1.00  0.00     0.004 A 
HETATM   18  C2  UNL     1      21.601  -0.936  54.857  1.00  0.00     0.024 A 
HETATM   19  C1  UNL     1      21.427  -0.477  53.539  1.00  0.00     0.036 A 
HETATM   20 CL1  UNL     1      19.859  -0.173  52.784  1.00  0.00    -0.084 Cl
HETATM   21  C18 UNL     1      22.571  -0.252  52.786  1.00  0.00     0.053 A 
ENDBRANCH  13  15
ENDBRANCH   1  13
BRANCH  10  22
HETATM   22  N7  UNL     1      24.514   4.050  52.596  1.00  0.00    -0.364 N 
HETATM   23  H10 UNL     1      25.396   4.558  52.830  1.00  0.00     0.165 HD
BRANCH  22  24
HETATM   24  C11 UNL     1      23.111   4.255  52.307  1.00  0.00     0.028 C 
HETATM   25  C12 UNL     1      22.174   3.298  52.460  1.00  0.00     0.006 C 
HETATM   26  C13 UNL     1      20.716   3.292  52.226  1.00  0.00     0.056 C 
HETATM   27  C14 UNL     1      20.296   3.852  50.920  1.00  0.00    -0.023 C 
HETATM   28  C15 UNL     1      20.782   5.025  50.459  1.00  0.00    -0.004 C 
HETATM   29  C16 UNL     1      21.749   5.999  51.013  1.00  0.00     0.002 C 
HETATM   30  C17 UNL     1      22.726   5.570  51.805  1.00  0.00     0.029 C 
ENDBRANCH  22  24
ENDBRANCH  10  22
TORSDOF 4
ENDMDL
MODEL 5
REMARK VINA RESULT:      -8.9      1.884      5.205
REMARK  4 active torsions:
REMARK  status: ('A' for Active; 'I' for Inactive)
REMARK    1  A    between atoms: C5_6  and  N1_7 
REMARK    2  A    between atoms: N1_7  and  C6_8 
REMARK    3  A    between atoms: C10_17  and  N7_18 
REMARK    4  A    between atoms: N7_18  and  C11_19 
ROOT
HETATM    1  C6  UNL     1      25.654   3.651  50.286  1.00  0.00     0.153 C 
HETATM    2  N2  UNL     1      26.184   4.615  49.692  1.00  0.00    -0.221 NA
HETATM    3  C7  UNL     1      27.366   4.558  49.001  1.00  0.00     0.257 C 
HETATM    4  N3  UNL     1      27.196   5.824  48.982  1.00  0.00    -0.167 NA
HETATM    5  N4  UNL     1      26.104   6.444  49.568  1.00  0.00    -0.270 N 
HETATM    6  C8  UNL     1      25.247   7.188  50.452  1.00  0.00     0.241 C 
HETATM    7  N5  UNL     1      24.236   6.580  51.095  1.00  0.00    -0.190 NA
HETATM    8  N6  UNL     1      24.166   5.226  50.788  1.00  0.00    -0.176 NA
HETATM    9  C9  UNL     1      24.387   3.854  51.075  1.00  0.00     0.091 C 
HETATM   10  C10 UNL     1      23.840   2.895  51.771  1.00  0.00     0.117 C 
HETATM   11  H6  UNL     1      25.415   6.166  48.824  1.00  0.00     0.190 HD
HETATM   12  H8  UNL     1      24.556   5.334  51.779  1.00  0.00     0.155 HD
ENDROOT
BRANCH   1  13
HETATM   13  N1  UNL     1      26.256   2.369  50.290  1.00  0.00    -0.339 N 
HETATM   14  H4  UNL     1      26.281   1.848  49.356  1.00  0.00     0.167 HD
BRANCH  13  15
HETATM   15  C5  UNL     1      26.801   1.756  51.445  1.00  0.00     0.035 A 
HETATM   16  C4  UNL     1      27.435   2.370  52.501  1.00  0.00     0.029 A 
HETATM   17  C3  UNL     1      27.918   1.671  53.561  1.00  0.00     0.004 A 
HETATM   18  C2  UNL     1      27.823   0.306  53.681  1.00  0.00     0.024 A 
HETATM   19  C1  UNL     1      27.185  -0.388  52.639  1.00  0.00     0.036 A 
HETATM   20 CL1  UNL     1      26.958  -2.140  52.596  1.00  0.00    -0.084 Cl
HETATM   21  C18 UNL     1      26.706   0.360  51.572  1.00  0.00     0.053 A 
ENDBRANCH  13  15
ENDBRANCH   1  13
BRANCH  10  22
HETATM   22  N7  UNL     1      22.714   2.737  52.595  1.00  0.00    -0.364 N 
HETATM   23  H10 UNL     1      22.397   3.722  52.730  1.00  0.00     0.165 HD
BRANCH  22  24
HETATM   24  C11 UNL     1      22.402   1.369  52.950  1.00  0.00     0.028 C 
HETATM   25  C12 UNL     1      21.143   0.908  53.095  1.00  0.00     0.006 C 
HETATM   26  C13 UNL     1      20.609  -0.422  53.448  1.00  0.00     0.056 C 
HETATM   27  C14 UNL     1      21.247  -1.052  54.627  1.00  0.00    -0.023 C 
HETATM   28  C15 UNL     1      22.590  -1.096  54.772  1.00  0.00    -0.004 C 
HETATM   29  C16 UNL     1      23.707  -0.605  53.935  1.00  0.00     0.002 C 
HETATM   30  C17 UNL     1      23.530   0.472  53.178  1.00  0.00     0.029 C 
ENDBRANCH  22  24
ENDBRANCH  10  22
TORSDOF 4
ENDMDL
MODEL 6
REMARK VINA RESULT:      -8.9      2.809      5.908
REMARK  4 active torsions:
REMARK  status: ('A' for Active; 'I' for Inactive)
REMARK    1  A    between atoms: C5_6  and  N1_7 
REMARK    2  A    between atoms: N1_7  and  C6_8 
REMARK    3  A    between atoms: C10_17  and  N7_18 
REMARK    4  A    between atoms: N7_18  and  C11_19 
ROOT
HETATM    1  C6  UNL     1      24.435   1.253  52.285  1.00  0.00     0.153 C 
HETATM    2  N2  UNL     1      23.774   0.512  53.045  1.00  0.00    -0.221 NA
HETATM    3  C7  UNL     1      24.189  -0.709  53.508  1.00  0.00     0.257 C 
HETATM    4  N3  UNL     1      22.979  -0.753  53.916  1.00  0.00    -0.167 NA
HETATM    5  N4  UNL     1      22.077   0.277  53.701  1.00  0.00    -0.270 N 
HETATM    6  C8  UNL     1      20.996   1.086  53.207  1.00  0.00     0.241 C 
HETATM    7  N5  UNL     1      21.245   2.245  52.573  1.00  0.00    -0.190 NA
HETATM    8  N6  UNL     1      22.607   2.505  52.484  1.00  0.00    -0.176 NA
HETATM    9  C9  UNL     1      23.841   2.543  51.785  1.00  0.00     0.091 C 
HETATM   10  C10 UNL     1      24.464   3.310  50.931  1.00  0.00     0.117 C 
HETATM   11  H6  UNL     1      22.481   0.922  54.428  1.00  0.00     0.190 HD
HETATM   12  H8  UNL     1      22.251   2.207  51.519  1.00  0.00     0.155 HD
ENDROOT
BRANCH   1  13
HETATM   13  N1  UNL     1      25.719   0.874  51.823  1.00  0.00    -0.339 N 
HETATM   14  H4  UNL     1      25.762   0.390  50.870  1.00  0.00     0.167 HD
BRANCH  13  15
HETATM   15  C5  UNL     1      26.916   1.090  52.550  1.00  0.00     0.035 A 
HETATM   16  C4  UNL     1      27.399   2.283  53.036  1.00  0.00     0.029 A 
HETATM   17  C3  UNL     1      28.566   2.365  53.725  1.00  0.00     0.004 A 
HETATM   18  C2  UNL     1      29.367   1.283  53.999  1.00  0.00     0.024 A 
HETATM   19  C1  UNL     1      28.935   0.029  53.534  1.00  0.00     0.036 A 
HETATM   20 CL1  UNL     1      29.812  -1.485  53.779  1.00  0.00    -0.084 Cl
HETATM   21  C18 UNL     1      27.738  -0.014  52.833  1.00  0.00     0.053 A 
ENDBRANCH  13  15
ENDBRANCH   1  13
BRANCH  10  22
HETATM   22  N7  UNL     1      24.218   4.526  50.273  1.00  0.00    -0.364 N 
HETATM   23  H10 UNL     1      23.270   4.783  50.627  1.00  0.00     0.165 HD
BRANCH  22  24
HETATM   24  C11 UNL     1      25.279   4.973  49.396  1.00  0.00     0.028 C 
HETATM   25  C12 UNL     1      26.505   4.413  49.367  1.00  0.00     0.006 C 
HETATM   26  C13 UNL     1      27.711   4.708  48.568  1.00  0.00     0.056 C 
HETATM   27  C14 UNL     1      28.086   6.140  48.519  1.00  0.00    -0.023 C 
HETATM   28  C15 UNL     1      27.177   7.106  48.262  1.00  0.00    -0.004 C 
HETATM   29  C16 UNL     1      25.723   7.069  47.988  1.00  0.00     0.002 C 
HETATM   30  C17 UNL     1      24.982   6.105  48.524  1.00  0.00     0.029 C 
ENDBRANCH  22  24
ENDBRANCH  10  22
TORSDOF 4
ENDMDL
MODEL 7
REMARK VINA RESULT:      -8.7      2.200      6.089
REMARK  4 active torsions:
REMARK  status: ('A' for Active; 'I' for Inactive)
REMARK    1  A    between atoms: C5_6  and  N1_7 
REMARK    2  A    between atoms: N1_7  and  C6_8 
REMARK    3  A    between atoms: C10_17  and  N7_18 
REMARK    4  A    between atoms: N7_18  and  C11_19 
ROOT
HETATM    1  C6  UNL     1      26.004   0.594  52.707  1.00  0.00     0.153 C 
HETATM    2  N2  UNL     1      27.072  -0.008  52.955  1.00  0.00    -0.221 NA
HETATM    3  C7  UNL     1      27.238  -1.368  52.901  1.00  0.00     0.257 C 
HETATM    4  N3  UNL     1      28.355  -1.061  53.439  1.00  0.00    -0.167 NA
HETATM    5  N4  UNL     1      28.716   0.245  53.729  1.00  0.00    -0.270 N 
HETATM    6  C8  UNL     1      29.010   1.479  54.406  1.00  0.00     0.241 C 
HETATM    7  N5  UNL     1      28.277   2.580  54.168  1.00  0.00    -0.190 NA
HETATM    8  N6  UNL     1      27.273   2.343  53.237  1.00  0.00    -0.176 NA
HETATM    9  C9  UNL     1      25.925   2.089  52.872  1.00  0.00     0.091 C 
HETATM   10  C10 UNL     1      24.813   2.749  52.696  1.00  0.00     0.117 C 
HETATM   11  H6  UNL     1      28.922   0.519  52.735  1.00  0.00     0.190 HD
HETATM   12  H8  UNL     1      26.829   2.419  54.208  1.00  0.00     0.155 HD
ENDROOT
BRANCH   1  13
HETATM   13  N1  UNL     1      24.834  -0.109  52.331  1.00  0.00    -0.339 N 
HETATM   14  H4  UNL     1      24.758  -0.401  51.305  1.00  0.00     0.167 HD
BRANCH  13  15
HETATM   15  C5  UNL     1      23.781  -0.425  53.225  1.00  0.00     0.035 A 
HETATM   16  C4  UNL     1      23.887  -0.902  54.511  1.00  0.00     0.029 A 
HETATM   17  C3  UNL     1      22.797  -1.168  55.278  1.00  0.00     0.004 A 
HETATM   18  C2  UNL     1      21.504  -0.989  54.851  1.00  0.00     0.024 A 
HETATM   19  C1  UNL     1      21.319  -0.502  53.545  1.00  0.00     0.036 A 
HETATM   20 CL1  UNL     1      19.744  -0.202  52.804  1.00  0.00    -0.084 Cl
HETATM   21  C18 UNL     1      22.456  -0.243  52.793  1.00  0.00     0.053 A 
ENDBRANCH  13  15
ENDBRANCH   1  13
BRANCH  10  22
HETATM   22  N7  UNL     1      24.390   4.086  52.769  1.00  0.00    -0.364 N 
HETATM   23  H10 UNL     1      24.422   4.275  53.796  1.00  0.00     0.165 HD
BRANCH  22  24
HETATM   24  C11 UNL     1      24.076   4.700  51.497  1.00  0.00     0.028 C 
HETATM   25  C12 UNL     1      24.666   4.349  50.337  1.00  0.00     0.006 C 
HETATM   26  C13 UNL     1      24.501   4.836  48.953  1.00  0.00     0.056 C 
HETATM   27  C14 UNL     1      24.520   6.310  48.809  1.00  0.00    -0.023 C 
HETATM   28  C15 UNL     1      23.794   7.114  49.618  1.00  0.00    -0.004 C 
HETATM   29  C16 UNL     1      22.877   6.838  50.747  1.00  0.00     0.002 C 
HETATM   30  C17 UNL     1      23.081   5.767  51.506  1.00  0.00     0.029 C 
ENDBRANCH  22  24
ENDBRANCH  10  22
TORSDOF 4
ENDMDL
MODEL 8
REMARK VINA RESULT:      -8.3      3.002      7.127
REMARK  4 active torsions:
REMARK  status: ('A' for Active; 'I' for Inactive)
REMARK    1  A    between atoms: C5_6  and  N1_7 
REMARK    2  A    between atoms: N1_7  and  C6_8 
REMARK    3  A    between atoms: C10_17  and  N7_18 
REMARK    4  A    between atoms: N7_18  and  C11_19 
ROOT
HETATM    1  C6  UNL     1      25.583   1.354  52.686  1.00  0.00     0.153 C 
HETATM    2  N2  UNL     1      26.761   1.687  52.939  1.00  0.00    -0.221 NA
HETATM    3  C7  UNL     1      27.539   2.488  52.144  1.00  0.00     0.257 C 
HETATM    4  N3  UNL     1      28.437   2.111  52.970  1.00  0.00    -0.167 NA
HETATM    5  N4  UNL     1      28.174   1.252  54.025  1.00  0.00    -0.270 N 
HETATM    6  C8  UNL     1      28.094   0.100  54.883  1.00  0.00     0.241 C 
HETATM    7  N5  UNL     1      26.903  -0.439  55.194  1.00  0.00    -0.190 NA
HETATM    8  N6  UNL     1      25.852   0.248  54.597  1.00  0.00    -0.176 NA
HETATM    9  C9  UNL     1      24.853   0.408  53.602  1.00  0.00     0.091 C 
HETATM   10  C10 UNL     1      23.650  -0.026  53.339  1.00  0.00     0.117 C 
HETATM   11  H6  UNL     1      27.681   1.967  54.620  1.00  0.00     0.190 HD
HETATM   12  H8  UNL     1      25.989  -0.682  54.085  1.00  0.00     0.155 HD
ENDROOT
BRANCH   1  13
HETATM   13  N1  UNL     1      24.930   1.797  51.510  1.00  0.00    -0.339 N 
HETATM   14  H4  UNL     1      24.979   1.149  50.661  1.00  0.00     0.167 HD
BRANCH  13  15
HETATM   15  C5  UNL     1      24.242   3.031  51.405  1.00  0.00     0.035 A 
HETATM   16  C4  UNL     1      23.357   3.578  52.306  1.00  0.00     0.029 A 
HETATM   17  C3  UNL     1      22.757   4.778  52.095  1.00  0.00     0.004 A 
HETATM   18  C2  UNL     1      22.971   5.551  50.980  1.00  0.00     0.024 A 
HETATM   19  C1  UNL     1      23.866   5.056  50.016  1.00  0.00     0.036 A 
HETATM   20 CL1  UNL     1      24.282   5.890  48.515  1.00  0.00    -0.084 Cl
HETATM   21  C18 UNL     1      24.458   3.826  50.267  1.00  0.00     0.053 A 
ENDBRANCH  13  15
ENDBRANCH   1  13
BRANCH  10  22
HETATM   22  N7  UNL     1      22.712  -0.883  53.939  1.00  0.00    -0.364 N 
HETATM   23  H10 UNL     1      23.323  -1.577  54.423  1.00  0.00     0.165 HD
BRANCH  22  24
HETATM   24  C11 UNL     1      21.327  -0.539  53.698  1.00  0.00     0.028 C 
HETATM   25  C12 UNL     1      20.315  -1.425  53.793  1.00  0.00     0.006 C 
HETATM   26  C13 UNL     1      18.858  -1.291  53.592  1.00  0.00     0.056 C 
HETATM   27  C14 UNL     1      18.467  -0.592  52.346  1.00  0.00    -0.023 C 
HETATM   28  C15 UNL     1      19.043   0.571  51.971  1.00  0.00    -0.004 C 
HETATM   29  C16 UNL     1      20.097   1.412  52.581  1.00  0.00     0.002 C 
HETATM   30  C17 UNL     1      21.046   0.840  53.313  1.00  0.00     0.029 C 
ENDBRANCH  22  24
ENDBRANCH  10  22
TORSDOF 4
ENDMDL
MODEL 9
REMARK VINA RESULT:      -8.1      2.753      6.067
REMARK  4 active torsions:
REMARK  status: ('A' for Active; 'I' for Inactive)
REMARK    1  A    between atoms: C5_6  and  N1_7 
REMARK    2  A    between atoms: N1_7  and  C6_8 
REMARK    3  A    between atoms: C10_17  and  N7_18 
REMARK    4  A    between atoms: N7_18  and  C11_19 
ROOT
HETATM    1  C6  UNL     1      24.955   1.176  52.844  1.00  0.00     0.153 C 
HETATM    2  N2  UNL     1      25.257   0.181  53.538  1.00  0.00    -0.221 NA
HETATM    3  C7  UNL     1      24.398  -0.484  54.374  1.00  0.00     0.257 C 
HETATM    4  N3  UNL     1      25.484  -1.058  54.723  1.00  0.00    -0.167 NA
HETATM    5  N4  UNL     1      26.713  -0.745  54.163  1.00  0.00    -0.270 N 
HETATM    6  C8  UNL     1      28.039  -0.238  53.937  1.00  0.00     0.241 C 
HETATM    7  N5  UNL     1      28.268   0.673  52.974  1.00  0.00    -0.190 NA
HETATM    8  N6  UNL     1      27.104   1.010  52.294  1.00  0.00    -0.176 NA
HETATM    9  C9  UNL     1      26.007   1.868  52.018  1.00  0.00     0.091 C 
HETATM   10  C10 UNL     1      25.755   2.953  51.338  1.00  0.00     0.117 C 
HETATM   11  H6  UNL     1      26.540  -1.241  53.251  1.00  0.00     0.190 HD
HETATM   12  H8  UNL     1      27.372   1.822  52.939  1.00  0.00     0.155 HD
ENDROOT
BRANCH   1  13
HETATM   13  N1  UNL     1      23.647   1.717  52.864  1.00  0.00    -0.339 N 
HETATM   14  H4  UNL     1      23.439   2.442  53.623  1.00  0.00     0.167 HD
BRANCH  13  15
HETATM   15  C5  UNL     1      22.623   1.344  51.959  1.00  0.00     0.035 A 
HETATM   16  C4  UNL     1      22.627   1.473  50.589  1.00  0.00     0.029 A 
HETATM   17  C3  UNL     1      21.580   1.074  49.820  1.00  0.00     0.004 A 
HETATM   18  C2  UNL     1      20.433   0.514  50.327  1.00  0.00     0.024 A 
HETATM   19  C1  UNL     1      20.359   0.350  51.721  1.00  0.00     0.036 A 
HETATM   20 CL1  UNL     1      18.978  -0.347  52.575  1.00  0.00    -0.084 Cl
HETATM   21  C18 UNL     1      21.448   0.770  52.473  1.00  0.00     0.053 A 
ENDBRANCH  13  15
ENDBRANCH   1  13
BRANCH  10  22
HETATM   22  N7  UNL     1      26.465   3.829  50.501  1.00  0.00    -0.364 N 
HETATM   23  H10 UNL     1      27.402   3.373  50.444  1.00  0.00     0.165 HD
BRANCH  22  24
HETATM   24  C11 UNL     1      25.715   4.977  50.038  1.00  0.00     0.028 C 
HETATM   25  C12 UNL     1      26.159   5.820  49.084  1.00  0.00     0.006 C 
HETATM   26  C13 UNL     1      25.569   7.029  48.476  1.00  0.00     0.056 C 
HETATM   27  C14 UNL     1      25.029   8.009  49.447  1.00  0.00    -0.023 C 
HETATM   28  C15 UNL     1      24.231   7.631  50.470  1.00  0.00    -0.004 C 
HETATM   29  C16 UNL     1      23.708   6.316  50.904  1.00  0.00     0.002 C 
HETATM   30  C17 UNL     1      24.424   5.221  50.673  1.00  0.00     0.029 C 
ENDBRANCH  22  24
ENDBRANCH  10  22
TORSDOF 4
ENDMDL
