MODEL 1
REMARK VINA RESULT:      -7.5      0.000      0.000
REMARK  9 active torsions:
REMARK  status: ('A' for Active; 'I' for Inactive)
REMARK    1  A    between atoms: C2_2  and  C3_3 
REMARK    2  A    between atoms: C3_3  and  O1_4 
REMARK    3  A    between atoms: C3_3  and  C4_5 
REMARK    4  A    between atoms: C4_5  and  C16_22 
REMARK    5  A    between atoms: C5_6  and  C6_7 
REMARK    6  A    between atoms: C8_9  and  N1_10 
REMARK    7  A    between atoms: N1_10  and  C9_11 
REMARK    8  A    between atoms: C13_16  and  C14_17 
REMARK    9  A    between atoms: C14_17  and  O3_19 
ROOT
HETATM    1  C6  UNL     1      24.702  -0.412  54.253  1.00  0.00     0.059 A 
HETATM    2  C7  UNL     1      23.998   0.039  53.183  1.00  0.00     0.062 A 
HETATM    3  C8  UNL     1      22.631  -0.238  53.076  1.00  0.00     0.053 A 
HETATM    4  C13 UNL     1      22.139  -0.973  54.128  1.00  0.00     0.082 A 
HETATM    5  C15 UNL     1      22.835  -1.438  55.221  1.00  0.00     0.137 A 
HETATM    6  N2  UNL     1      24.139  -1.128  55.243  1.00  0.00    -0.260 NA
ENDROOT
BRANCH   1   7
HETATM    7  C5  UNL     1      26.125  -0.121  54.307  1.00  0.00     0.037 C 
HETATM    8  C4  UNL     1      26.989   0.260  53.358  1.00  0.00    -0.046 C 
BRANCH   8   9
HETATM    9  C3  UNL     1      28.399   0.485  53.719  1.00  0.00     0.169 C 
BRANCH   9  10
HETATM   10  C2  UNL     1      29.131  -0.822  53.786  1.00  0.00    -0.001 C 
HETATM   11  C1  UNL     1      29.057  -2.011  53.197  1.00  0.00     0.010 C 
ENDBRANCH   9  10
BRANCH   9  12
HETATM   12  O1  UNL     1      28.586   1.132  54.930  1.00  0.00    -0.387 OA
HETATM   13  H5  UNL     1      28.815   0.392  55.578  1.00  0.00     0.210 HD
ENDBRANCH   9  12
ENDBRANCH   8   9
BRANCH   8  14
HETATM   14  C16 UNL     1      26.880   0.516  51.921  1.00  0.00     0.033 C 
HETATM   15  C17 UNL     1      26.730   1.974  51.551  1.00  0.00     0.010 C 
ENDBRANCH   8  14
ENDBRANCH   1   7
BRANCH   3  16
HETATM   16  N1  UNL     1      21.930   0.240  51.949  1.00  0.00    -0.355 N 
HETATM   17  H8  UNL     1      20.922  -0.084  51.843  1.00  0.00     0.166 HD
BRANCH  16  18
HETATM   18  C9  UNL     1      22.207   1.066  50.859  1.00  0.00     0.035 A 
HETATM   19  C10 UNL     1      21.475   0.853  49.755  1.00  0.00     0.053 A 
HETATM   20  C11 UNL     1      22.154   1.909  49.042  1.00  0.00     0.038 A 
HETATM   21 CL1  UNL     1      22.412   2.882  47.618  1.00  0.00    -0.084 Cl
HETATM   22  C12 UNL     1      22.892   2.130  50.143  1.00  0.00     0.053 A 
ENDBRANCH  16  18
ENDBRANCH   3  16
BRANCH   4  23
HETATM   23  C14 UNL     1      20.739  -1.282  54.111  1.00  0.00     0.179 C 
HETATM   24  O2  UNL     1      19.868  -0.411  53.768  1.00  0.00    -0.646 OA
BRANCH  23  25
HETATM   25  O3  UNL     1      19.534  -1.891  54.206  1.00  0.00    -0.773 OA
HETATM   26  H11 UNL     1      19.394  -2.890  53.979  1.00  0.00     0.167 HD
ENDBRANCH  23  25
ENDBRANCH   4  23
TORSDOF 9
ENDMDL
MODEL 2
REMARK VINA RESULT:      -7.5      3.396      5.756
REMARK  9 active torsions:
REMARK  status: ('A' for Active; 'I' for Inactive)
REMARK    1  A    between atoms: C2_2  and  C3_3 
REMARK    2  A    between atoms: C3_3  and  O1_4 
REMARK    3  A    between atoms: C3_3  and  C4_5 
REMARK    4  A    between atoms: C4_5  and  C16_22 
REMARK    5  A    between atoms: C5_6  and  C6_7 
REMARK    6  A    between atoms: C8_9  and  N1_10 
REMARK    7  A    between atoms: N1_10  and  C9_11 
REMARK    8  A    between atoms: C13_16  and  C14_17 
REMARK    9  A    between atoms: C14_17  and  O3_19 
ROOT
HETATM    1  C6  UNL     1      23.472   1.418  51.725  1.00  0.00     0.059 A 
HETATM    2  C7  UNL     1      24.517   1.002  52.485  1.00  0.00     0.062 A 
HETATM    3  C8  UNL     1      24.301   0.124  53.553  1.00  0.00     0.053 A 
HETATM    4  C13 UNL     1      22.983  -0.232  53.709  1.00  0.00     0.082 A 
HETATM    5  C15 UNL     1      21.911   0.178  52.949  1.00  0.00     0.137 A 
HETATM    6  N2  UNL     1      22.207   1.018  51.947  1.00  0.00    -0.260 NA
ENDROOT
BRANCH   1   7
HETATM    7  C5  UNL     1      23.743   2.350  50.643  1.00  0.00     0.037 C 
HETATM    8  C4  UNL     1      23.843   3.685  50.627  1.00  0.00    -0.046 C 
BRANCH   8   9
HETATM    9  C3  UNL     1      24.132   4.369  49.355  1.00  0.00     0.169 C 
BRANCH   9  10
HETATM   10  C2  UNL     1      25.581   4.752  49.291  1.00  0.00    -0.001 C 
HETATM   11  C1  UNL     1      26.753   4.127  49.265  1.00  0.00     0.010 C 
ENDBRANCH   9  10
BRANCH   9  12
HETATM   12  O1  UNL     1      23.386   5.516  49.138  1.00  0.00    -0.387 OA
HETATM   13  H5  UNL     1      23.985   6.103  48.576  1.00  0.00     0.210 HD
ENDBRANCH   9  12
ENDBRANCH   8   9
BRANCH   8  14
HETATM   14  C16 UNL     1      23.709   4.731  51.642  1.00  0.00     0.033 C 
HETATM   15  C17 UNL     1      22.387   4.731  52.375  1.00  0.00     0.010 C 
ENDBRANCH   8  14
ENDBRANCH   1   7
BRANCH   3  16
HETATM   16  N1  UNL     1      25.407  -0.285  54.327  1.00  0.00    -0.355 N 
HETATM   17  H8  UNL     1      25.190  -0.798  55.233  1.00  0.00     0.166 HD
BRANCH  16  18
HETATM   18  C9  UNL     1      26.797  -0.192  54.238  1.00  0.00     0.035 A 
HETATM   19  C10 UNL     1      27.372  -0.871  53.235  1.00  0.00     0.053 A 
HETATM   20  C11 UNL     1      28.690  -0.428  53.626  1.00  0.00     0.038 A 
HETATM   21 CL1  UNL     1      30.420  -0.383  53.416  1.00  0.00    -0.084 Cl
HETATM   22  C12 UNL     1      28.123   0.255  54.634  1.00  0.00     0.053 A 
ENDBRANCH  16  18
ENDBRANCH   3  16
BRANCH   4  23
HETATM   23  C14 UNL     1      22.674  -1.150  54.766  1.00  0.00     0.179 C 
HETATM   24  O2  UNL     1      21.470  -1.500  55.014  1.00  0.00    -0.646 OA
BRANCH  23  25
HETATM   25  O3  UNL     1      22.735  -2.012  55.808  1.00  0.00    -0.773 OA
HETATM   26  H11 UNL     1      21.977  -2.097  56.506  1.00  0.00     0.167 HD
ENDBRANCH  23  25
ENDBRANCH   4  23
TORSDOF 9
ENDMDL
MODEL 3
REMARK VINA RESULT:      -7.3      3.324      5.794
REMARK  9 active torsions:
REMARK  status: ('A' for Active; 'I' for Inactive)
REMARK    1  A    between atoms: C2_2  and  C3_3 
REMARK    2  A    between atoms: C3_3  and  O1_4 
REMARK    3  A    between atoms: C3_3  and  C4_5 
REMARK    4  A    between atoms: C4_5  and  C16_22 
REMARK    5  A    between atoms: C5_6  and  C6_7 
REMARK    6  A    between atoms: C8_9  and  N1_10 
REMARK    7  A    between atoms: N1_10  and  C9_11 
REMARK    8  A    between atoms: C13_16  and  C14_17 
REMARK    9  A    between atoms: C14_17  and  O3_19 
ROOT
HETATM    1  C6  UNL     1      22.998   2.162  51.991  1.00  0.00     0.059 A 
HETATM    2  C7  UNL     1      23.968   1.323  52.435  1.00  0.00     0.062 A 
HETATM    3  C8  UNL     1      23.642   0.267  53.293  1.00  0.00     0.053 A 
HETATM    4  C13 UNL     1      22.304   0.204  53.598  1.00  0.00     0.082 A 
HETATM    5  C15 UNL     1      21.306   1.044  53.158  1.00  0.00     0.137 A 
HETATM    6  N2  UNL     1      21.706   2.028  52.340  1.00  0.00    -0.260 NA
ENDROOT
BRANCH   1   7
HETATM    7  C5  UNL     1      23.389   3.260  51.122  1.00  0.00     0.037 C 
HETATM    8  C4  UNL     1      23.381   3.382  49.789  1.00  0.00    -0.046 C 
BRANCH   8   9
HETATM    9  C3  UNL     1      23.844   4.640  49.180  1.00  0.00     0.169 C 
BRANCH   9  10
HETATM   10  C2  UNL     1      25.340   4.729  49.249  1.00  0.00    -0.001 C 
HETATM   11  C1  UNL     1      26.282   5.592  48.885  1.00  0.00     0.010 C 
ENDBRANCH   9  10
BRANCH   9  12
HETATM   12  O1  UNL     1      23.328   5.785  49.765  1.00  0.00    -0.387 OA
HETATM   13  H5  UNL     1      24.118   6.412  49.830  1.00  0.00     0.210 HD
ENDBRANCH   9  12
ENDBRANCH   8   9
BRANCH   8  14
HETATM   14  C16 UNL     1      23.013   2.494  48.684  1.00  0.00     0.033 C 
HETATM   15  C17 UNL     1      22.156   3.138  47.619  1.00  0.00     0.010 C 
ENDBRANCH   8  14
ENDBRANCH   1   7
BRANCH   3  16
HETATM   16  N1  UNL     1      24.674  -0.584  53.740  1.00  0.00    -0.355 N 
HETATM   17  H8  UNL     1      24.376  -1.516  54.158  1.00  0.00     0.166 HD
BRANCH  16  18
HETATM   18  C9  UNL     1      26.068  -0.542  53.801  1.00  0.00     0.035 A 
HETATM   19  C10 UNL     1      26.723  -1.210  52.840  1.00  0.00     0.053 A 
HETATM   20  C11 UNL     1      28.006  -0.831  53.384  1.00  0.00     0.038 A 
HETATM   21 CL1  UNL     1      29.750  -0.846  53.360  1.00  0.00    -0.084 Cl
HETATM   22  C12 UNL     1      27.359  -0.160  54.351  1.00  0.00     0.053 A 
ENDBRANCH  16  18
ENDBRANCH   3  16
BRANCH   4  23
HETATM   23  C14 UNL     1      21.877  -0.865  54.453  1.00  0.00     0.179 C 
HETATM   24  O2  UNL     1      22.562  -1.215  55.475  1.00  0.00    -0.646 OA
BRANCH  23  25
HETATM   25  O3  UNL     1      21.204  -1.887  55.031  1.00  0.00    -0.773 OA
HETATM   26  H11 UNL     1      21.127  -1.994  56.056  1.00  0.00     0.167 HD
ENDBRANCH  23  25
ENDBRANCH   4  23
TORSDOF 9
ENDMDL
MODEL 4
REMARK VINA RESULT:      -7.1      3.258      7.375
REMARK  9 active torsions:
REMARK  status: ('A' for Active; 'I' for Inactive)
REMARK    1  A    between atoms: C2_2  and  C3_3 
REMARK    2  A    between atoms: C3_3  and  O1_4 
REMARK    3  A    between atoms: C3_3  and  C4_5 
REMARK    4  A    between atoms: C4_5  and  C16_22 
REMARK    5  A    between atoms: C5_6  and  C6_7 
REMARK    6  A    between atoms: C8_9  and  N1_10 
REMARK    7  A    between atoms: N1_10  and  C9_11 
REMARK    8  A    between atoms: C13_16  and  C14_17 
REMARK    9  A    between atoms: C14_17  and  O3_19 
ROOT
HETATM    1  C6  UNL     1      22.343   1.192  51.523  1.00  0.00     0.059 A 
HETATM    2  C7  UNL     1      23.389   1.034  52.374  1.00  0.00     0.062 A 
HETATM    3  C8  UNL     1      24.588   1.717  52.145  1.00  0.00     0.053 A 
HETATM    4  C13 UNL     1      24.559   2.510  51.023  1.00  0.00     0.082 A 
HETATM    5  C15 UNL     1      23.510   2.684  50.149  1.00  0.00     0.137 A 
HETATM    6  N2  UNL     1      22.400   1.992  50.443  1.00  0.00    -0.260 NA
ENDROOT
BRANCH   1   7
HETATM    7  C5  UNL     1      21.127   0.442  51.788  1.00  0.00     0.037 C 
HETATM    8  C4  UNL     1      20.588   0.001  52.931  1.00  0.00    -0.046 C 
BRANCH   8   9
HETATM    9  C3  UNL     1      19.320  -0.746  52.887  1.00  0.00     0.169 C 
BRANCH   9  10
HETATM   10  C2  UNL     1      18.443  -0.213  51.792  1.00  0.00    -0.001 C 
HETATM   11  C1  UNL     1      17.245  -0.481  51.287  1.00  0.00     0.010 C 
ENDBRANCH   9  10
BRANCH   9  12
HETATM   12  O1  UNL     1      18.589  -0.708  54.064  1.00  0.00    -0.387 OA
HETATM   13  H5  UNL     1      18.945   0.100  54.555  1.00  0.00     0.210 HD
ENDBRANCH   9  12
ENDBRANCH   8   9
BRANCH   8  14
HETATM   14  C16 UNL     1      20.985   0.065  54.339  1.00  0.00     0.033 C 
HETATM   15  C17 UNL     1      21.830  -1.098  54.807  1.00  0.00     0.010 C 
ENDBRANCH   8  14
ENDBRANCH   1   7
BRANCH   3  16
HETATM   16  N1  UNL     1      25.658   1.527  53.045  1.00  0.00    -0.355 N 
HETATM   17  H8  UNL     1      25.796   2.278  53.786  1.00  0.00     0.166 HD
BRANCH  16  18
HETATM   18  C9  UNL     1      26.657   0.573  53.246  1.00  0.00     0.035 A 
HETATM   19  C10 UNL     1      26.750  -0.390  52.317  1.00  0.00     0.053 A 
HETATM   20  C11 UNL     1      27.855  -1.014  53.005  1.00  0.00     0.038 A 
HETATM   21 CL1  UNL     1      29.068  -2.259  53.152  1.00  0.00    -0.084 Cl
HETATM   22  C12 UNL     1      27.770  -0.054  53.941  1.00  0.00     0.053 A 
ENDBRANCH  16  18
ENDBRANCH   3  16
BRANCH   4  23
HETATM   23  C14 UNL     1      25.741   3.267  50.727  1.00  0.00     0.179 C 
HETATM   24  O2  UNL     1      26.869   2.694  50.538  1.00  0.00    -0.646 OA
BRANCH  23  25
HETATM   25  O3  UNL     1      26.631   4.254  50.473  1.00  0.00    -0.773 OA
HETATM   26  H11 UNL     1      26.401   5.076  49.890  1.00  0.00     0.167 HD
ENDBRANCH  23  25
ENDBRANCH   4  23
TORSDOF 9
ENDMDL
MODEL 5
REMARK VINA RESULT:      -7.0      4.472      6.656
REMARK  9 active torsions:
REMARK  status: ('A' for Active; 'I' for Inactive)
REMARK    1  A    between atoms: C2_2  and  C3_3 
REMARK    2  A    between atoms: C3_3  and  O1_4 
REMARK    3  A    between atoms: C3_3  and  C4_5 
REMARK    4  A    between atoms: C4_5  and  C16_22 
REMARK    5  A    between atoms: C5_6  and  C6_7 
REMARK    6  A    between atoms: C8_9  and  N1_10 
REMARK    7  A    between atoms: N1_10  and  C9_11 
REMARK    8  A    between atoms: C13_16  and  C14_17 
REMARK    9  A    between atoms: C14_17  and  O3_19 
ROOT
HETATM    1  C6  UNL     1      25.700   3.659  49.784  1.00  0.00     0.059 A 
HETATM    2  C7  UNL     1      26.062   2.825  50.793  1.00  0.00     0.062 A 
HETATM    3  C8  UNL     1      25.110   1.991  51.389  1.00  0.00     0.053 A 
HETATM    4  C13 UNL     1      23.853   2.126  50.850  1.00  0.00     0.082 A 
HETATM    5  C15 UNL     1      23.467   2.964  49.828  1.00  0.00     0.137 A 
HETATM    6  N2  UNL     1      24.442   3.727  49.315  1.00  0.00    -0.260 NA
ENDROOT
BRANCH   1   7
HETATM    7  C5  UNL     1      26.719   4.524  49.214  1.00  0.00     0.037 C 
HETATM    8  C4  UNL     1      26.727   5.840  48.965  1.00  0.00    -0.046 C 
BRANCH   8   9
HETATM    9  C3  UNL     1      27.928   6.450  48.370  1.00  0.00     0.169 C 
BRANCH   9  10
HETATM   10  C2  UNL     1      28.993   5.412  48.172  1.00  0.00    -0.001 C 
HETATM   11  C1  UNL     1      30.291   5.390  47.891  1.00  0.00     0.010 C 
ENDBRANCH   9  10
BRANCH   9  12
HETATM   12  O1  UNL     1      28.479   7.479  49.117  1.00  0.00    -0.387 OA
HETATM   13  H5  UNL     1      29.429   7.553  48.781  1.00  0.00     0.210 HD
ENDBRANCH   9  12
ENDBRANCH   8   9
BRANCH   8  14
HETATM   14  C16 UNL     1      25.751   6.917  49.132  1.00  0.00     0.033 C 
HETATM   15  C17 UNL     1      25.055   7.340  47.859  1.00  0.00     0.010 C 
ENDBRANCH   8  14
ENDBRANCH   1   7
BRANCH   3  16
HETATM   16  N1  UNL     1      25.517   1.140  52.438  1.00  0.00    -0.355 N 
HETATM   17  H8  UNL     1      24.776   0.881  53.155  1.00  0.00     0.166 HD
BRANCH  16  18
HETATM   18  C9  UNL     1      26.698   0.508  52.829  1.00  0.00     0.035 A 
HETATM   19  C10 UNL     1      26.820  -0.783  52.485  1.00  0.00     0.053 A 
HETATM   20  C11 UNL     1      28.121  -0.875  53.105  1.00  0.00     0.038 A 
HETATM   21 CL1  UNL     1      29.555  -1.766  53.540  1.00  0.00    -0.084 Cl
HETATM   22  C12 UNL     1      28.008   0.417  53.454  1.00  0.00     0.053 A 
ENDBRANCH  16  18
ENDBRANCH   3  16
BRANCH   4  23
HETATM   23  C14 UNL     1      22.818   1.290  51.386  1.00  0.00     0.179 C 
HETATM   24  O2  UNL     1      22.577   1.251  52.641  1.00  0.00    -0.646 OA
BRANCH  23  25
HETATM   25  O3  UNL     1      21.799   0.414  51.550  1.00  0.00    -0.773 OA
HETATM   26  H11 UNL     1      21.544   0.022  52.472  1.00  0.00     0.167 HD
ENDBRANCH  23  25
ENDBRANCH   4  23
TORSDOF 9
ENDMDL
MODEL 6
REMARK VINA RESULT:      -6.9      3.929      6.088
REMARK  9 active torsions:
REMARK  status: ('A' for Active; 'I' for Inactive)
REMARK    1  A    between atoms: C2_2  and  C3_3 
REMARK    2  A    between atoms: C3_3  and  O1_4 
REMARK    3  A    between atoms: C3_3  and  C4_5 
REMARK    4  A    between atoms: C4_5  and  C16_22 
REMARK    5  A    between atoms: C5_6  and  C6_7 
REMARK    6  A    between atoms: C8_9  and  N1_10 
REMARK    7  A    between atoms: N1_10  and  C9_11 
REMARK    8  A    between atoms: C13_16  and  C14_17 
REMARK    9  A    between atoms: C14_17  and  O3_19 
ROOT
HETATM    1  C6  UNL     1      25.571   2.782  51.332  1.00  0.00     0.059 A 
HETATM    2  C7  UNL     1      24.573   2.154  52.006  1.00  0.00     0.062 A 
HETATM    3  C8  UNL     1      24.813   0.921  52.621  1.00  0.00     0.053 A 
HETATM    4  C13 UNL     1      26.102   0.471  52.461  1.00  0.00     0.082 A 
HETATM    5  C15 UNL     1      27.126   1.094  51.784  1.00  0.00     0.137 A 
HETATM    6  N2  UNL     1      26.810   2.270  51.224  1.00  0.00    -0.260 NA
ENDROOT
BRANCH   1   7
HETATM    7  C5  UNL     1      25.267   4.049  50.687  1.00  0.00     0.037 C 
HETATM    8  C4  UNL     1      25.903   4.729  49.725  1.00  0.00    -0.046 C 
BRANCH   8   9
HETATM    9  C3  UNL     1      25.346   6.012  49.263  1.00  0.00     0.169 C 
BRANCH   9  10
HETATM   10  C2  UNL     1      24.947   6.856  50.438  1.00  0.00    -0.001 C 
HETATM   11  C1  UNL     1      23.900   7.589  50.800  1.00  0.00     0.010 C 
ENDBRANCH   9  10
BRANCH   9  12
HETATM   12  O1  UNL     1      24.238   5.893  48.439  1.00  0.00    -0.387 OA
HETATM   13  H5  UNL     1      23.868   6.830  48.377  1.00  0.00     0.210 HD
ENDBRANCH   9  12
ENDBRANCH   8   9
BRANCH   8  14
HETATM   14  C16 UNL     1      27.132   4.510  48.961  1.00  0.00     0.033 C 
HETATM   15  C17 UNL     1      27.755   5.766  48.396  1.00  0.00     0.010 C 
ENDBRANCH   8  14
ENDBRANCH   1   7
BRANCH   3  16
HETATM   16  N1  UNL     1      23.755   0.291  53.309  1.00  0.00    -0.355 N 
HETATM   17  H8  UNL     1      23.997  -0.171  54.236  1.00  0.00     0.166 HD
BRANCH  16  18
HETATM   18  C9  UNL     1      22.391   0.081  53.097  1.00  0.00     0.035 A 
HETATM   19  C10 UNL     1      21.740  -0.592  54.057  1.00  0.00     0.053 A 
HETATM   20  C11 UNL     1      20.490  -0.502  53.340  1.00  0.00     0.038 A 
HETATM   21 CL1  UNL     1      18.782  -0.821  53.182  1.00  0.00    -0.084 Cl
HETATM   22  C12 UNL     1      21.133   0.173  52.372  1.00  0.00     0.053 A 
ENDBRANCH  16  18
ENDBRANCH   3  16
BRANCH   4  23
HETATM   23  C14 UNL     1      26.442  -0.776  53.082  1.00  0.00     0.179 C 
HETATM   24  O2  UNL     1      26.100  -1.036  54.286  1.00  0.00    -0.646 OA
BRANCH  23  25
HETATM   25  O3  UNL     1      26.914  -2.015  53.353  1.00  0.00    -0.773 OA
HETATM   26  H11 UNL     1      26.294  -2.808  53.589  1.00  0.00     0.167 HD
ENDBRANCH  23  25
ENDBRANCH   4  23
TORSDOF 9
ENDMDL
MODEL 7
REMARK VINA RESULT:      -6.9      3.350      4.805
REMARK  9 active torsions:
REMARK  status: ('A' for Active; 'I' for Inactive)
REMARK    1  A    between atoms: C2_2  and  C3_3 
REMARK    2  A    between atoms: C3_3  and  O1_4 
REMARK    3  A    between atoms: C3_3  and  C4_5 
REMARK    4  A    between atoms: C4_5  and  C16_22 
REMARK    5  A    between atoms: C5_6  and  C6_7 
REMARK    6  A    between atoms: C8_9  and  N1_10 
REMARK    7  A    between atoms: N1_10  and  C9_11 
REMARK    8  A    between atoms: C13_16  and  C14_17 
REMARK    9  A    between atoms: C14_17  and  O3_19 
ROOT
HETATM    1  C6  UNL     1      26.371   2.492  51.524  1.00  0.00     0.059 A 
HETATM    2  C7  UNL     1      25.076   2.208  51.816  1.00  0.00     0.062 A 
HETATM    3  C8  UNL     1      24.057   2.619  50.951  1.00  0.00     0.053 A 
HETATM    4  C13 UNL     1      24.516   3.298  49.849  1.00  0.00     0.082 A 
HETATM    5  C15 UNL     1      25.823   3.595  49.535  1.00  0.00     0.137 A 
HETATM    6  N2  UNL     1      26.736   3.164  50.418  1.00  0.00    -0.260 NA
ENDROOT
BRANCH   1   7
HETATM    7  C5  UNL     1      27.394   2.067  52.466  1.00  0.00     0.037 C 
HETATM    8  C4  UNL     1      27.753   0.850  52.894  1.00  0.00    -0.046 C 
BRANCH   8   9
HETATM    9  C3  UNL     1      28.849   0.728  53.871  1.00  0.00     0.169 C 
BRANCH   9  10
HETATM   10  C2  UNL     1      29.773  -0.385  53.475  1.00  0.00    -0.001 C 
HETATM   11  C1  UNL     1      30.266  -1.486  54.031  1.00  0.00     0.010 C 
ENDBRANCH   9  10
BRANCH   9  12
HETATM   12  O1  UNL     1      28.435   0.486  55.171  1.00  0.00    -0.387 OA
HETATM   13  H5  UNL     1      28.037  -0.442  55.140  1.00  0.00     0.210 HD
ENDBRANCH   9  12
ENDBRANCH   8   9
BRANCH   8  14
HETATM   14  C16 UNL     1      27.278  -0.508  52.628  1.00  0.00     0.033 C 
HETATM   15  C17 UNL     1      25.976  -0.865  53.308  1.00  0.00     0.010 C 
ENDBRANCH   8  14
ENDBRANCH   1   7
BRANCH   3  16
HETATM   16  N1  UNL     1      22.721   2.313  51.286  1.00  0.00    -0.355 N 
HETATM   17  H8  UNL     1      21.965   2.868  50.784  1.00  0.00     0.166 HD
BRANCH  16  18
HETATM   18  C9  UNL     1      22.069   1.435  52.154  1.00  0.00     0.035 A 
HETATM   19  C10 UNL     1      21.812   0.210  51.672  1.00  0.00     0.053 A 
HETATM   20  C11 UNL     1      21.189  -0.198  52.909  1.00  0.00     0.038 A 
HETATM   21 CL1  UNL     1      20.380  -1.379  53.905  1.00  0.00    -0.084 Cl
HETATM   22  C12 UNL     1      21.442   1.026  53.400  1.00  0.00     0.053 A 
ENDBRANCH  16  18
ENDBRANCH   3  16
BRANCH   4  23
HETATM   23  C14 UNL     1      23.539   3.736  48.895  1.00  0.00     0.179 C 
HETATM   24  O2  UNL     1      22.673   2.929  48.410  1.00  0.00    -0.646 OA
BRANCH  23  25
HETATM   25  O3  UNL     1      22.781   4.460  48.039  1.00  0.00    -0.773 OA
HETATM   26  H11 UNL     1      21.803   4.212  47.813  1.00  0.00     0.167 HD
ENDBRANCH  23  25
ENDBRANCH   4  23
TORSDOF 9
ENDMDL
MODEL 8
REMARK VINA RESULT:      -6.8      3.363      4.599
REMARK  9 active torsions:
REMARK  status: ('A' for Active; 'I' for Inactive)
REMARK    1  A    between atoms: C2_2  and  C3_3 
REMARK    2  A    between atoms: C3_3  and  O1_4 
REMARK    3  A    between atoms: C3_3  and  C4_5 
REMARK    4  A    between atoms: C4_5  and  C16_22 
REMARK    5  A    between atoms: C5_6  and  C6_7 
REMARK    6  A    between atoms: C8_9  and  N1_10 
REMARK    7  A    between atoms: N1_10  and  C9_11 
REMARK    8  A    between atoms: C13_16  and  C14_17 
REMARK    9  A    between atoms: C14_17  and  O3_19 
ROOT
HETATM    1  C6  UNL     1      23.661   2.007  52.309  1.00  0.00     0.059 A 
HETATM    2  C7  UNL     1      22.304   1.985  52.248  1.00  0.00     0.062 A 
HETATM    3  C8  UNL     1      21.590   0.982  52.911  1.00  0.00     0.053 A 
HETATM    4  C13 UNL     1      22.393   0.092  53.582  1.00  0.00     0.082 A 
HETATM    5  C15 UNL     1      23.768   0.098  53.656  1.00  0.00     0.137 A 
HETATM    6  N2  UNL     1      24.372   1.093  52.992  1.00  0.00    -0.260 NA
ENDROOT
BRANCH   1   7
HETATM    7  C5  UNL     1      24.361   3.054  51.583  1.00  0.00     0.037 C 
HETATM    8  C4  UNL     1      24.304   3.433  50.300  1.00  0.00    -0.046 C 
BRANCH   8   9
HETATM    9  C3  UNL     1      25.148   4.551  49.844  1.00  0.00     0.169 C 
BRANCH   9  10
HETATM   10  C2  UNL     1      26.463   4.035  49.340  1.00  0.00    -0.001 C 
HETATM   11  C1  UNL     1      27.555   4.538  48.777  1.00  0.00     0.010 C 
ENDBRANCH   9  10
BRANCH   9  12
HETATM   12  O1  UNL     1      25.415   5.502  50.815  1.00  0.00    -0.387 OA
HETATM   13  H5  UNL     1      24.512   5.716  51.214  1.00  0.00     0.210 HD
ENDBRANCH   9  12
ENDBRANCH   8   9
BRANCH   8  14
HETATM   14  C16 UNL     1      23.563   2.965  49.128  1.00  0.00     0.033 C 
HETATM   15  C17 UNL     1      22.387   3.831  48.740  1.00  0.00     0.010 C 
ENDBRANCH   8  14
ENDBRANCH   1   7
BRANCH   3  16
HETATM   16  N1  UNL     1      20.182   0.984  52.824  1.00  0.00    -0.355 N 
HETATM   17  H8  UNL     1      19.650   1.253  53.705  1.00  0.00     0.166 HD
BRANCH  16  18
HETATM   18  C9  UNL     1      19.227   0.706  51.845  1.00  0.00     0.035 A 
HETATM   19  C10 UNL     1      18.419  -0.336  52.086  1.00  0.00     0.053 A 
HETATM   20  C11 UNL     1      17.716  -0.142  50.840  1.00  0.00     0.038 A 
HETATM   21 CL1  UNL     1      16.483  -0.581  49.686  1.00  0.00    -0.084 Cl
HETATM   22  C12 UNL     1      18.521   0.904  50.589  1.00  0.00     0.053 A 
ENDBRANCH  16  18
ENDBRANCH   3  16
BRANCH   4  23
HETATM   23  C14 UNL     1      21.741  -0.957  54.311  1.00  0.00     0.179 C 
HETATM   24  O2  UNL     1      22.304  -1.526  55.308  1.00  0.00    -0.646 OA
BRANCH  23  25
HETATM   25  O3  UNL     1      20.867  -1.887  54.762  1.00  0.00    -0.773 OA
HETATM   26  H11 UNL     1      20.623  -2.732  54.220  1.00  0.00     0.167 HD
ENDBRANCH  23  25
ENDBRANCH   4  23
TORSDOF 9
ENDMDL
MODEL 9
REMARK VINA RESULT:      -6.7      3.236      4.050
REMARK  9 active torsions:
REMARK  status: ('A' for Active; 'I' for Inactive)
REMARK    1  A    between atoms: C2_2  and  C3_3 
REMARK    2  A    between atoms: C3_3  and  O1_4 
REMARK    3  A    between atoms: C3_3  and  C4_5 
REMARK    4  A    between atoms: C4_5  and  C16_22 
REMARK    5  A    between atoms: C5_6  and  C6_7 
REMARK    6  A    between atoms: C8_9  and  N1_10 
REMARK    7  A    between atoms: N1_10  and  C9_11 
REMARK    8  A    between atoms: C13_16  and  C14_17 
REMARK    9  A    between atoms: C14_17  and  O3_19 
ROOT
HETATM    1  C6  UNL     1      24.644   2.261  53.229  1.00  0.00     0.059 A 
HETATM    2  C7  UNL     1      23.745   1.322  52.839  1.00  0.00     0.062 A 
HETATM    3  C8  UNL     1      22.538   1.710  52.249  1.00  0.00     0.053 A 
HETATM    4  C13 UNL     1      22.402   3.072  52.128  1.00  0.00     0.082 A 
HETATM    5  C15 UNL     1      23.302   4.039  52.516  1.00  0.00     0.137 A 
HETATM    6  N2  UNL     1      24.432   3.580  53.073  1.00  0.00    -0.260 NA
ENDROOT
BRANCH   1   7
HETATM    7  C5  UNL     1      25.873   1.810  53.861  1.00  0.00     0.037 C 
HETATM    8  C4  UNL     1      26.793   0.918  53.474  1.00  0.00    -0.046 C 
BRANCH   8   9
HETATM    9  C3  UNL     1      27.957   0.665  54.340  1.00  0.00     0.169 C 
BRANCH   9  10
HETATM   10  C2  UNL     1      29.140   0.260  53.512  1.00  0.00    -0.001 C 
HETATM   11  C1  UNL     1      30.109  -0.647  53.576  1.00  0.00     0.010 C 
ENDBRANCH   9  10
BRANCH   9  12
HETATM   12  O1  UNL     1      27.759  -0.318  55.296  1.00  0.00    -0.387 OA
HETATM   13  H5  UNL     1      28.482  -0.998  55.112  1.00  0.00     0.210 HD
ENDBRANCH   9  12
ENDBRANCH   8   9
BRANCH   8  14
HETATM   14  C16 UNL     1      26.939   0.039  52.313  1.00  0.00     0.033 C 
HETATM   15  C17 UNL     1      26.293  -1.319  52.466  1.00  0.00     0.010 C 
ENDBRANCH   8  14
ENDBRANCH   1   7
BRANCH   3  16
HETATM   16  N1  UNL     1      21.622   0.710  51.860  1.00  0.00    -0.355 N 
HETATM   17  H8  UNL     1      21.794   0.248  50.917  1.00  0.00     0.166 HD
BRANCH  16  18
HETATM   18  C9  UNL     1      20.474   0.123  52.394  1.00  0.00     0.035 A 
HETATM   19  C10 UNL     1      19.373   0.175  51.631  1.00  0.00     0.053 A 
HETATM   20  C11 UNL     1      18.593  -0.528  52.623  1.00  0.00     0.038 A 
HETATM   21 CL1  UNL     1      17.101  -1.230  53.189  1.00  0.00    -0.084 Cl
HETATM   22  C12 UNL     1      19.691  -0.584  53.395  1.00  0.00     0.053 A 
ENDBRANCH  16  18
ENDBRANCH   3  16
BRANCH   4  23
HETATM   23  C14 UNL     1      21.203   3.558  51.510  1.00  0.00     0.179 C 
HETATM   24  O2  UNL     1      20.877   3.212  50.323  1.00  0.00    -0.646 OA
BRANCH  23  25
HETATM   25  O3  UNL     1      20.035   4.186  51.237  1.00  0.00    -0.773 OA
HETATM   26  H11 UNL     1      19.858   5.171  51.497  1.00  0.00     0.167 HD
ENDBRANCH  23  25
ENDBRANCH   4  23
TORSDOF 9
ENDMDL
