MODEL 1
REMARK VINA RESULT:      -6.9      0.000      0.000
REMARK  2 active torsions:
REMARK  status: ('A' for Active; 'I' for Inactive)
REMARK    1  A    between atoms: C2_2  and  C3_4 
REMARK    2  A    between atoms: N2_14  and  C12_15 
ROOT
HETATM    1  C3  UNL     1      24.460   2.501  50.953  1.00  0.00     0.095 C 
HETATM    2  C4  UNL     1      25.920   2.293  51.030  1.00  0.00     0.104 C 
HETATM    3  N1  UNL     1      26.861   3.071  50.539  1.00  0.00    -0.264 NA
HETATM    4  C5  UNL     1      26.569   3.946  49.462  1.00  0.00     0.058 C 
HETATM    5  C6  UNL     1      25.354   3.507  49.473  1.00  0.00     0.039 C 
HETATM    6  C7  UNL     1      24.116   2.844  49.541  1.00  0.00    -0.046 C 
HETATM    7  C8  UNL     1      23.091   2.611  48.749  1.00  0.00    -0.017 C 
HETATM    8  C9  UNL     1      22.445   2.775  47.401  1.00  0.00     0.063 C 
HETATM    9  C10 UNL     1      21.135   3.562  47.539  1.00  0.00     0.224 C 
HETATM   10  C11 UNL     1      20.207   2.733  48.332  1.00  0.00     0.043 C 
HETATM   11  N2  UNL     1      21.430   4.888  48.045  1.00  0.00     0.107 N 
HETATM   12  C15 UNL     1      22.145   5.623  46.980  1.00  0.00     0.366 C 
HETATM   13  C16 UNL     1      23.149   6.453  47.477  1.00  0.00    -0.071 C 
HETATM   14  C17 UNL     1      23.956   7.095  47.878  1.00  0.00    -0.024 C 
HETATM   15  C18 UNL     1      24.973   7.873  48.384  1.00  0.00     0.430 A 
HETATM   16  O1  UNL     1      26.118   8.106  48.734  1.00  0.00    -0.130 OA
HETATM   17  N3  UNL     1      26.062   6.874  48.278  1.00  0.00     0.122 N 
HETATM   18  C19 UNL     1      27.304   6.078  48.289  1.00  0.00     0.243 C 
HETATM   19  C20 UNL     1      27.470   4.836  48.809  1.00  0.00     0.059 C 
HETATM   20  H22 UNL     1      25.902   5.985  47.749  1.00  0.00     0.329 HD
ENDROOT
BRANCH   1  21
HETATM   21  C2  UNL     1      23.962   3.550  51.877  1.00  0.00    -0.021 A 
HETATM   22  C1  UNL     1      24.172   3.381  53.200  1.00  0.00     0.121 A 
HETATM   23 BR1  UNL     1      23.283   4.953  52.974  1.00  0.00    -0.131 Br
ENDBRANCH   1  21
BRANCH  11  24
HETATM   24  C12 UNL     1      20.303   5.662  48.482  1.00  0.00     0.216 C 
HETATM   25  C13 UNL     1      20.522   6.634  49.581  1.00  0.00     0.042 C 
HETATM   26  C14 UNL     1      19.813   6.453  47.252  1.00  0.00     0.042 C 
ENDBRANCH  11  24
TORSDOF 2
ENDMDL
MODEL 2
REMARK VINA RESULT:      -6.4      2.913      4.244
REMARK  2 active torsions:
REMARK  status: ('A' for Active; 'I' for Inactive)
REMARK    1  A    between atoms: C2_2  and  C3_4 
REMARK    2  A    between atoms: N2_14  and  C12_15 
ROOT
HETATM    1  C3  UNL     1      20.280   0.839  50.323  1.00  0.00     0.095 C 
HETATM    2  C4  UNL     1      20.799  -0.081  51.356  1.00  0.00     0.104 C 
HETATM    3  N1  UNL     1      21.754   0.161  52.229  1.00  0.00    -0.264 NA
HETATM    4  C5  UNL     1      22.723   1.161  51.961  1.00  0.00     0.058 C 
HETATM    5  C6  UNL     1      22.132   1.393  50.836  1.00  0.00     0.039 C 
HETATM    6  C7  UNL     1      21.446   1.438  49.610  1.00  0.00    -0.046 C 
HETATM    7  C8  UNL     1      21.683   1.828  48.375  1.00  0.00    -0.017 C 
HETATM    8  C9  UNL     1      22.637   2.419  47.375  1.00  0.00     0.063 C 
HETATM    9  C10 UNL     1      22.077   3.741  46.833  1.00  0.00     0.224 C 
HETATM   10  C11 UNL     1      20.850   3.420  46.078  1.00  0.00     0.043 C 
HETATM   11  N2  UNL     1      21.950   4.685  47.925  1.00  0.00     0.107 N 
HETATM   12  C15 UNL     1      23.315   5.057  48.354  1.00  0.00     0.366 C 
HETATM   13  C16 UNL     1      23.423   5.220  49.735  1.00  0.00    -0.071 C 
HETATM   14  C17 UNL     1      23.504   5.329  50.832  1.00  0.00    -0.024 C 
HETATM   15  C18 UNL     1      23.600   5.439  52.202  1.00  0.00     0.430 A 
HETATM   16  O1  UNL     1      23.809   5.031  53.332  1.00  0.00    -0.130 OA
HETATM   17  N3  UNL     1      24.007   4.044  52.487  1.00  0.00     0.122 N 
HETATM   18  C19 UNL     1      24.404   2.734  53.040  1.00  0.00     0.243 C 
HETATM   19  C20 UNL     1      23.823   1.535  52.787  1.00  0.00     0.059 C 
HETATM   20  H22 UNL     1      24.277   3.409  51.700  1.00  0.00     0.329 HD
ENDROOT
BRANCH   1  21
HETATM   21  C2  UNL     1      19.401   1.904  50.868  1.00  0.00    -0.021 A 
HETATM   22  C1  UNL     1      18.307   1.529  51.564  1.00  0.00     0.121 A 
HETATM   23 BR1  UNL     1      18.343   3.348  51.521  1.00  0.00    -0.131 Br
ENDBRANCH   1  21
BRANCH  11  24
HETATM   24  C12 UNL     1      21.198   5.876  47.647  1.00  0.00     0.216 C 
HETATM   25  C13 UNL     1      20.464   6.503  48.772  1.00  0.00     0.042 C 
HETATM   26  C14 UNL     1      22.206   6.914  47.112  1.00  0.00     0.042 C 
ENDBRANCH  11  24
TORSDOF 2
ENDMDL
MODEL 3
REMARK VINA RESULT:      -6.4      8.247     10.081
REMARK  2 active torsions:
REMARK  status: ('A' for Active; 'I' for Inactive)
REMARK    1  A    between atoms: C2_2  and  C3_4 
REMARK    2  A    between atoms: N2_14  and  C12_15 
ROOT
HETATM    1  C3  UNL     1      32.898   5.110  48.064  1.00  0.00     0.095 C 
HETATM    2  C4  UNL     1      33.236   3.860  47.353  1.00  0.00     0.104 C 
HETATM    3  N1  UNL     1      33.511   3.723  46.073  1.00  0.00    -0.264 NA
HETATM    4  C5  UNL     1      33.041   4.681  45.140  1.00  0.00     0.058 C 
HETATM    5  C6  UNL     1      32.491   5.322  46.117  1.00  0.00     0.039 C 
HETATM    6  C7  UNL     1      31.860   5.828  47.267  1.00  0.00    -0.046 C 
HETATM    7  C8  UNL     1      30.828   6.594  47.555  1.00  0.00    -0.017 C 
HETATM    8  C9  UNL     1      29.666   7.417  47.075  1.00  0.00     0.063 C 
HETATM    9  C10 UNL     1      29.851   8.881  47.495  1.00  0.00     0.224 C 
HETATM   10  C11 UNL     1      29.794   8.924  48.970  1.00  0.00     0.043 C 
HETATM   11  N2  UNL     1      31.046   9.407  46.867  1.00  0.00     0.107 N 
HETATM   12  C15 UNL     1      30.778   9.512  45.417  1.00  0.00     0.366 C 
HETATM   13  C16 UNL     1      31.888   9.191  44.637  1.00  0.00    -0.071 C 
HETATM   14  C17 UNL     1      32.768   8.916  44.026  1.00  0.00    -0.024 C 
HETATM   15  C18 UNL     1      33.862   8.550  43.273  1.00  0.00     0.430 A 
HETATM   16  O1  UNL     1      34.571   7.770  42.660  1.00  0.00    -0.130 OA
HETATM   17  N3  UNL     1      33.529   7.114  43.122  1.00  0.00     0.122 N 
HETATM   18  C19 UNL     1      33.441   5.670  42.832  1.00  0.00     0.243 C 
HETATM   19  C20 UNL     1      33.235   4.672  43.727  1.00  0.00     0.059 C 
HETATM   20  H22 UNL     1      32.586   6.765  43.412  1.00  0.00     0.329 HD
ENDROOT
BRANCH   1  21
HETATM   21  C2  UNL     1      34.069   5.990  48.304  1.00  0.00    -0.021 A 
HETATM   22  C1  UNL     1      35.154   5.452  48.901  1.00  0.00     0.121 A 
HETATM   23 BR1  UNL     1      35.515   7.204  48.565  1.00  0.00    -0.131 Br
ENDBRANCH   1  21
BRANCH  11  24
HETATM   24  C12 UNL     1      31.512  10.674  47.357  1.00  0.00     0.216 C 
HETATM   25  C13 UNL     1      32.944  11.003  47.155  1.00  0.00     0.042 C 
HETATM   26  C14 UNL     1      30.680  11.754  46.637  1.00  0.00     0.042 C 
ENDBRANCH  11  24
TORSDOF 2
ENDMDL
MODEL 4
REMARK VINA RESULT:      -6.3      6.636      9.573
REMARK  2 active torsions:
REMARK  status: ('A' for Active; 'I' for Inactive)
REMARK    1  A    between atoms: C2_2  and  C3_4 
REMARK    2  A    between atoms: N2_14  and  C12_15 
ROOT
HETATM    1  C3  UNL     1      33.049  10.131  46.482  1.00  0.00     0.095 C 
HETATM    2  C4  UNL     1      34.156   9.214  46.822  1.00  0.00     0.104 C 
HETATM    3  N1  UNL     1      34.064   8.044  47.417  1.00  0.00    -0.264 NA
HETATM    4  C5  UNL     1      32.943   7.749  48.234  1.00  0.00     0.058 C 
HETATM    5  C6  UNL     1      32.479   8.926  47.973  1.00  0.00     0.039 C 
HETATM    6  C7  UNL     1      32.177  10.268  47.685  1.00  0.00    -0.046 C 
HETATM    7  C8  UNL     1      31.455  11.238  48.208  1.00  0.00    -0.017 C 
HETATM    8  C9  UNL     1      30.535  11.710  49.299  1.00  0.00     0.063 C 
HETATM    9  C10 UNL     1      29.176  12.103  48.705  1.00  0.00     0.224 C 
HETATM   10  C11 UNL     1      29.400  13.272  47.832  1.00  0.00     0.043 C 
HETATM   11  N2  UNL     1      28.569  10.935  48.098  1.00  0.00     0.107 N 
HETATM   12  C15 UNL     1      28.197  10.008  49.189  1.00  0.00     0.366 C 
HETATM   13  C16 UNL     1      28.394   8.670  48.851  1.00  0.00    -0.071 C 
HETATM   14  C17 UNL     1      28.571   7.612  48.583  1.00  0.00    -0.024 C 
HETATM   15  C18 UNL     1      28.817   6.298  48.247  1.00  0.00     0.430 A 
HETATM   16  O1  UNL     1      29.487   5.282  48.178  1.00  0.00    -0.130 OA
HETATM   17  N3  UNL     1      30.194   6.209  48.785  1.00  0.00     0.122 N 
HETATM   18  C19 UNL     1      31.559   5.858  49.221  1.00  0.00     0.243 C 
HETATM   19  C20 UNL     1      32.699   6.545  48.958  1.00  0.00     0.059 C 
HETATM   20  H22 UNL     1      30.570   6.981  49.382  1.00  0.00     0.329 HD
ENDROOT
BRANCH   1  21
HETATM   21  C2  UNL     1      32.251   9.688  45.311  1.00  0.00    -0.021 A 
HETATM   22  C1  UNL     1      32.914   9.343  44.186  1.00  0.00     0.121 A 
HETATM   23 BR1  UNL     1      31.134   9.136  43.869  1.00  0.00    -0.131 Br
ENDBRANCH   1  21
BRANCH  11  24
HETATM   24  C12 UNL     1      27.422  11.178  47.269  1.00  0.00     0.216 C 
HETATM   25  C13 UNL     1      27.148  10.214  46.176  1.00  0.00     0.042 C 
HETATM   26  C14 UNL     1      26.197  11.179  48.206  1.00  0.00     0.042 C 
ENDBRANCH  11  24
TORSDOF 2
ENDMDL
MODEL 5
REMARK VINA RESULT:      -6.3      2.460      5.037
REMARK  2 active torsions:
REMARK  status: ('A' for Active; 'I' for Inactive)
REMARK    1  A    between atoms: C2_2  and  C3_4 
REMARK    2  A    between atoms: N2_14  and  C12_15 
ROOT
HETATM    1  C3  UNL     1      21.512   7.375  49.192  1.00  0.00     0.095 C 
HETATM    2  C4  UNL     1      22.041   8.749  49.071  1.00  0.00     0.104 C 
HETATM    3  N1  UNL     1      23.305   9.115  49.048  1.00  0.00    -0.264 NA
HETATM    4  C5  UNL     1      24.297   8.280  49.622  1.00  0.00     0.058 C 
HETATM    5  C6  UNL     1      23.366   7.442  49.939  1.00  0.00     0.039 C 
HETATM    6  C7  UNL     1      22.232   6.700  50.312  1.00  0.00    -0.046 C 
HETATM    7  C8  UNL     1      21.909   5.805  51.222  1.00  0.00    -0.017 C 
HETATM    8  C9  UNL     1      22.318   4.965  52.400  1.00  0.00     0.063 C 
HETATM    9  C10 UNL     1      22.199   3.476  52.048  1.00  0.00     0.224 C 
HETATM   10  C11 UNL     1      20.768   3.191  51.827  1.00  0.00     0.043 C 
HETATM   11  N2  UNL     1      23.107   3.172  50.960  1.00  0.00     0.107 N 
HETATM   12  C15 UNL     1      24.485   3.277  51.485  1.00  0.00     0.366 C 
HETATM   13  C16 UNL     1      25.375   3.822  50.562  1.00  0.00    -0.071 C 
HETATM   14  C17 UNL     1      26.071   4.273  49.830  1.00  0.00    -0.024 C 
HETATM   15  C18 UNL     1      26.925   4.856  48.920  1.00  0.00     0.430 A 
HETATM   16  O1  UNL     1      27.506   5.788  48.388  1.00  0.00    -0.130 OA
HETATM   17  N3  UNL     1      26.763   6.260  49.365  1.00  0.00     0.122 N 
HETATM   18  C19 UNL     1      26.776   7.717  49.596  1.00  0.00     0.243 C 
HETATM   19  C20 UNL     1      25.698   8.534  49.695  1.00  0.00     0.059 C 
HETATM   20  H22 UNL     1      26.258   6.468  50.257  1.00  0.00     0.329 HD
ENDROOT
BRANCH   1  21
HETATM   21  C2  UNL     1      21.636   6.581  47.943  1.00  0.00    -0.021 A 
HETATM   22  C1  UNL     1      20.674   5.673  47.672  1.00  0.00     0.121 A 
HETATM   23 BR1  UNL     1      21.890   5.617  46.319  1.00  0.00    -0.131 Br
ENDBRANCH   1  21
BRANCH  11  24
HETATM   24  C12 UNL     1      22.934   1.892  50.332  1.00  0.00     0.216 C 
HETATM   25  C13 UNL     1      22.084   0.895  51.027  1.00  0.00     0.042 C 
HETATM   26  C14 UNL     1      22.300   2.163  48.953  1.00  0.00     0.042 C 
ENDBRANCH  11  24
TORSDOF 2
ENDMDL
MODEL 6
REMARK VINA RESULT:      -5.8     23.747     27.348
REMARK  2 active torsions:
REMARK  status: ('A' for Active; 'I' for Inactive)
REMARK    1  A    between atoms: C2_2  and  C3_4 
REMARK    2  A    between atoms: N2_14  and  C12_15 
ROOT
HETATM    1  C3  UNL     1      38.199  -0.713  67.644  1.00  0.00     0.095 C 
HETATM    2  C4  UNL     1      37.445  -1.568  66.703  1.00  0.00     0.104 C 
HETATM    3  N1  UNL     1      37.598  -2.860  66.507  1.00  0.00    -0.264 NA
HETATM    4  C5  UNL     1      38.830  -3.486  66.824  1.00  0.00     0.058 C 
HETATM    5  C6  UNL     1      39.281  -2.338  67.208  1.00  0.00     0.039 C 
HETATM    6  C7  UNL     1      39.652  -1.008  67.472  1.00  0.00    -0.046 C 
HETATM    7  C8  UNL     1      40.761  -0.302  67.548  1.00  0.00    -0.017 C 
HETATM    8  C9  UNL     1      42.260  -0.251  67.448  1.00  0.00     0.063 C 
HETATM    9  C10 UNL     1      42.863   0.145  68.803  1.00  0.00     0.224 C 
HETATM   10  C11 UNL     1      42.430   1.528  69.087  1.00  0.00     0.043 C 
HETATM   11  N2  UNL     1      42.526  -0.865  69.786  1.00  0.00     0.107 N 
HETATM   12  C15 UNL     1      43.275  -2.092  69.439  1.00  0.00     0.366 C 
HETATM   13  C16 UNL     1      42.542  -3.256  69.667  1.00  0.00    -0.071 C 
HETATM   14  C17 UNL     1      41.947  -4.173  69.834  1.00  0.00    -0.024 C 
HETATM   15  C18 UNL     1      41.190  -5.308  70.023  1.00  0.00     0.430 A 
HETATM   16  O1  UNL     1      40.417  -6.190  69.688  1.00  0.00    -0.130 OA
HETATM   17  N3  UNL     1      40.621  -5.399  68.658  1.00  0.00     0.122 N 
HETATM   18  C19 UNL     1      39.916  -5.711  67.400  1.00  0.00     0.243 C 
HETATM   19  C20 UNL     1      39.163  -4.862  66.657  1.00  0.00     0.059 C 
HETATM   20  H22 UNL     1      40.996  -4.787  67.896  1.00  0.00     0.329 HD
ENDROOT
BRANCH   1  21
HETATM   21  C2  UNL     1      37.797  -0.895  69.062  1.00  0.00    -0.021 A 
HETATM   22  C1  UNL     1      37.703   0.204  69.840  1.00  0.00     0.121 A 
HETATM   23 BR1  UNL     1      37.276  -1.240  70.862  1.00  0.00    -0.131 Br
ENDBRANCH   1  21
BRANCH  11  24
HETATM   24  C12 UNL     1      42.783  -0.524  71.157  1.00  0.00     0.216 C 
HETATM   25  C13 UNL     1      41.911  -1.133  72.190  1.00  0.00     0.042 C 
HETATM   26  C14 UNL     1      44.231  -0.962  71.453  1.00  0.00     0.042 C 
ENDBRANCH  11  24
TORSDOF 2
ENDMDL
MODEL 7
REMARK VINA RESULT:      -5.8      2.847      5.535
REMARK  2 active torsions:
REMARK  status: ('A' for Active; 'I' for Inactive)
REMARK    1  A    between atoms: C2_2  and  C3_4 
REMARK    2  A    between atoms: N2_14  and  C12_15 
ROOT
HETATM    1  C3  UNL     1      24.148   9.678  48.108  1.00  0.00     0.095 C 
HETATM    2  C4  UNL     1      25.132  10.776  48.191  1.00  0.00     0.104 C 
HETATM    3  N1  UNL     1      26.434  10.667  48.346  1.00  0.00    -0.264 NA
HETATM    4  C5  UNL     1      26.983   9.500  48.937  1.00  0.00     0.058 C 
HETATM    5  C6  UNL     1      25.785   9.033  49.060  1.00  0.00     0.039 C 
HETATM    6  C7  UNL     1      24.423   8.726  49.225  1.00  0.00    -0.046 C 
HETATM    7  C8  UNL     1      23.684   7.955  49.995  1.00  0.00    -0.017 C 
HETATM    8  C9  UNL     1      23.606   6.957  51.117  1.00  0.00     0.063 C 
HETATM    9  C10 UNL     1      23.028   5.632  50.601  1.00  0.00     0.224 C 
HETATM   10  C11 UNL     1      21.634   5.891  50.193  1.00  0.00     0.043 C 
HETATM   11  N2  UNL     1      23.918   5.087  49.594  1.00  0.00     0.107 N 
HETATM   12  C15 UNL     1      25.158   4.662  50.278  1.00  0.00     0.366 C 
HETATM   13  C16 UNL     1      26.303   4.905  49.521  1.00  0.00    -0.071 C 
HETATM   14  C17 UNL     1      27.208   5.118  48.922  1.00  0.00    -0.024 C 
HETATM   15  C18 UNL     1      28.331   5.409  48.178  1.00  0.00     0.430 A 
HETATM   16  O1  UNL     1      29.267   6.100  47.814  1.00  0.00    -0.130 OA
HETATM   17  N3  UNL     1      28.605   6.749  48.746  1.00  0.00     0.122 N 
HETATM   18  C19 UNL     1      29.090   8.090  49.128  1.00  0.00     0.243 C 
HETATM   19  C20 UNL     1      28.360   9.231  49.191  1.00  0.00     0.059 C 
HETATM   20  H22 UNL     1      28.083   7.072  49.594  1.00  0.00     0.329 HD
ENDROOT
BRANCH   1  21
HETATM   21  C2  UNL     1      24.163   8.966  46.805  1.00  0.00    -0.021 A 
HETATM   22  C1  UNL     1      23.012   8.405  46.377  1.00  0.00     0.121 A 
HETATM   23 BR1  UNL     1      24.291   8.079  45.123  1.00  0.00    -0.131 Br
ENDBRANCH   1  21
BRANCH  11  24
HETATM   24  C12 UNL     1      23.402   3.993  48.821  1.00  0.00     0.216 C 
HETATM   25  C13 UNL     1      22.498   3.036  49.503  1.00  0.00     0.042 C 
HETATM   26  C14 UNL     1      22.620   4.617  47.648  1.00  0.00     0.042 C 
ENDBRANCH  11  24
TORSDOF 2
ENDMDL
MODEL 8
REMARK VINA RESULT:      -5.8      5.010      7.014
REMARK  2 active torsions:
REMARK  status: ('A' for Active; 'I' for Inactive)
REMARK    1  A    between atoms: C2_2  and  C3_4 
REMARK    2  A    between atoms: N2_14  and  C12_15 
ROOT
HETATM    1  C3  UNL     1      28.582   7.095  47.633  1.00  0.00     0.095 C 
HETATM    2  C4  UNL     1      29.897   7.091  48.305  1.00  0.00     0.104 C 
HETATM    3  N1  UNL     1      30.548   8.129  48.785  1.00  0.00    -0.264 NA
HETATM    4  C5  UNL     1      30.284   9.428  48.281  1.00  0.00     0.058 C 
HETATM    5  C6  UNL     1      29.412   8.909  47.481  1.00  0.00     0.039 C 
HETATM    6  C7  UNL     1      28.592   8.177  46.604  1.00  0.00    -0.046 C 
HETATM    7  C8  UNL     1      28.053   8.336  45.414  1.00  0.00    -0.017 C 
HETATM    8  C9  UNL     1      27.856   9.196  44.197  1.00  0.00     0.063 C 
HETATM    9  C10 UNL     1      26.370   9.542  44.034  1.00  0.00     0.224 C 
HETATM   10  C11 UNL     1      25.655   8.281  43.756  1.00  0.00     0.043 C 
HETATM   11  N2  UNL     1      25.931  10.307  45.184  1.00  0.00     0.107 N 
HETATM   12  C15 UNL     1      26.587  11.631  45.115  1.00  0.00     0.366 C 
HETATM   13  C16 UNL     1      26.961  12.114  46.368  1.00  0.00    -0.071 C 
HETATM   14  C17 UNL     1      27.270  12.483  47.364  1.00  0.00    -0.024 C 
HETATM   15  C18 UNL     1      27.674  12.922  48.606  1.00  0.00     0.430 A 
HETATM   16  O1  UNL     1      28.455  13.050  49.533  1.00  0.00    -0.130 OA
HETATM   17  N3  UNL     1      29.044  12.362  48.581  1.00  0.00     0.122 N 
HETATM   18  C19 UNL     1      30.429  11.909  48.816  1.00  0.00     0.243 C 
HETATM   19  C20 UNL     1      30.907  10.647  48.677  1.00  0.00     0.059 C 
HETATM   20  H22 UNL     1      29.430  11.969  47.691  1.00  0.00     0.329 HD
ENDROOT
BRANCH   1  21
HETATM   21  C2  UNL     1      27.441   7.278  48.566  1.00  0.00    -0.021 A 
HETATM   22  C1  UNL     1      26.624   6.225  48.782  1.00  0.00     0.121 A 
HETATM   23 BR1  UNL     1      26.010   7.619  49.778  1.00  0.00    -0.131 Br
ENDBRANCH   1  21
BRANCH  11  24
HETATM   24  C12 UNL     1      24.513  10.485  45.322  1.00  0.00     0.216 C 
HETATM   25  C13 UNL     1      23.967  10.611  46.695  1.00  0.00     0.042 C 
HETATM   26  C14 UNL     1      24.159  11.778  44.559  1.00  0.00     0.042 C 
ENDBRANCH  11  24
TORSDOF 2
ENDMDL
MODEL 9
REMARK VINA RESULT:      -5.8      2.909      5.032
REMARK  2 active torsions:
REMARK  status: ('A' for Active; 'I' for Inactive)
REMARK    1  A    between atoms: C2_2  and  C3_4 
REMARK    2  A    between atoms: N2_14  and  C12_15 
ROOT
HETATM    1  C3  UNL     1      24.176   2.964  53.022  1.00  0.00     0.095 C 
HETATM    2  C4  UNL     1      23.519   1.732  53.507  1.00  0.00     0.104 C 
HETATM    3  N1  UNL     1      22.736   0.926  52.822  1.00  0.00    -0.264 NA
HETATM    4  C5  UNL     1      22.044   1.408  51.682  1.00  0.00     0.058 C 
HETATM    5  C6  UNL     1      22.581   2.566  51.881  1.00  0.00     0.039 C 
HETATM    6  C7  UNL     1      23.153   3.779  52.303  1.00  0.00    -0.046 C 
HETATM    7  C8  UNL     1      22.926   5.068  52.153  1.00  0.00    -0.017 C 
HETATM    8  C9  UNL     1      22.081   6.163  51.564  1.00  0.00     0.063 C 
HETATM    9  C10 UNL     1      22.922   7.015  50.604  1.00  0.00     0.224 C 
HETATM   10  C11 UNL     1      23.956   7.692  51.409  1.00  0.00     0.043 C 
HETATM   11  N2  UNL     1      23.380   6.183  49.509  1.00  0.00     0.107 N 
HETATM   12  C15 UNL     1      22.199   5.832  48.691  1.00  0.00     0.366 C 
HETATM   13  C16 UNL     1      22.251   4.529  48.198  1.00  0.00    -0.071 C 
HETATM   14  C17 UNL     1      22.291   3.488  47.827  1.00  0.00    -0.024 C 
HETATM   15  C18 UNL     1      22.339   2.182  47.388  1.00  0.00     0.430 A 
HETATM   16  O1  UNL     1      22.124   0.984  47.458  1.00  0.00    -0.130 OA
HETATM   17  N3  UNL     1      21.606   1.565  48.517  1.00  0.00     0.122 N 
HETATM   18  C19 UNL     1      20.927   0.709  49.508  1.00  0.00     0.243 C 
HETATM   19  C20 UNL     1      21.151   0.677  50.846  1.00  0.00     0.059 C 
HETATM   20  H22 UNL     1      21.116   2.173  49.214  1.00  0.00     0.329 HD
ENDROOT
BRANCH   1  21
HETATM   21  C2  UNL     1      25.344   2.705  52.143  1.00  0.00    -0.021 A 
HETATM   22  C1  UNL     1      26.358   1.964  52.638  1.00  0.00     0.121 A 
HETATM   23 BR1  UNL     1      26.793   2.434  50.934  1.00  0.00    -0.131 Br
ENDBRANCH   1  21
BRANCH  11  24
HETATM   24  C12 UNL     1      24.392   6.751  48.664  1.00  0.00     0.216 C 
HETATM   25  C13 UNL     1      25.634   5.967  48.457  1.00  0.00     0.042 C 
HETATM   26  C14 UNL     1      23.740   6.963  47.282  1.00  0.00     0.042 C 
ENDBRANCH  11  24
TORSDOF 2
ENDMDL
