MODEL 1
REMARK VINA RESULT:      -8.0      0.000      0.000
REMARK  7 active torsions:
REMARK  status: ('A' for Active; 'I' for Inactive)
REMARK    1  A    between atoms: C2_2  and  C3_3 
REMARK    2  A    between atoms: C2_2  and  N1_9 
REMARK    3  A    between atoms: C4_4  and  C5_5 
REMARK    4  A    between atoms: C6_6  and  C7_7 
REMARK    5  A    between atoms: N1_9  and  C8_10 
REMARK    6  A    between atoms: C12_17  and  C13_18 
REMARK    7  A    between atoms: C16_21  and  O1_22 
ROOT
HETATM    1  C8  UNL     1      23.431   4.498  51.432  1.00  0.00     0.165 A 
HETATM    2  N2  UNL     1      23.720   5.456  50.575  1.00  0.00    -0.218 NA
HETATM    3  C9  UNL     1      24.977   5.337  49.850  1.00  0.00     0.238 A 
HETATM    4  N3  UNL     1      25.972   4.509  49.788  1.00  0.00    -0.218 NA
HETATM    5  C10 UNL     1      26.042   3.308  50.582  1.00  0.00     0.169 A 
HETATM    6  S1  UNL     1      24.638   3.070  51.652  1.00  0.00    -0.055 SA
HETATM    7  C11 UNL     1      25.040   1.616  52.410  1.00  0.00     0.080 A 
HETATM    8  C12 UNL     1      26.211   1.284  51.888  1.00  0.00     0.050 A 
HETATM    9  N4  UNL     1      26.767   2.156  50.921  1.00  0.00    -0.334 N 
HETATM   10  H19 UNL     1      27.674   2.034  50.422  1.00  0.00     0.168 HD
ENDROOT
BRANCH   1  11
HETATM   11  N1  UNL     1      22.318   4.294  52.290  1.00  0.00    -0.362 N 
HETATM   12  H11 UNL     1      22.220   4.749  53.220  1.00  0.00     0.162 HD
BRANCH  11  13
HETATM   13  C2  UNL     1      21.359   3.376  51.689  1.00  0.00     0.102 C 
HETATM   14  C1  UNL     1      20.050   4.041  51.387  1.00  0.00     0.036 C 
BRANCH  13  15
HETATM   15  C3  UNL     1      21.257   2.112  52.420  1.00  0.00    -0.002 C 
HETATM   16  C4  UNL     1      21.455   0.875  51.993  1.00  0.00    -0.002 C 
BRANCH  16  17
HETATM   17  C5  UNL     1      21.290  -0.234  52.925  1.00  0.00    -0.002 C 
HETATM   18  C6  UNL     1      22.190  -0.437  53.875  1.00  0.00     0.004 C 
BRANCH  18  19
HETATM   19  C7  UNL     1      22.045  -1.564  54.842  1.00  0.00     0.249 C 
HETATM   20  F1  UNL     1      23.067  -1.519  55.754  1.00  0.00    -0.251 F 
ENDBRANCH  18  19
ENDBRANCH  16  17
ENDBRANCH  13  15
ENDBRANCH  11  13
ENDBRANCH   1  11
BRANCH   8  21
HETATM   21  C13 UNL     1      26.895   0.068  52.298  1.00  0.00    -0.009 A 
HETATM   22  C14 UNL     1      26.366  -1.174  52.059  1.00  0.00     0.016 A 
HETATM   23  C15 UNL     1      27.029  -2.317  52.455  1.00  0.00     0.037 A 
HETATM   24  C16 UNL     1      28.245  -2.287  53.106  1.00  0.00     0.065 A 
HETATM   25  C17 UNL     1      28.803  -1.059  53.361  1.00  0.00     0.037 A 
HETATM   26  C18 UNL     1      28.109   0.059  52.949  1.00  0.00     0.016 A 
BRANCH  24  27
HETATM   27  O1  UNL     1      28.880  -3.460  53.488  1.00  0.00    -0.361 OA
HETATM   28  H16 UNL     1      29.618  -3.493  54.182  1.00  0.00     0.217 HD
ENDBRANCH  24  27
ENDBRANCH   8  21
TORSDOF 7
ENDMDL
MODEL 2
REMARK VINA RESULT:      -7.9      3.733      6.271
REMARK  7 active torsions:
REMARK  status: ('A' for Active; 'I' for Inactive)
REMARK    1  A    between atoms: C2_2  and  C3_3 
REMARK    2  A    between atoms: C2_2  and  N1_9 
REMARK    3  A    between atoms: C4_4  and  C5_5 
REMARK    4  A    between atoms: C6_6  and  C7_7 
REMARK    5  A    between atoms: N1_9  and  C8_10 
REMARK    6  A    between atoms: C12_17  and  C13_18 
REMARK    7  A    between atoms: C16_21  and  O1_22 
ROOT
HETATM    1  C8  UNL     1      24.623   4.705  50.283  1.00  0.00     0.165 A 
HETATM    2  N2  UNL     1      23.740   5.431  50.937  1.00  0.00    -0.218 NA
HETATM    3  C9  UNL     1      23.380   4.985  52.276  1.00  0.00     0.238 A 
HETATM    4  N3  UNL     1      23.690   4.016  53.078  1.00  0.00    -0.218 NA
HETATM    5  C10 UNL     1      24.640   2.988  52.733  1.00  0.00     0.169 A 
HETATM    6  S1  UNL     1      25.344   3.174  51.108  1.00  0.00    -0.055 SA
HETATM    7  C11 UNL     1      26.378   1.841  51.039  1.00  0.00     0.080 A 
HETATM    8  C12 UNL     1      26.222   1.241  52.209  1.00  0.00     0.050 A 
HETATM    9  N4  UNL     1      25.312   1.821  53.125  1.00  0.00    -0.334 N 
HETATM   10  H19 UNL     1      25.081   1.469  54.079  1.00  0.00     0.168 HD
ENDROOT
BRANCH   1  11
HETATM   11  N1  UNL     1      25.193   4.839  48.989  1.00  0.00    -0.362 N 
HETATM   12  H11 UNL     1      24.908   4.259  48.174  1.00  0.00     0.162 HD
BRANCH  11  13
HETATM   13  C2  UNL     1      26.210   5.884  48.974  1.00  0.00     0.102 C 
HETATM   14  C1  UNL     1      25.772   7.090  48.201  1.00  0.00     0.036 C 
BRANCH  13  15
HETATM   15  C3  UNL     1      27.536   5.372  48.626  1.00  0.00    -0.002 C 
HETATM   16  C4  UNL     1      28.626   6.033  48.272  1.00  0.00    -0.002 C 
BRANCH  16  17
HETATM   17  C5  UNL     1      29.843   5.288  47.970  1.00  0.00    -0.002 C 
HETATM   18  C6  UNL     1      30.920   5.929  47.543  1.00  0.00     0.004 C 
BRANCH  18  19
HETATM   19  C7  UNL     1      32.178   5.191  47.227  1.00  0.00     0.249 C 
HETATM   20  F1  UNL     1      31.925   3.844  47.205  1.00  0.00    -0.251 F 
ENDBRANCH  18  19
ENDBRANCH  16  17
ENDBRANCH  13  15
ENDBRANCH  11  13
ENDBRANCH   1  11
BRANCH   8  21
HETATM   21  C13 UNL     1      26.961   0.031  52.534  1.00  0.00    -0.009 A 
HETATM   22  C14 UNL     1      26.475  -1.215  52.235  1.00  0.00     0.016 A 
HETATM   23  C15 UNL     1      27.190  -2.351  52.550  1.00  0.00     0.037 A 
HETATM   24  C16 UNL     1      28.419  -2.310  53.177  1.00  0.00     0.065 A 
HETATM   25  C17 UNL     1      28.935  -1.078  53.491  1.00  0.00     0.037 A 
HETATM   26  C18 UNL     1      28.189   0.033  53.159  1.00  0.00     0.016 A 
BRANCH  24  27
HETATM   27  O1  UNL     1      29.107  -3.477  53.477  1.00  0.00    -0.361 OA
HETATM   28  H16 UNL     1      29.555  -4.056  52.775  1.00  0.00     0.217 HD
ENDBRANCH  24  27
ENDBRANCH   8  21
TORSDOF 7
ENDMDL
MODEL 3
REMARK VINA RESULT:      -7.8      3.583      6.238
REMARK  7 active torsions:
REMARK  status: ('A' for Active; 'I' for Inactive)
REMARK    1  A    between atoms: C2_2  and  C3_3 
REMARK    2  A    between atoms: C2_2  and  N1_9 
REMARK    3  A    between atoms: C4_4  and  C5_5 
REMARK    4  A    between atoms: C6_6  and  C7_7 
REMARK    5  A    between atoms: N1_9  and  C8_10 
REMARK    6  A    between atoms: C12_17  and  C13_18 
REMARK    7  A    between atoms: C16_21  and  O1_22 
ROOT
HETATM    1  C8  UNL     1      22.315   0.897  52.057  1.00  0.00     0.165 A 
HETATM    2  N2  UNL     1      21.287   0.329  51.461  1.00  0.00    -0.218 NA
HETATM    3  C9  UNL     1      21.058   0.673  50.065  1.00  0.00     0.238 A 
HETATM    4  N3  UNL     1      21.604   1.427  49.163  1.00  0.00    -0.218 NA
HETATM    5  C10 UNL     1      22.774   2.230  49.417  1.00  0.00     0.169 A 
HETATM    6  S1  UNL     1      23.396   2.089  51.080  1.00  0.00    -0.055 SA
HETATM    7  C11 UNL     1      24.725   3.129  51.026  1.00  0.00     0.080 A 
HETATM    8  C12 UNL     1      24.731   3.595  49.786  1.00  0.00     0.050 A 
HETATM    9  N4  UNL     1      23.715   3.139  48.912  1.00  0.00    -0.334 N 
HETATM   10  H19 UNL     1      23.585   3.411  47.914  1.00  0.00     0.168 HD
ENDROOT
BRANCH   1  11
HETATM   11  N1  UNL     1      22.824   0.796  53.379  1.00  0.00    -0.362 N 
HETATM   12  H11 UNL     1      22.849   1.594  54.046  1.00  0.00     0.162 HD
BRANCH  11  13
HETATM   13  C2  UNL     1      23.293  -0.556  53.653  1.00  0.00     0.102 C 
HETATM   14  C1  UNL     1      22.527  -1.207  54.765  1.00  0.00     0.036 C 
BRANCH  13  15
HETATM   15  C3  UNL     1      24.750  -0.631  53.777  1.00  0.00    -0.002 C 
HETATM   16  C4  UNL     1      25.672  -0.694  52.830  1.00  0.00    -0.002 C 
BRANCH  16  17
HETATM   17  C5  UNL     1      27.078  -0.762  53.210  1.00  0.00    -0.002 C 
HETATM   18  C6  UNL     1      27.650   0.270  53.810  1.00  0.00     0.004 C 
BRANCH  18  19
HETATM   19  C7  UNL     1      29.087   0.227  54.210  1.00  0.00     0.249 C 
HETATM   20  F1  UNL     1      29.770  -0.615  53.371  1.00  0.00    -0.251 F 
ENDBRANCH  18  19
ENDBRANCH  16  17
ENDBRANCH  13  15
ENDBRANCH  11  13
ENDBRANCH   1  11
BRANCH   8  21
HETATM   21  C13 UNL     1      25.747   4.537  49.345  1.00  0.00    -0.009 A 
HETATM   22  C14 UNL     1      25.497   5.881  49.259  1.00  0.00     0.016 A 
HETATM   23  C15 UNL     1      26.473   6.761  48.839  1.00  0.00     0.037 A 
HETATM   24  C16 UNL     1      27.742   6.353  48.483  1.00  0.00     0.065 A 
HETATM   25  C17 UNL     1      28.027   5.012  48.557  1.00  0.00     0.037 A 
HETATM   26  C18 UNL     1      27.023   4.167  48.982  1.00  0.00     0.016 A 
BRANCH  24  27
HETATM   27  O1  UNL     1      28.696   7.270  48.066  1.00  0.00    -0.361 OA
HETATM   28  H16 UNL     1      28.761   8.213  48.434  1.00  0.00     0.217 HD
ENDBRANCH  24  27
ENDBRANCH   8  21
TORSDOF 7
ENDMDL
MODEL 4
REMARK VINA RESULT:      -7.7      3.376      6.174
REMARK  7 active torsions:
REMARK  status: ('A' for Active; 'I' for Inactive)
REMARK    1  A    between atoms: C2_2  and  C3_3 
REMARK    2  A    between atoms: C2_2  and  N1_9 
REMARK    3  A    between atoms: C4_4  and  C5_5 
REMARK    4  A    between atoms: C6_6  and  C7_7 
REMARK    5  A    between atoms: N1_9  and  C8_10 
REMARK    6  A    between atoms: C12_17  and  C13_18 
REMARK    7  A    between atoms: C16_21  and  O1_22 
ROOT
HETATM    1  C8  UNL     1      26.792   2.462  51.970  1.00  0.00     0.165 A 
HETATM    2  N2  UNL     1      27.962   1.994  52.352  1.00  0.00    -0.218 NA
HETATM    3  C9  UNL     1      27.962   0.754  53.116  1.00  0.00     0.238 A 
HETATM    4  N3  UNL     1      27.090  -0.093  53.566  1.00  0.00    -0.218 NA
HETATM    5  C10 UNL     1      25.672   0.059  53.358  1.00  0.00     0.169 A 
HETATM    6  S1  UNL     1      25.232   1.513  52.427  1.00  0.00    -0.055 SA
HETATM    7  C11 UNL     1      23.550   1.376  52.374  1.00  0.00     0.080 A 
HETATM    8  C12 UNL     1      23.287   0.261  53.039  1.00  0.00     0.050 A 
HETATM    9  N4  UNL     1      24.385  -0.457  53.570  1.00  0.00    -0.334 N 
HETATM   10  H19 UNL     1      24.342  -1.346  54.114  1.00  0.00     0.168 HD
ENDROOT
BRANCH   1  11
HETATM   11  N1  UNL     1      26.425   3.617  51.230  1.00  0.00    -0.362 N 
HETATM   12  H11 UNL     1      26.216   4.537  51.668  1.00  0.00     0.162 HD
BRANCH  11  13
HETATM   13  C2  UNL     1      26.386   3.328  49.802  1.00  0.00     0.102 C 
HETATM   14  C1  UNL     1      27.196   4.305  49.004  1.00  0.00     0.036 C 
BRANCH  13  15
HETATM   15  C3  UNL     1      25.026   3.104  49.311  1.00  0.00    -0.002 C 
HETATM   16  C4  UNL     1      24.044   3.972  49.125  1.00  0.00    -0.002 C 
BRANCH  16  17
HETATM   17  C5  UNL     1      22.762   3.498  48.620  1.00  0.00    -0.002 C 
HETATM   18  C6  UNL     1      22.228   2.390  49.109  1.00  0.00     0.004 C 
BRANCH  18  19
HETATM   19  C7  UNL     1      20.916   1.884  48.610  1.00  0.00     0.249 C 
HETATM   20  F1  UNL     1      20.649   0.666  49.178  1.00  0.00    -0.251 F 
ENDBRANCH  18  19
ENDBRANCH  16  17
ENDBRANCH  13  15
ENDBRANCH  11  13
ENDBRANCH   1  11
BRANCH   8  21
HETATM   21  C13 UNL     1      21.920  -0.201  53.213  1.00  0.00    -0.009 A 
HETATM   22  C14 UNL     1      21.604  -1.217  54.076  1.00  0.00     0.016 A 
HETATM   23  C15 UNL     1      20.301  -1.644  54.228  1.00  0.00     0.037 A 
HETATM   24  C16 UNL     1      19.249  -1.086  53.532  1.00  0.00     0.065 A 
HETATM   25  C17 UNL     1      19.529  -0.066  52.657  1.00  0.00     0.037 A 
HETATM   26  C18 UNL     1      20.844   0.330  52.535  1.00  0.00     0.016 A 
BRANCH  24  27
HETATM   27  O1  UNL     1      17.951  -1.544  53.712  1.00  0.00    -0.361 OA
HETATM   28  H16 UNL     1      17.409  -1.986  52.977  1.00  0.00     0.217 HD
ENDBRANCH  24  27
ENDBRANCH   8  21
TORSDOF 7
ENDMDL
MODEL 5
REMARK VINA RESULT:      -7.5      4.500      7.652
REMARK  7 active torsions:
REMARK  status: ('A' for Active; 'I' for Inactive)
REMARK    1  A    between atoms: C2_2  and  C3_3 
REMARK    2  A    between atoms: C2_2  and  N1_9 
REMARK    3  A    between atoms: C4_4  and  C5_5 
REMARK    4  A    between atoms: C6_6  and  C7_7 
REMARK    5  A    between atoms: N1_9  and  C8_10 
REMARK    6  A    between atoms: C12_17  and  C13_18 
REMARK    7  A    between atoms: C16_21  and  O1_22 
ROOT
HETATM    1  C8  UNL     1      26.690   2.392  51.291  1.00  0.00     0.165 A 
HETATM    2  N2  UNL     1      27.750   2.526  52.061  1.00  0.00    -0.218 NA
HETATM    3  C9  UNL     1      27.644   2.028  53.425  1.00  0.00     0.238 A 
HETATM    4  N3  UNL     1      26.752   1.448  54.166  1.00  0.00    -0.218 NA
HETATM    5  C10 UNL     1      25.433   1.118  53.689  1.00  0.00     0.169 A 
HETATM    6  S1  UNL     1      25.143   1.581  51.994  1.00  0.00    -0.055 SA
HETATM    7  C11 UNL     1      23.551   1.063  51.775  1.00  0.00     0.080 A 
HETATM    8  C12 UNL     1      23.209   0.543  52.944  1.00  0.00     0.050 A 
HETATM    9  N4  UNL     1      24.180   0.556  53.975  1.00  0.00    -0.334 N 
HETATM   10  H19 UNL     1      24.063   0.187  54.943  1.00  0.00     0.168 HD
ENDROOT
BRANCH   1  11
HETATM   11  N1  UNL     1      26.443   2.755  49.940  1.00  0.00    -0.362 N 
HETATM   12  H11 UNL     1      26.721   2.167  49.129  1.00  0.00     0.162 HD
BRANCH  11  13
HETATM   13  C2  UNL     1      25.761   4.041  49.864  1.00  0.00     0.102 C 
HETATM   14  C1  UNL     1      24.362   3.910  49.343  1.00  0.00     0.036 C 
BRANCH  13  15
HETATM   15  C3  UNL     1      26.572   5.069  49.209  1.00  0.00    -0.002 C 
HETATM   16  C4  UNL     1      27.764   4.966  48.643  1.00  0.00    -0.002 C 
BRANCH  16  17
HETATM   17  C5  UNL     1      28.374   6.150  48.050  1.00  0.00    -0.002 C 
HETATM   18  C6  UNL     1      29.679   6.180  47.830  1.00  0.00     0.004 C 
BRANCH  18  19
HETATM   19  C7  UNL     1      30.329   7.378  47.224  1.00  0.00     0.249 C 
HETATM   20  F1  UNL     1      29.750   7.649  46.011  1.00  0.00    -0.251 F 
ENDBRANCH  18  19
ENDBRANCH  16  17
ENDBRANCH  13  15
ENDBRANCH  11  13
ENDBRANCH   1  11
BRANCH   8  21
HETATM   21  C13 UNL     1      21.885  -0.020  53.154  1.00  0.00    -0.009 A 
HETATM   22  C14 UNL     1      21.664  -1.036  54.046  1.00  0.00     0.016 A 
HETATM   23  C15 UNL     1      20.401  -1.558  54.232  1.00  0.00     0.037 A 
HETATM   24  C16 UNL     1      19.297  -1.101  53.543  1.00  0.00     0.065 A 
HETATM   25  C17 UNL     1      19.481  -0.084  52.641  1.00  0.00     0.037 A 
HETATM   26  C18 UNL     1      20.760   0.410  52.485  1.00  0.00     0.016 A 
BRANCH  24  27
HETATM   27  O1  UNL     1      18.042  -1.653  53.758  1.00  0.00    -0.361 OA
HETATM   28  H16 UNL     1      17.460  -1.420  54.556  1.00  0.00     0.217 HD
ENDBRANCH  24  27
ENDBRANCH   8  21
TORSDOF 7
ENDMDL
MODEL 6
REMARK VINA RESULT:      -7.5      3.165      5.120
REMARK  7 active torsions:
REMARK  status: ('A' for Active; 'I' for Inactive)
REMARK    1  A    between atoms: C2_2  and  C3_3 
REMARK    2  A    between atoms: C2_2  and  N1_9 
REMARK    3  A    between atoms: C4_4  and  C5_5 
REMARK    4  A    between atoms: C6_6  and  C7_7 
REMARK    5  A    between atoms: N1_9  and  C8_10 
REMARK    6  A    between atoms: C12_17  and  C13_18 
REMARK    7  A    between atoms: C16_21  and  O1_22 
ROOT
HETATM    1  C8  UNL     1      20.950   0.831  52.230  1.00  0.00     0.165 A 
HETATM    2  N2  UNL     1      19.927   0.319  52.883  1.00  0.00    -0.218 NA
HETATM    3  C9  UNL     1      20.231  -0.576  53.991  1.00  0.00     0.238 A 
HETATM    4  N3  UNL     1      21.285  -1.057  54.572  1.00  0.00    -0.218 NA
HETATM    5  C10 UNL     1      22.626  -0.735  54.151  1.00  0.00     0.169 A 
HETATM    6  S1  UNL     1      22.698   0.380  52.764  1.00  0.00    -0.055 SA
HETATM    7  C11 UNL     1      24.365   0.534  52.547  1.00  0.00     0.080 A 
HETATM    8  C12 UNL     1      24.893  -0.232  53.490  1.00  0.00     0.050 A 
HETATM    9  N4  UNL     1      24.003  -0.914  54.353  1.00  0.00    -0.334 N 
HETATM   10  H19 UNL     1      24.262  -1.549  55.138  1.00  0.00     0.168 HD
ENDROOT
BRANCH   1  11
HETATM   11  N1  UNL     1      21.023   1.719  51.124  1.00  0.00    -0.362 N 
HETATM   12  H11 UNL     1      20.731   1.460  50.160  1.00  0.00     0.162 HD
BRANCH  11  13
HETATM   13  C2  UNL     1      21.556   3.014  51.532  1.00  0.00     0.102 C 
HETATM   14  C1  UNL     1      20.492   4.068  51.597  1.00  0.00     0.036 C 
BRANCH  13  15
HETATM   15  C3  UNL     1      22.755   3.389  50.782  1.00  0.00    -0.002 C 
HETATM   16  C4  UNL     1      23.362   2.753  49.793  1.00  0.00    -0.002 C 
BRANCH  16  17
HETATM   17  C5  UNL     1      24.559   3.338  49.200  1.00  0.00    -0.002 C 
HETATM   18  C6  UNL     1      25.105   4.416  49.741  1.00  0.00     0.004 C 
BRANCH  18  19
HETATM   19  C7  UNL     1      26.330   5.033  49.155  1.00  0.00     0.249 C 
HETATM   20  F1  UNL     1      27.208   4.048  48.787  1.00  0.00    -0.251 F 
ENDBRANCH  18  19
ENDBRANCH  16  17
ENDBRANCH  13  15
ENDBRANCH  11  13
ENDBRANCH   1  11
BRANCH   8  21
HETATM   21  C13 UNL     1      26.335  -0.360  53.629  1.00  0.00    -0.009 A 
HETATM   22  C14 UNL     1      27.056   0.451  54.465  1.00  0.00     0.016 A 
HETATM   23  C15 UNL     1      28.423   0.315  54.583  1.00  0.00     0.037 A 
HETATM   24  C16 UNL     1      29.142  -0.629  53.880  1.00  0.00     0.065 A 
HETATM   25  C17 UNL     1      28.452  -1.459  53.033  1.00  0.00     0.037 A 
HETATM   26  C18 UNL     1      27.086  -1.290  52.943  1.00  0.00     0.016 A 
BRANCH  24  27
HETATM   27  O1  UNL     1      30.518  -0.734  54.027  1.00  0.00    -0.361 OA
HETATM   28  H16 UNL     1      31.074  -0.070  54.556  1.00  0.00     0.217 HD
ENDBRANCH  24  27
ENDBRANCH   8  21
TORSDOF 7
ENDMDL
MODEL 7
REMARK VINA RESULT:      -7.4      4.465      7.994
REMARK  7 active torsions:
REMARK  status: ('A' for Active; 'I' for Inactive)
REMARK    1  A    between atoms: C2_2  and  C3_3 
REMARK    2  A    between atoms: C2_2  and  N1_9 
REMARK    3  A    between atoms: C4_4  and  C5_5 
REMARK    4  A    between atoms: C6_6  and  C7_7 
REMARK    5  A    between atoms: N1_9  and  C8_10 
REMARK    6  A    between atoms: C12_17  and  C13_18 
REMARK    7  A    between atoms: C16_21  and  O1_22 
ROOT
HETATM    1  C8  UNL     1      25.176  -0.285  54.526  1.00  0.00     0.165 A 
HETATM    2  N2  UNL     1      25.216  -1.038  55.606  1.00  0.00    -0.218 NA
HETATM    3  C9  UNL     1      23.975  -1.682  56.011  1.00  0.00     0.238 A 
HETATM    4  N3  UNL     1      22.748  -1.743  55.596  1.00  0.00    -0.218 NA
HETATM    5  C10 UNL     1      22.283  -1.047  54.422  1.00  0.00     0.169 A 
HETATM    6  S1  UNL     1      23.548  -0.100  53.599  1.00  0.00    -0.055 SA
HETATM    7  C11 UNL     1      22.681   0.562  52.310  1.00  0.00     0.080 A 
HETATM    8  C12 UNL     1      21.450   0.097  52.466  1.00  0.00     0.050 A 
HETATM    9  N4  UNL     1      21.208  -0.755  53.570  1.00  0.00    -0.334 N 
HETATM   10  H19 UNL     1      20.300  -1.198  53.826  1.00  0.00     0.168 HD
ENDROOT
BRANCH   1  11
HETATM   11  N1  UNL     1      26.173   0.475  53.858  1.00  0.00    -0.362 N 
HETATM   12  H11 UNL     1      26.604   1.332  54.259  1.00  0.00     0.162 HD
BRANCH  11  13
HETATM   13  C2  UNL     1      26.490  -0.110  52.561  1.00  0.00     0.102 C 
HETATM   14  C1  UNL     1      27.649  -1.057  52.636  1.00  0.00     0.036 C 
BRANCH  13  15
HETATM   15  C3  UNL     1      26.577   0.893  51.499  1.00  0.00    -0.002 C 
HETATM   16  C4  UNL     1      26.453   2.208  51.571  1.00  0.00    -0.002 C 
BRANCH  16  17
HETATM   17  C5  UNL     1      26.583   3.003  50.356  1.00  0.00    -0.002 C 
HETATM   18  C6  UNL     1      25.870   4.109  50.212  1.00  0.00     0.004 C 
BRANCH  18  19
HETATM   19  C7  UNL     1      25.984   4.941  48.979  1.00  0.00     0.249 C 
HETATM   20  F1  UNL     1      27.246   4.820  48.459  1.00  0.00    -0.251 F 
ENDBRANCH  18  19
ENDBRANCH  16  17
ENDBRANCH  13  15
ENDBRANCH  11  13
ENDBRANCH   1  11
BRANCH   8  21
HETATM   21  C13 UNL     1      20.393   0.451  51.532  1.00  0.00    -0.009 A 
HETATM   22  C14 UNL     1      20.645   1.173  50.395  1.00  0.00     0.016 A 
HETATM   23  C15 UNL     1      19.629   1.500  49.521  1.00  0.00     0.037 A 
HETATM   24  C16 UNL     1      18.317   1.130  49.730  1.00  0.00     0.065 A 
HETATM   25  C17 UNL     1      18.029   0.407  50.860  1.00  0.00     0.037 A 
HETATM   26  C18 UNL     1      19.072   0.100  51.708  1.00  0.00     0.016 A 
BRANCH  24  27
HETATM   27  O1  UNL     1      17.324   1.480  48.827  1.00  0.00    -0.361 OA
HETATM   28  H16 UNL     1      17.346   1.220  47.846  1.00  0.00     0.217 HD
ENDBRANCH  24  27
ENDBRANCH   8  21
TORSDOF 7
ENDMDL
MODEL 8
REMARK VINA RESULT:      -7.2      6.579      8.353
REMARK  7 active torsions:
REMARK  status: ('A' for Active; 'I' for Inactive)
REMARK    1  A    between atoms: C2_2  and  C3_3 
REMARK    2  A    between atoms: C2_2  and  N1_9 
REMARK    3  A    between atoms: C4_4  and  C5_5 
REMARK    4  A    between atoms: C6_6  and  C7_7 
REMARK    5  A    between atoms: N1_9  and  C8_10 
REMARK    6  A    between atoms: C12_17  and  C13_18 
REMARK    7  A    between atoms: C16_21  and  O1_22 
ROOT
HETATM    1  C8  UNL     1      28.107   8.706  49.250  1.00  0.00     0.165 A 
HETATM    2  N2  UNL     1      28.049  10.022  49.245  1.00  0.00    -0.218 NA
HETATM    3  C9  UNL     1      29.191  10.732  48.686  1.00  0.00     0.238 A 
HETATM    4  N3  UNL     1      30.335  10.435  48.152  1.00  0.00    -0.218 NA
HETATM    5  C10 UNL     1      30.786   9.078  47.971  1.00  0.00     0.169 A 
HETATM    6  S1  UNL     1      29.630   7.852  48.549  1.00  0.00    -0.055 SA
HETATM    7  C11 UNL     1      30.456   6.423  48.192  1.00  0.00     0.080 A 
HETATM    8  C12 UNL     1      31.592   6.826  47.644  1.00  0.00     0.050 A 
HETATM    9  N4  UNL     1      31.797   8.220  47.513  1.00  0.00    -0.334 N 
HETATM   10  H19 UNL     1      32.633   8.690  47.104  1.00  0.00     0.168 HD
ENDROOT
BRANCH   1  11
HETATM   11  N1  UNL     1      27.195   7.717  49.706  1.00  0.00    -0.362 N 
HETATM   12  H11 UNL     1      26.851   7.662  50.687  1.00  0.00     0.162 HD
BRANCH  11  13
HETATM   13  C2  UNL     1      26.825   6.813  48.625  1.00  0.00     0.102 C 
HETATM   14  C1  UNL     1      25.867   7.446  47.661  1.00  0.00     0.036 C 
BRANCH  13  15
HETATM   15  C3  UNL     1      26.434   5.488  49.108  1.00  0.00    -0.002 C 
HETATM   16  C4  UNL     1      27.097   4.344  49.057  1.00  0.00    -0.002 C 
BRANCH  16  17
HETATM   17  C5  UNL     1      26.488   3.143  49.615  1.00  0.00    -0.002 C 
HETATM   18  C6  UNL     1      26.525   2.930  50.922  1.00  0.00     0.004 C 
BRANCH  18  19
HETATM   19  C7  UNL     1      25.910   1.709  51.519  1.00  0.00     0.249 C 
HETATM   20  F1  UNL     1      26.754   0.643  51.354  1.00  0.00    -0.251 F 
ENDBRANCH  18  19
ENDBRANCH  16  17
ENDBRANCH  13  15
ENDBRANCH  11  13
ENDBRANCH   1  11
BRANCH   8  21
HETATM   21  C13 UNL     1      32.588   5.866  47.195  1.00  0.00    -0.009 A 
HETATM   22  C14 UNL     1      32.463   5.199  46.005  1.00  0.00     0.016 A 
HETATM   23  C15 UNL     1      33.417   4.291  45.595  1.00  0.00     0.037 A 
HETATM   24  C16 UNL     1      34.539   3.999  46.343  1.00  0.00     0.065 A 
HETATM   25  C17 UNL     1      34.696   4.649  47.542  1.00  0.00     0.037 A 
HETATM   26  C18 UNL     1      33.719   5.549  47.915  1.00  0.00     0.016 A 
BRANCH  24  27
HETATM   27  O1  UNL     1      35.476   3.079  45.895  1.00  0.00    -0.361 OA
HETATM   28  H16 UNL     1      35.285   2.086  45.808  1.00  0.00     0.217 HD
ENDBRANCH  24  27
ENDBRANCH   8  21
TORSDOF 7
ENDMDL
MODEL 9
REMARK VINA RESULT:      -7.1      3.914      6.170
REMARK  7 active torsions:
REMARK  status: ('A' for Active; 'I' for Inactive)
REMARK    1  A    between atoms: C2_2  and  C3_3 
REMARK    2  A    between atoms: C2_2  and  N1_9 
REMARK    3  A    between atoms: C4_4  and  C5_5 
REMARK    4  A    between atoms: C6_6  and  C7_7 
REMARK    5  A    between atoms: N1_9  and  C8_10 
REMARK    6  A    between atoms: C12_17  and  C13_18 
REMARK    7  A    between atoms: C16_21  and  O1_22 
ROOT
HETATM    1  C8  UNL     1      23.711   1.705  51.679  1.00  0.00     0.165 A 
HETATM    2  N2  UNL     1      24.270   0.783  52.436  1.00  0.00    -0.218 NA
HETATM    3  C9  UNL     1      25.723   0.792  52.527  1.00  0.00     0.238 A 
HETATM    4  N3  UNL     1      26.707   1.489  52.051  1.00  0.00    -0.218 NA
HETATM    5  C10 UNL     1      26.517   2.610  51.165  1.00  0.00     0.169 A 
HETATM    6  S1  UNL     1      24.810   2.947  50.787  1.00  0.00    -0.055 SA
HETATM    7  C11 UNL     1      24.954   4.278  49.759  1.00  0.00     0.080 A 
HETATM    8  C12 UNL     1      26.258   4.494  49.679  1.00  0.00     0.050 A 
HETATM    9  N4  UNL     1      27.110   3.632  50.409  1.00  0.00    -0.334 N 
HETATM   10  H19 UNL     1      28.151   3.673  50.448  1.00  0.00     0.168 HD
ENDROOT
BRANCH   1  11
HETATM   11  N1  UNL     1      22.354   1.986  51.368  1.00  0.00    -0.362 N 
HETATM   12  H11 UNL     1      21.833   2.798  51.757  1.00  0.00     0.162 HD
BRANCH  11  13
HETATM   13  C2  UNL     1      21.816   0.994  50.446  1.00  0.00     0.102 C 
HETATM   14  C1  UNL     1      21.703   1.522  49.048  1.00  0.00     0.036 C 
BRANCH  13  15
HETATM   15  C3  UNL     1      20.611   0.343  50.962  1.00  0.00    -0.002 C 
HETATM   16  C4  UNL     1      19.342   0.691  50.822  1.00  0.00    -0.002 C 
BRANCH  16  17
HETATM   17  C5  UNL     1      18.307  -0.130  51.439  1.00  0.00    -0.002 C 
HETATM   18  C6  UNL     1      18.530  -0.702  52.612  1.00  0.00     0.004 C 
BRANCH  18  19
HETATM   19  C7  UNL     1      17.489  -1.547  53.266  1.00  0.00     0.249 C 
HETATM   20  F1  UNL     1      18.092  -2.468  54.083  1.00  0.00    -0.251 F 
ENDBRANCH  18  19
ENDBRANCH  16  17
ENDBRANCH  13  15
ENDBRANCH  11  13
ENDBRANCH   1  11
BRANCH   8  21
HETATM   21  C13 UNL     1      26.788   5.580  48.870  1.00  0.00    -0.009 A 
HETATM   22  C14 UNL     1      28.106   5.629  48.499  1.00  0.00     0.016 A 
HETATM   23  C15 UNL     1      28.591   6.667  47.731  1.00  0.00     0.037 A 
HETATM   24  C16 UNL     1      27.796   7.706  47.294  1.00  0.00     0.065 A 
HETATM   25  C17 UNL     1      26.470   7.689  47.647  1.00  0.00     0.037 A 
HETATM   26  C18 UNL     1      26.025   6.634  48.416  1.00  0.00     0.016 A 
BRANCH  24  27
HETATM   27  O1  UNL     1      28.323   8.732  46.523  1.00  0.00    -0.361 OA
HETATM   28  H16 UNL     1      28.407   8.683  45.513  1.00  0.00     0.217 HD
ENDBRANCH  24  27
ENDBRANCH   8  21
TORSDOF 7
ENDMDL
