MODEL 1
REMARK VINA RESULT:      -8.2      0.000      0.000
REMARK  5 active torsions:
REMARK  status: ('A' for Active; 'I' for Inactive)
REMARK    1  A    between atoms: C3_3  and  N1_5 
REMARK    2  A    between atoms: N1_5  and  C4_6 
REMARK    3  A    between atoms: C6_9  and  N3_10 
REMARK    4  A    between atoms: N3_10  and  C7_11 
REMARK    5  A    between atoms: C7_11  and  C8_12 
ROOT
HETATM    1  C4  UNL     1      26.575   0.040  54.719  1.00  0.00     0.124 C 
HETATM    2  N2  UNL     1      25.675  -0.760  55.125  1.00  0.00    -0.267 NA
HETATM    3  C5  UNL     1      24.258  -0.868  54.982  1.00  0.00     0.209 C 
HETATM    4  C6  UNL     1      23.690  -0.232  53.790  1.00  0.00     0.046 C 
HETATM    5  C13 UNL     1      24.056   0.754  52.981  1.00  0.00     0.068 C 
HETATM    6  C14 UNL     1      23.209   1.111  51.873  1.00  0.00     0.101 C 
HETATM    7  N5  UNL     1      22.551   1.395  50.979  1.00  0.00    -0.191 NA
HETATM    8  C15 UNL     1      25.285   1.511  53.148  1.00  0.00     0.028 C 
HETATM    9  C16 UNL     1      26.369   1.218  53.887  1.00  0.00     0.052 C 
ENDROOT
BRANCH   4  10
HETATM   10  N3  UNL     1      22.439  -0.833  53.430  1.00  0.00    -0.385 N 
HETATM   11  H8  UNL     1      22.416  -0.892  52.385  1.00  0.00     0.159 HD
BRANCH  10  12
HETATM   12  C7  UNL     1      21.344  -1.307  54.251  1.00  0.00     0.178 C 
BRANCH  12  13
HETATM   13  C8  UNL     1      20.027  -1.106  53.561  1.00  0.00     0.052 A 
HETATM   14  C9  UNL     1      19.798  -0.091  52.647  1.00  0.00     0.032 A 
HETATM   15  C10 UNL     1      18.550   0.007  52.068  1.00  0.00     0.046 A 
HETATM   16  C11 UNL     1      17.530  -0.867  52.369  1.00  0.00     0.133 A 
HETATM   17  F2  UNL     1      16.286  -0.808  51.824  1.00  0.00    -0.205 F 
HETATM   18  C12 UNL     1      17.820  -1.863  53.293  1.00  0.00     0.159 A 
HETATM   19  N4  UNL     1      19.029  -1.955  53.850  1.00  0.00    -0.261 NA
ENDBRANCH  12  13
ENDBRANCH  10  12
ENDBRANCH   4  10
BRANCH   1  20
HETATM   20  N1  UNL     1      27.900  -0.227  55.102  1.00  0.00    -0.318 N 
HETATM   21  H5  UNL     1      28.050  -0.870  55.899  1.00  0.00     0.169 HD
BRANCH  20  22
HETATM   22  C3  UNL     1      28.992   0.369  54.414  1.00  0.00     0.185 C 
HETATM   23  C2  UNL     1      29.701  -0.364  53.573  1.00  0.00     0.030 C 
HETATM   24  C1  UNL     1      29.406  -1.798  53.312  1.00  0.00     0.041 C 
HETATM   25  F1  UNL     1      29.296   1.671  54.622  1.00  0.00    -0.186 F 
ENDBRANCH  20  22
ENDBRANCH   1  20
TORSDOF 5
ENDMDL
MODEL 2
REMARK VINA RESULT:      -8.1      4.582      7.617
REMARK  5 active torsions:
REMARK  status: ('A' for Active; 'I' for Inactive)
REMARK    1  A    between atoms: C3_3  and  N1_5 
REMARK    2  A    between atoms: N1_5  and  C4_6 
REMARK    3  A    between atoms: C6_9  and  N3_10 
REMARK    4  A    between atoms: N3_10  and  C7_11 
REMARK    5  A    between atoms: C7_11  and  C8_12 
ROOT
HETATM    1  C4  UNL     1      26.509   0.432  53.351  1.00  0.00     0.124 C 
HETATM    2  N2  UNL     1      27.101   1.072  52.426  1.00  0.00    -0.267 NA
HETATM    3  C5  UNL     1      26.710   1.977  51.392  1.00  0.00     0.209 C 
HETATM    4  C6  UNL     1      25.470   2.720  51.634  1.00  0.00     0.046 C 
HETATM    5  C13 UNL     1      24.383   2.527  52.371  1.00  0.00     0.068 C 
HETATM    6  C14 UNL     1      23.333   3.513  52.353  1.00  0.00     0.101 C 
HETATM    7  N5  UNL     1      22.498   4.297  52.360  1.00  0.00    -0.191 NA
HETATM    8  C15 UNL     1      24.182   1.359  53.211  1.00  0.00     0.028 C 
HETATM    9  C16 UNL     1      25.081   0.455  53.637  1.00  0.00     0.052 C 
ENDROOT
BRANCH   4  10
HETATM   10  N3  UNL     1      25.445   3.943  50.887  1.00  0.00    -0.385 N 
HETATM   11  H8  UNL     1      25.487   4.727  51.580  1.00  0.00     0.159 HD
BRANCH  10  12
HETATM   12  C7  UNL     1      25.378   4.180  49.460  1.00  0.00     0.178 C 
BRANCH  12  13
HETATM   13  C8  UNL     1      26.496   5.074  49.009  1.00  0.00     0.052 A 
HETATM   14  C9  UNL     1      26.351   6.442  48.843  1.00  0.00     0.032 A 
HETATM   15  C10 UNL     1      27.441   7.174  48.423  1.00  0.00     0.046 A 
HETATM   16  C11 UNL     1      28.661   6.594  48.164  1.00  0.00     0.133 A 
HETATM   17  F2  UNL     1      29.761   7.277  47.748  1.00  0.00    -0.205 F 
HETATM   18  C12 UNL     1      28.744   5.219  48.347  1.00  0.00     0.159 A 
HETATM   19  N4  UNL     1      27.687   4.513  48.754  1.00  0.00    -0.261 NA
ENDBRANCH  12  13
ENDBRANCH  10  12
ENDBRANCH   4  10
BRANCH   1  20
HETATM   20  N1  UNL     1      27.297  -0.381  54.183  1.00  0.00    -0.318 N 
HETATM   21  H5  UNL     1      26.835  -1.178  54.654  1.00  0.00     0.169 HD
BRANCH  20  22
HETATM   22  C3  UNL     1      28.681  -0.112  54.365  1.00  0.00     0.185 C 
HETATM   23  C2  UNL     1      29.571  -0.962  53.882  1.00  0.00     0.030 C 
HETATM   24  C1  UNL     1      29.188  -2.198  53.150  1.00  0.00     0.041 C 
HETATM   25  F1  UNL     1      29.075   1.001  55.025  1.00  0.00    -0.186 F 
ENDBRANCH  20  22
ENDBRANCH   1  20
TORSDOF 5
ENDMDL
MODEL 3
REMARK VINA RESULT:      -8.0      4.200      7.076
REMARK  5 active torsions:
REMARK  status: ('A' for Active; 'I' for Inactive)
REMARK    1  A    between atoms: C3_3  and  N1_5 
REMARK    2  A    between atoms: N1_5  and  C4_6 
REMARK    3  A    between atoms: C6_9  and  N3_10 
REMARK    4  A    between atoms: N3_10  and  C7_11 
REMARK    5  A    between atoms: C7_11  and  C8_12 
ROOT
HETATM    1  C4  UNL     1      26.639   0.210  53.564  1.00  0.00     0.124 C 
HETATM    2  N2  UNL     1      27.105   1.052  52.734  1.00  0.00    -0.267 NA
HETATM    3  C5  UNL     1      26.569   1.872  51.694  1.00  0.00     0.209 C 
HETATM    4  C6  UNL     1      25.149   2.212  51.822  1.00  0.00     0.046 C 
HETATM    5  C13 UNL     1      24.099   1.668  52.426  1.00  0.00     0.068 C 
HETATM    6  C14 UNL     1      22.815   2.311  52.325  1.00  0.00     0.101 C 
HETATM    7  N5  UNL     1      21.790   2.821  52.266  1.00  0.00    -0.191 NA
HETATM    8  C15 UNL     1      24.167   0.439  53.198  1.00  0.00     0.028 C 
HETATM    9  C16 UNL     1      25.245  -0.195  53.690  1.00  0.00     0.052 C 
ENDROOT
BRANCH   4  10
HETATM   10  N3  UNL     1      24.841   3.422  51.119  1.00  0.00    -0.385 N 
HETATM   11  H8  UNL     1      24.685   4.165  51.840  1.00  0.00     0.159 HD
BRANCH  10  12
HETATM   12  C7  UNL     1      24.736   3.693  49.701  1.00  0.00     0.178 C 
BRANCH  12  13
HETATM   13  C8  UNL     1      25.805   4.648  49.254  1.00  0.00     0.052 A 
HETATM   14  C9  UNL     1      27.098   4.251  48.956  1.00  0.00     0.032 A 
HETATM   15  C10 UNL     1      28.006   5.207  48.554  1.00  0.00     0.046 A 
HETATM   16  C11 UNL     1      27.670   6.537  48.440  1.00  0.00     0.133 A 
HETATM   17  F2  UNL     1      28.532   7.513  48.048  1.00  0.00    -0.205 F 
HETATM   18  C12 UNL     1      26.360   6.874  48.753  1.00  0.00     0.159 A 
HETATM   19  N4  UNL     1      25.484   5.945  49.142  1.00  0.00    -0.261 NA
ENDBRANCH  12  13
ENDBRANCH  10  12
ENDBRANCH   4  10
BRANCH   1  20
HETATM   20  N1  UNL     1      27.546  -0.395  54.450  1.00  0.00    -0.318 N 
HETATM   21  H5  UNL     1      27.165  -1.049  55.156  1.00  0.00     0.169 HD
BRANCH  20  22
HETATM   22  C3  UNL     1      28.937  -0.114  54.374  1.00  0.00     0.185 C 
HETATM   23  C2  UNL     1      29.741  -0.993  53.802  1.00  0.00     0.030 C 
HETATM   24  C1  UNL     1      29.253  -2.275  53.229  1.00  0.00     0.041 C 
HETATM   25  F1  UNL     1      29.425   1.040  54.883  1.00  0.00    -0.186 F 
ENDBRANCH  20  22
ENDBRANCH   1  20
TORSDOF 5
ENDMDL
MODEL 4
REMARK VINA RESULT:      -7.9      4.707      7.900
REMARK  5 active torsions:
REMARK  status: ('A' for Active; 'I' for Inactive)
REMARK    1  A    between atoms: C3_3  and  N1_5 
REMARK    2  A    between atoms: N1_5  and  C4_6 
REMARK    3  A    between atoms: C6_9  and  N3_10 
REMARK    4  A    between atoms: N3_10  and  C7_11 
REMARK    5  A    between atoms: C7_11  and  C8_12 
ROOT
HETATM    1  C4  UNL     1      26.242   0.226  52.949  1.00  0.00     0.124 C 
HETATM    2  N2  UNL     1      26.863   0.849  52.032  1.00  0.00    -0.267 NA
HETATM    3  C5  UNL     1      26.551   1.891  51.107  1.00  0.00     0.209 C 
HETATM    4  C6  UNL     1      25.465   2.791  51.507  1.00  0.00     0.046 C 
HETATM    5  C13 UNL     1      24.415   2.702  52.313  1.00  0.00     0.068 C 
HETATM    6  C14 UNL     1      23.537   3.835  52.458  1.00  0.00     0.101 C 
HETATM    7  N5  UNL     1      22.840   4.733  52.594  1.00  0.00    -0.191 NA
HETATM    8  C15 UNL     1      24.088   1.508  53.073  1.00  0.00     0.028 C 
HETATM    9  C16 UNL     1      24.858   0.442  53.352  1.00  0.00     0.052 C 
ENDROOT
BRANCH   4  10
HETATM   10  N3  UNL     1      25.585   4.065  50.861  1.00  0.00    -0.385 N 
HETATM   11  H8  UNL     1      25.790   4.770  51.608  1.00  0.00     0.159 HD
BRANCH  10  12
HETATM   12  C7  UNL     1      25.467   4.435  49.466  1.00  0.00     0.178 C 
BRANCH  12  13
HETATM   13  C8  UNL     1      26.575   5.362  49.059  1.00  0.00     0.052 A 
HETATM   14  C9  UNL     1      27.799   4.918  48.587  1.00  0.00     0.032 A 
HETATM   15  C10 UNL     1      28.751   5.852  48.240  1.00  0.00     0.046 A 
HETATM   16  C11 UNL     1      28.526   7.206  48.347  1.00  0.00     0.133 A 
HETATM   17  F2  UNL     1      29.435   8.162  48.017  1.00  0.00    -0.205 F 
HETATM   18  C12 UNL     1      27.280   7.590  48.827  1.00  0.00     0.159 A 
HETATM   19  N4  UNL     1      26.361   6.682  49.162  1.00  0.00    -0.261 NA
ENDBRANCH  12  13
ENDBRANCH  10  12
ENDBRANCH   4  10
BRANCH   1  20
HETATM   20  N1  UNL     1      26.945  -0.769  53.648  1.00  0.00    -0.318 N 
HETATM   21  H5  UNL     1      26.936  -0.729  54.681  1.00  0.00     0.169 HD
BRANCH  20  22
HETATM   22  C3  UNL     1      27.644  -1.793  52.951  1.00  0.00     0.185 C 
HETATM   23  C2  UNL     1      28.962  -1.846  53.036  1.00  0.00     0.030 C 
HETATM   24  C1  UNL     1      29.755  -0.874  53.835  1.00  0.00     0.041 C 
HETATM   25  F1  UNL     1      26.962  -2.698  52.212  1.00  0.00    -0.186 F 
ENDBRANCH  20  22
ENDBRANCH   1  20
TORSDOF 5
ENDMDL
MODEL 5
REMARK VINA RESULT:      -7.9      1.592      8.380
REMARK  5 active torsions:
REMARK  status: ('A' for Active; 'I' for Inactive)
REMARK    1  A    between atoms: C3_3  and  N1_5 
REMARK    2  A    between atoms: N1_5  and  C4_6 
REMARK    3  A    between atoms: C6_9  and  N3_10 
REMARK    4  A    between atoms: N3_10  and  C7_11 
REMARK    5  A    between atoms: C7_11  and  C8_12 
ROOT
HETATM    1  C4  UNL     1      20.069  -0.447  53.107  1.00  0.00     0.124 C 
HETATM    2  N2  UNL     1      21.078  -0.929  53.709  1.00  0.00    -0.267 NA
HETATM    3  C5  UNL     1      22.486  -0.979  53.474  1.00  0.00     0.209 C 
HETATM    4  C6  UNL     1      23.025   0.084  52.622  1.00  0.00     0.046 C 
HETATM    5  C13 UNL     1      22.534   0.880  51.680  1.00  0.00     0.068 C 
HETATM    6  C14 UNL     1      23.399   1.837  51.041  1.00  0.00     0.101 C 
HETATM    7  N5  UNL     1      24.073   2.614  50.535  1.00  0.00    -0.191 NA
HETATM    8  C15 UNL     1      21.148   0.843  51.245  1.00  0.00     0.028 C 
HETATM    9  C16 UNL     1      20.085   0.280  51.844  1.00  0.00     0.052 C 
ENDROOT
BRANCH   4  10
HETATM   10  N3  UNL     1      24.418   0.300  52.883  1.00  0.00    -0.385 N 
HETATM   11  H8  UNL     1      24.905   0.320  51.956  1.00  0.00     0.159 HD
BRANCH  10  12
HETATM   12  C7  UNL     1      25.132   0.473  54.131  1.00  0.00     0.178 C 
BRANCH  12  13
HETATM   13  C8  UNL     1      26.561   0.032  54.001  1.00  0.00     0.052 A 
HETATM   14  C9  UNL     1      26.980  -0.911  53.077  1.00  0.00     0.032 A 
HETATM   15  C10 UNL     1      28.317  -1.248  53.038  1.00  0.00     0.046 A 
HETATM   16  C11 UNL     1      29.242  -0.681  53.884  1.00  0.00     0.133 A 
HETATM   17  F2  UNL     1      30.568  -0.983  53.882  1.00  0.00    -0.205 F 
HETATM   18  C12 UNL     1      28.761   0.257  54.789  1.00  0.00     0.159 A 
HETATM   19  N4  UNL     1      27.466   0.581  54.823  1.00  0.00    -0.261 NA
ENDBRANCH  12  13
ENDBRANCH  10  12
ENDBRANCH   4  10
BRANCH   1  20
HETATM   20  N1  UNL     1      18.810  -0.627  53.705  1.00  0.00    -0.318 N 
HETATM   21  H5  UNL     1      18.517   0.058  54.423  1.00  0.00     0.169 HD
BRANCH  20  22
HETATM   22  C3  UNL     1      17.974  -1.715  53.332  1.00  0.00     0.185 C 
HETATM   23  C2  UNL     1      16.855  -1.470  52.672  1.00  0.00     0.030 C 
HETATM   24  C1  UNL     1      16.426  -0.096  52.299  1.00  0.00     0.041 C 
HETATM   25  F1  UNL     1      18.326  -2.981  53.651  1.00  0.00    -0.186 F 
ENDBRANCH  20  22
ENDBRANCH   1  20
TORSDOF 5
ENDMDL
MODEL 6
REMARK VINA RESULT:      -7.8      3.674      6.116
REMARK  5 active torsions:
REMARK  status: ('A' for Active; 'I' for Inactive)
REMARK    1  A    between atoms: C3_3  and  N1_5 
REMARK    2  A    between atoms: N1_5  and  C4_6 
REMARK    3  A    between atoms: C6_9  and  N3_10 
REMARK    4  A    between atoms: N3_10  and  C7_11 
REMARK    5  A    between atoms: C7_11  and  C8_12 
ROOT
HETATM    1  C4  UNL     1      26.565   0.113  53.966  1.00  0.00     0.124 C 
HETATM    2  N2  UNL     1      26.697   1.060  53.130  1.00  0.00    -0.267 NA
HETATM    3  C5  UNL     1      25.866   1.690  52.153  1.00  0.00     0.209 C 
HETATM    4  C6  UNL     1      24.423   1.590  52.388  1.00  0.00     0.046 C 
HETATM    5  C13 UNL     1      23.630   0.755  53.047  1.00  0.00     0.068 C 
HETATM    6  C14 UNL     1      22.209   0.987  53.053  1.00  0.00     0.101 C 
HETATM    7  N5  UNL     1      21.078   1.168  53.079  1.00  0.00    -0.191 NA
HETATM    8  C15 UNL     1      24.117  -0.403  53.778  1.00  0.00     0.028 C 
HETATM    9  C16 UNL     1      25.368  -0.690  54.176  1.00  0.00     0.052 C 
ENDROOT
BRANCH   4  10
HETATM   10  N3  UNL     1      23.719   2.658  51.742  1.00  0.00    -0.385 N 
HETATM   11  H8  UNL     1      23.141   3.132  52.475  1.00  0.00     0.159 HD
BRANCH  10  12
HETATM   12  C7  UNL     1      23.721   3.096  50.362  1.00  0.00     0.178 C 
BRANCH  12  13
HETATM   13  C8  UNL     1      24.449   4.401  50.211  1.00  0.00     0.052 A 
HETATM   14  C9  UNL     1      25.532   4.570  49.365  1.00  0.00     0.032 A 
HETATM   15  C10 UNL     1      26.131   5.810  49.299  1.00  0.00     0.046 A 
HETATM   16  C11 UNL     1      25.689   6.879  50.045  1.00  0.00     0.133 A 
HETATM   17  F2  UNL     1      26.249   8.118  50.012  1.00  0.00    -0.205 F 
HETATM   18  C12 UNL     1      24.600   6.648  50.875  1.00  0.00     0.159 A 
HETATM   19  N4  UNL     1      24.023   5.446  50.935  1.00  0.00    -0.261 NA
ENDBRANCH  12  13
ENDBRANCH  10  12
ENDBRANCH   4  10
BRANCH   1  20
HETATM   20  N1  UNL     1      27.674  -0.201  54.770  1.00  0.00    -0.318 N 
HETATM   21  H5  UNL     1      27.506  -0.762  55.623  1.00  0.00     0.169 HD
BRANCH  20  22
HETATM   22  C3  UNL     1      28.978   0.243  54.418  1.00  0.00     0.185 C 
HETATM   23  C2  UNL     1      29.772  -0.568  53.741  1.00  0.00     0.030 C 
HETATM   24  C1  UNL     1      29.361  -1.936  53.327  1.00  0.00     0.041 C 
HETATM   25  F1  UNL     1      29.394   1.479  54.775  1.00  0.00    -0.186 F 
ENDBRANCH  20  22
ENDBRANCH   1  20
TORSDOF 5
ENDMDL
MODEL 7
REMARK VINA RESULT:      -7.8      1.448      1.686
REMARK  5 active torsions:
REMARK  status: ('A' for Active; 'I' for Inactive)
REMARK    1  A    between atoms: C3_3  and  N1_5 
REMARK    2  A    between atoms: N1_5  and  C4_6 
REMARK    3  A    between atoms: C6_9  and  N3_10 
REMARK    4  A    between atoms: N3_10  and  C7_11 
REMARK    5  A    between atoms: C7_11  and  C8_12 
ROOT
HETATM    1  C4  UNL     1      26.609   0.145  54.515  1.00  0.00     0.124 C 
HETATM    2  N2  UNL     1      25.621  -0.622  54.740  1.00  0.00    -0.267 NA
HETATM    3  C5  UNL     1      24.229  -0.624  54.420  1.00  0.00     0.209 C 
HETATM    4  C6  UNL     1      23.852   0.137  53.226  1.00  0.00     0.046 C 
HETATM    5  C13 UNL     1      24.373   1.156  52.552  1.00  0.00     0.068 C 
HETATM    6  C14 UNL     1      23.692   1.652  51.384  1.00  0.00     0.101 C 
HETATM    7  N5  UNL     1      23.170   2.047  50.444  1.00  0.00    -0.191 NA
HETATM    8  C15 UNL     1      25.611   1.815  52.929  1.00  0.00     0.028 C 
HETATM    9  C16 UNL     1      26.575   1.395  53.767  1.00  0.00     0.052 C 
ENDROOT
BRANCH   4  10
HETATM   10  N3  UNL     1      22.625  -0.350  52.668  1.00  0.00    -0.385 N 
HETATM   11  H8  UNL     1      22.824  -0.620  51.676  1.00  0.00     0.159 HD
BRANCH  10  12
HETATM   12  C7  UNL     1      21.308  -0.490  53.254  1.00  0.00     0.178 C 
BRANCH  12  13
HETATM   13  C8  UNL     1      20.327   0.444  52.607  1.00  0.00     0.052 A 
HETATM   14  C9  UNL     1      20.396   1.821  52.737  1.00  0.00     0.032 A 
HETATM   15  C10 UNL     1      19.445   2.592  52.103  1.00  0.00     0.046 A 
HETATM   16  C11 UNL     1      18.435   2.039  51.349  1.00  0.00     0.133 A 
HETATM   17  F2  UNL     1      17.476   2.759  50.707  1.00  0.00    -0.205 F 
HETATM   18  C12 UNL     1      18.418   0.653  51.257  1.00  0.00     0.159 A 
HETATM   19  N4  UNL     1      19.341  -0.089  51.872  1.00  0.00    -0.261 NA
ENDBRANCH  12  13
ENDBRANCH  10  12
ENDBRANCH   4  10
BRANCH   1  20
HETATM   20  N1  UNL     1      27.858  -0.237  55.031  1.00  0.00    -0.318 N 
HETATM   21  H5  UNL     1      27.867  -0.881  55.842  1.00  0.00     0.169 HD
BRANCH  20  22
HETATM   22  C3  UNL     1      29.064   0.247  54.455  1.00  0.00     0.185 C 
HETATM   23  C2  UNL     1      29.741  -0.532  53.629  1.00  0.00     0.030 C 
HETATM   24  C1  UNL     1      29.294  -1.904  53.271  1.00  0.00     0.041 C 
HETATM   25  F1  UNL     1      29.508   1.489  54.754  1.00  0.00    -0.186 F 
ENDBRANCH  20  22
ENDBRANCH   1  20
TORSDOF 5
ENDMDL
MODEL 8
REMARK VINA RESULT:      -7.8      2.503      8.252
REMARK  5 active torsions:
REMARK  status: ('A' for Active; 'I' for Inactive)
REMARK    1  A    between atoms: C3_3  and  N1_5 
REMARK    2  A    between atoms: N1_5  and  C4_6 
REMARK    3  A    between atoms: C6_9  and  N3_10 
REMARK    4  A    between atoms: N3_10  and  C7_11 
REMARK    5  A    between atoms: C7_11  and  C8_12 
ROOT
HETATM    1  C4  UNL     1      21.434   0.933  50.482  1.00  0.00     0.124 C 
HETATM    2  N2  UNL     1      22.593   1.419  50.667  1.00  0.00    -0.267 NA
HETATM    3  C5  UNL     1      23.473   1.579  51.781  1.00  0.00     0.209 C 
HETATM    4  C6  UNL     1      23.278   0.634  52.884  1.00  0.00     0.046 C 
HETATM    5  C13 UNL     1      22.267  -0.101  53.329  1.00  0.00     0.068 C 
HETATM    6  C14 UNL     1      22.457  -0.940  54.484  1.00  0.00     0.101 C 
HETATM    7  N5  UNL     1      22.600  -1.623  55.393  1.00  0.00    -0.191 NA
HETATM    8  C15 UNL     1      20.952  -0.111  52.712  1.00  0.00     0.028 C 
HETATM    9  C16 UNL     1      20.582   0.328  51.496  1.00  0.00     0.052 C 
ENDROOT
BRANCH   4  10
HETATM   10  N3  UNL     1      24.478   0.482  53.653  1.00  0.00    -0.385 N 
HETATM   11  H8  UNL     1      24.419  -0.446  54.134  1.00  0.00     0.159 HD
BRANCH  10  12
HETATM   12  C7  UNL     1      25.617   1.361  53.815  1.00  0.00     0.178 C 
BRANCH  12  13
HETATM   13  C8  UNL     1      26.902   0.586  53.809  1.00  0.00     0.052 A 
HETATM   14  C9  UNL     1      27.101  -0.544  53.032  1.00  0.00     0.032 A 
HETATM   15  C10 UNL     1      28.320  -1.185  53.100  1.00  0.00     0.046 A 
HETATM   16  C11 UNL     1      29.340  -0.741  53.910  1.00  0.00     0.133 A 
HETATM   17  F2  UNL     1      30.556  -1.341  54.008  1.00  0.00    -0.205 F 
HETATM   18  C12 UNL     1      29.080   0.396  54.665  1.00  0.00     0.159 A 
HETATM   19  N4  UNL     1      27.899   1.014  54.597  1.00  0.00    -0.261 NA
ENDBRANCH  12  13
ENDBRANCH  10  12
ENDBRANCH   4  10
BRANCH   1  20
HETATM   20  N1  UNL     1      20.913   0.978  49.178  1.00  0.00    -0.318 N 
HETATM   21  H5  UNL     1      20.968   0.117  48.607  1.00  0.00     0.169 HD
BRANCH  20  22
HETATM   22  C3  UNL     1      20.331   2.171  48.666  1.00  0.00     0.185 C 
HETATM   23  C2  UNL     1      20.986   2.866  47.752  1.00  0.00     0.030 C 
HETATM   24  C1  UNL     1      22.316   2.454  47.229  1.00  0.00     0.041 C 
HETATM   25  F1  UNL     1      19.124   2.583  49.114  1.00  0.00    -0.186 F 
ENDBRANCH  20  22
ENDBRANCH   1  20
TORSDOF 5
ENDMDL
MODEL 9
REMARK VINA RESULT:      -7.6      2.943      4.633
REMARK  5 active torsions:
REMARK  status: ('A' for Active; 'I' for Inactive)
REMARK    1  A    between atoms: C3_3  and  N1_5 
REMARK    2  A    between atoms: N1_5  and  C4_6 
REMARK    3  A    between atoms: C6_9  and  N3_10 
REMARK    4  A    between atoms: N3_10  and  C7_11 
REMARK    5  A    between atoms: C7_11  and  C8_12 
ROOT
HETATM    1  C4  UNL     1      26.538   0.259  54.137  1.00  0.00     0.124 C 
HETATM    2  N2  UNL     1      26.516   1.453  53.701  1.00  0.00    -0.267 NA
HETATM    3  C5  UNL     1      25.613   2.246  52.929  1.00  0.00     0.209 C 
HETATM    4  C6  UNL     1      24.208   1.832  52.972  1.00  0.00     0.046 C 
HETATM    5  C13 UNL     1      23.566   0.697  53.217  1.00  0.00     0.068 C 
HETATM    6  C14 UNL     1      22.127   0.673  53.164  1.00  0.00     0.101 C 
HETATM    7  N5  UNL     1      20.982   0.644  53.141  1.00  0.00    -0.191 NA
HETATM    8  C15 UNL     1      24.239  -0.549  53.542  1.00  0.00     0.028 C 
HETATM    9  C16 UNL     1      25.508  -0.751  53.936  1.00  0.00     0.052 C 
ENDROOT
BRANCH   4  10
HETATM   10  N3  UNL     1      23.336   2.929  52.673  1.00  0.00    -0.385 N 
HETATM   11  H8  UNL     1      22.430   2.745  53.165  1.00  0.00     0.159 HD
BRANCH  10  12
HETATM   12  C7  UNL     1      23.546   4.114  51.868  1.00  0.00     0.178 C 
BRANCH  12  13
HETATM   13  C8  UNL     1      23.172   3.867  50.436  1.00  0.00     0.052 A 
HETATM   14  C9  UNL     1      23.333   4.813  49.437  1.00  0.00     0.032 A 
HETATM   15  C10 UNL     1      22.957   4.486  48.152  1.00  0.00     0.046 A 
HETATM   16  C11 UNL     1      22.429   3.256  47.831  1.00  0.00     0.133 A 
HETATM   17  F2  UNL     1      22.045   2.891  46.578  1.00  0.00    -0.205 F 
HETATM   18  C12 UNL     1      22.291   2.350  48.875  1.00  0.00     0.159 A 
HETATM   19  N4  UNL     1      22.656   2.670  50.118  1.00  0.00    -0.261 NA
ENDBRANCH  12  13
ENDBRANCH  10  12
ENDBRANCH   4  10
BRANCH   1  20
HETATM   20  N1  UNL     1      27.659  -0.136  54.886  1.00  0.00    -0.318 N 
HETATM   21  H5  UNL     1      27.498  -0.732  55.716  1.00  0.00     0.169 HD
BRANCH  20  22
HETATM   22  C3  UNL     1      28.968   0.274  54.510  1.00  0.00     0.185 C 
HETATM   23  C2  UNL     1      29.704  -0.530  53.763  1.00  0.00     0.030 C 
HETATM   24  C1  UNL     1      29.222  -1.855  53.292  1.00  0.00     0.041 C 
HETATM   25  F1  UNL     1      29.447   1.472  54.917  1.00  0.00    -0.186 F 
ENDBRANCH  20  22
ENDBRANCH   1  20
TORSDOF 5
ENDMDL
