MODEL 1
REMARK VINA RESULT:      -7.5      0.000      0.000
REMARK  8 active torsions:
REMARK  status: ('A' for Active; 'I' for Inactive)
REMARK    1  A    between atoms: C2_2  and  C3_3 
REMARK       I    between atoms: C3_3  and  N1_5 
REMARK    2  A    between atoms: N1_5  and  C4_6 
REMARK    3  A    between atoms: C9_13  and  N4_14 
REMARK    4  A    between atoms: N4_14  and  C10_15 
REMARK    5  A    between atoms: C10_15  and  C11_16 
REMARK    6  A    between atoms: C11_16  and  C12_17 
REMARK    7  A    between atoms: C12_17  and  C13_18 
REMARK    8  A    between atoms: C13_18  and  C14_19 
ROOT
HETATM    1  C4  UNL     1      25.290   0.364  53.611  1.00  0.00     0.035 A 
HETATM    2  C5  UNL     1      24.190  -0.424  53.891  1.00  0.00     0.033 A 
HETATM    3  C6  UNL     1      22.714  -0.473  53.818  1.00  0.00     0.048 A 
HETATM    4  C7  UNL     1      22.556   0.797  53.234  1.00  0.00     0.122 A 
HETATM    5  N2  UNL     1      21.631   1.536  52.838  1.00  0.00    -0.398 NA
HETATM    6  C8  UNL     1      20.761   2.239  52.463  1.00  0.00     0.301 A 
HETATM    7  N3  UNL     1      21.738   3.059  52.165  1.00  0.00    -0.212 NA
HETATM    8  C9  UNL     1      23.101   3.078  52.246  1.00  0.00     0.140 A 
HETATM    9  C16 UNL     1      23.410   1.810  52.835  1.00  0.00     0.052 A 
HETATM   10  C17 UNL     1      24.800   1.534  53.054  1.00  0.00     0.048 A 
ENDROOT
BRANCH   8  11
HETATM   11  N4  UNL     1      24.227   4.009  51.952  1.00  0.00    -0.367 N 
HETATM   12  H8  UNL     1      24.804   4.152  52.772  1.00  0.00     0.161 HD
BRANCH  11  13
HETATM   13  C10 UNL     1      23.723   4.155  50.549  1.00  0.00     0.134 C 
BRANCH  13  14
HETATM   14  C11 UNL     1      23.919   3.378  49.399  1.00  0.00     0.004 C 
BRANCH  14  15
HETATM   15  C12 UNL     1      25.373   3.866  49.471  1.00  0.00     0.022 C 
BRANCH  15  16
HETATM   16  C13 UNL     1      26.630   3.325  49.520  1.00  0.00     0.029 C 
BRANCH  16  17
HETATM   17  C14 UNL     1      27.305   4.569  48.929  1.00  0.00    -0.012 A 
HETATM   18  C15 UNL     1      27.004   5.863  48.642  1.00  0.00     0.125 A 
HETATM   19 BR1  UNL     1      28.716   5.773  48.202  1.00  0.00    -0.167 Br
ENDBRANCH  16  17
ENDBRANCH  15  16
ENDBRANCH  14  15
ENDBRANCH  13  14
ENDBRANCH  11  13
ENDBRANCH   8  11
BRANCH   1  20
HETATM   20  N1  UNL     1      26.378  -0.234  54.009  1.00  0.00    -0.335 N 
HETATM   21  C3  UNL     1      27.501  -0.737  53.269  1.00  0.00     0.178 C 
HETATM   22  O1  UNL     1      26.901  -0.332  52.145  1.00  0.00    -0.172 OA
HETATM   23  H4  UNL     1      26.858  -0.572  54.974  1.00  0.00     0.168 HD
BRANCH  21  24
HETATM   24  C2  UNL     1      28.794  -1.374  53.139  1.00  0.00     0.049 C 
HETATM   25  C1  UNL     1      29.936  -0.821  53.701  1.00  0.00     0.015 C 
ENDBRANCH  21  24
ENDBRANCH   1  20
TORSDOF 8
ENDMDL
MODEL 2
REMARK VINA RESULT:      -6.9      1.799      2.264
REMARK  8 active torsions:
REMARK  status: ('A' for Active; 'I' for Inactive)
REMARK    1  A    between atoms: C2_2  and  C3_3 
REMARK       I    between atoms: C3_3  and  N1_5 
REMARK    2  A    between atoms: N1_5  and  C4_6 
REMARK    3  A    between atoms: C9_13  and  N4_14 
REMARK    4  A    between atoms: N4_14  and  C10_15 
REMARK    5  A    between atoms: C10_15  and  C11_16 
REMARK    6  A    between atoms: C11_16  and  C12_17 
REMARK    7  A    between atoms: C12_17  and  C13_18 
REMARK    8  A    between atoms: C13_18  and  C14_19 
ROOT
HETATM    1  C4  UNL     1      25.176  -0.413  54.331  1.00  0.00     0.035 A 
HETATM    2  C5  UNL     1      24.287  -1.069  55.162  1.00  0.00     0.033 A 
HETATM    3  C6  UNL     1      22.857  -1.395  55.352  1.00  0.00     0.048 A 
HETATM    4  C7  UNL     1      22.404  -0.734  54.196  1.00  0.00     0.122 A 
HETATM    5  N2  UNL     1      21.326  -0.520  53.604  1.00  0.00    -0.398 NA
HETATM    6  C8  UNL     1      20.310  -0.314  53.040  1.00  0.00     0.301 A 
HETATM    7  N3  UNL     1      21.072   0.337  52.195  1.00  0.00    -0.212 NA
HETATM    8  C9  UNL     1      22.398   0.625  52.045  1.00  0.00     0.140 A 
HETATM    9  C16 UNL     1      22.998  -0.006  53.181  1.00  0.00     0.052 A 
HETATM   10  C17 UNL     1      24.421   0.127  53.303  1.00  0.00     0.048 A 
ENDROOT
BRANCH   8  11
HETATM   11  N4  UNL     1      23.279   1.392  51.120  1.00  0.00    -0.367 N 
HETATM   12  H8  UNL     1      24.224   1.447  51.480  1.00  0.00     0.161 HD
BRANCH  11  13
HETATM   13  C10 UNL     1      22.109   1.618  50.213  1.00  0.00     0.134 C 
BRANCH  13  14
HETATM   14  C11 UNL     1      22.007   1.691  48.817  1.00  0.00     0.004 C 
BRANCH  14  15
HETATM   15  C12 UNL     1      23.081   2.784  48.924  1.00  0.00     0.022 C 
BRANCH  15  16
HETATM   16  C13 UNL     1      23.205   4.122  48.659  1.00  0.00     0.029 C 
BRANCH  16  17
HETATM   17  C14 UNL     1      24.619   4.216  49.246  1.00  0.00    -0.012 A 
HETATM   18  C15 UNL     1      25.221   4.370  50.455  1.00  0.00     0.125 A 
HETATM   19 BR1  UNL     1      26.607   4.182  49.370  1.00  0.00    -0.167 Br
ENDBRANCH  16  17
ENDBRANCH  15  16
ENDBRANCH  14  15
ENDBRANCH  13  14
ENDBRANCH  11  13
ENDBRANCH   8  11
BRANCH   1  20
HETATM   20  N1  UNL     1      26.381  -0.487  54.823  1.00  0.00    -0.335 N 
HETATM   21  C3  UNL     1      27.648  -0.093  54.274  1.00  0.00     0.178 C 
HETATM   22  O1  UNL     1      27.010   0.305  53.169  1.00  0.00    -0.172 OA
HETATM   23  H4  UNL     1      26.894  -0.838  55.766  1.00  0.00     0.168 HD
BRANCH  21  24
HETATM   24  C2  UNL     1      29.085   0.076  54.309  1.00  0.00     0.049 C 
HETATM   25  C1  UNL     1      29.922  -0.649  53.472  1.00  0.00     0.015 C 
ENDBRANCH  21  24
ENDBRANCH   1  20
TORSDOF 8
ENDMDL
MODEL 3
REMARK VINA RESULT:      -6.8      3.317      6.279
REMARK  8 active torsions:
REMARK  status: ('A' for Active; 'I' for Inactive)
REMARK    1  A    between atoms: C2_2  and  C3_3 
REMARK       I    between atoms: C3_3  and  N1_5 
REMARK    2  A    between atoms: N1_5  and  C4_6 
REMARK    3  A    between atoms: C9_13  and  N4_14 
REMARK    4  A    between atoms: N4_14  and  C10_15 
REMARK    5  A    between atoms: C10_15  and  C11_16 
REMARK    6  A    between atoms: C11_16  and  C12_17 
REMARK    7  A    between atoms: C12_17  and  C13_18 
REMARK    8  A    between atoms: C13_18  and  C14_19 
ROOT
HETATM    1  C4  UNL     1      20.506   0.283  52.822  1.00  0.00     0.035 A 
HETATM    2  C5  UNL     1      20.501  -0.698  53.795  1.00  0.00     0.033 A 
HETATM    3  C6  UNL     1      21.372  -1.477  54.701  1.00  0.00     0.048 A 
HETATM    4  C7  UNL     1      22.577  -0.873  54.298  1.00  0.00     0.122 A 
HETATM    5  N2  UNL     1      23.794  -0.945  54.566  1.00  0.00    -0.398 NA
HETATM    6  C8  UNL     1      24.945  -1.008  54.815  1.00  0.00     0.301 A 
HETATM    7  N3  UNL     1      25.053  -0.076  53.901  1.00  0.00    -0.212 NA
HETATM    8  C9  UNL     1      24.226   0.628  53.073  1.00  0.00     0.140 A 
HETATM    9  C16 UNL     1      22.931   0.105  53.386  1.00  0.00     0.052 A 
HETATM   10  C17 UNL     1      21.829   0.660  52.657  1.00  0.00     0.048 A 
ENDROOT
BRANCH   8  11
HETATM   11  N4  UNL     1      24.327   1.659  52.002  1.00  0.00    -0.367 N 
HETATM   12  H8  UNL     1      23.412   1.908  51.649  1.00  0.00     0.161 HD
BRANCH  11  13
HETATM   13  C10 UNL     1      25.819   1.635  52.139  1.00  0.00     0.134 C 
BRANCH  13  14
HETATM   14  C11 UNL     1      26.819   2.472  51.625  1.00  0.00     0.004 C 
BRANCH  14  15
HETATM   15  C12 UNL     1      27.546   2.205  52.950  1.00  0.00     0.022 C 
BRANCH  15  16
HETATM   16  C13 UNL     1      28.763   2.472  53.520  1.00  0.00     0.029 C 
BRANCH  16  17
HETATM   17  C14 UNL     1      29.065   1.000  53.824  1.00  0.00    -0.012 A 
HETATM   18  C15 UNL     1      28.625   0.008  54.642  1.00  0.00     0.125 A 
HETATM   19 BR1  UNL     1      29.859  -0.822  53.682  1.00  0.00    -0.167 Br
ENDBRANCH  16  17
ENDBRANCH  15  16
ENDBRANCH  14  15
ENDBRANCH  13  14
ENDBRANCH  11  13
ENDBRANCH   8  11
BRANCH   1  20
HETATM   20  N1  UNL     1      19.297   0.469  52.372  1.00  0.00    -0.335 N 
HETATM   21  C3  UNL     1      18.796   0.573  51.030  1.00  0.00     0.178 C 
HETATM   22  O1  UNL     1      20.046   0.414  50.585  1.00  0.00    -0.172 OA
HETATM   23  H4  UNL     1      18.251   0.608  52.777  1.00  0.00     0.168 HD
BRANCH  21  24
HETATM   24  C2  UNL     1      17.753   0.735  50.039  1.00  0.00     0.049 C 
HETATM   25  C1  UNL     1      16.876  -0.295  49.734  1.00  0.00     0.015 C 
ENDBRANCH  21  24
ENDBRANCH   1  20
TORSDOF 8
ENDMDL
MODEL 4
REMARK VINA RESULT:      -6.6      1.829      2.112
REMARK  8 active torsions:
REMARK  status: ('A' for Active; 'I' for Inactive)
REMARK    1  A    between atoms: C2_2  and  C3_3 
REMARK       I    between atoms: C3_3  and  N1_5 
REMARK    2  A    between atoms: N1_5  and  C4_6 
REMARK    3  A    between atoms: C9_13  and  N4_14 
REMARK    4  A    between atoms: N4_14  and  C10_15 
REMARK    5  A    between atoms: C10_15  and  C11_16 
REMARK    6  A    between atoms: C11_16  and  C12_17 
REMARK    7  A    between atoms: C12_17  and  C13_18 
REMARK    8  A    between atoms: C13_18  and  C14_19 
ROOT
HETATM    1  C4  UNL     1      25.663   1.765  53.750  1.00  0.00     0.035 A 
HETATM    2  C5  UNL     1      24.838   0.701  53.437  1.00  0.00     0.033 A 
HETATM    3  C6  UNL     1      23.519   0.347  52.870  1.00  0.00     0.048 A 
HETATM    4  C7  UNL     1      23.112   1.669  52.614  1.00  0.00     0.122 A 
HETATM    5  N2  UNL     1      22.126   2.267  52.138  1.00  0.00    -0.398 NA
HETATM    6  C8  UNL     1      21.196   2.839  51.689  1.00  0.00     0.301 A 
HETATM    7  N3  UNL     1      21.903   3.911  51.953  1.00  0.00    -0.212 NA
HETATM    8  C9  UNL     1      23.125   4.210  52.482  1.00  0.00     0.140 A 
HETATM    9  C16 UNL     1      23.669   2.922  52.794  1.00  0.00     0.052 A 
HETATM   10  C17 UNL     1      24.976   2.910  53.382  1.00  0.00     0.048 A 
ENDROOT
BRANCH   8  11
HETATM   11  N4  UNL     1      23.931   5.414  52.828  1.00  0.00    -0.367 N 
HETATM   12  H8  UNL     1      24.140   5.442  53.818  1.00  0.00     0.161 HD
BRANCH  11  13
HETATM   13  C10 UNL     1      23.885   5.841  51.392  1.00  0.00     0.134 C 
BRANCH  13  14
HETATM   14  C11 UNL     1      24.101   7.081  50.777  1.00  0.00     0.004 C 
BRANCH  14  15
HETATM   15  C12 UNL     1      25.387   6.443  50.232  1.00  0.00     0.022 C 
BRANCH  15  16
HETATM   16  C13 UNL     1      26.029   6.305  49.030  1.00  0.00     0.029 C 
BRANCH  16  17
HETATM   17  C14 UNL     1      26.771   7.641  49.151  1.00  0.00    -0.012 A 
HETATM   18  C15 UNL     1      27.368   8.562  48.347  1.00  0.00     0.125 A 
HETATM   19 BR1  UNL     1      27.536   9.299  49.947  1.00  0.00    -0.167 Br
ENDBRANCH  16  17
ENDBRANCH  15  16
ENDBRANCH  14  15
ENDBRANCH  13  14
ENDBRANCH  11  13
ENDBRANCH   8  11
BRANCH   1  20
HETATM   20  N1  UNL     1      26.753   1.330  54.317  1.00  0.00    -0.335 N 
HETATM   21  C3  UNL     1      28.035   0.995  53.763  1.00  0.00     0.178 C 
HETATM   22  O1  UNL     1      27.558   1.309  52.554  1.00  0.00    -0.172 OA
HETATM   23  H4  UNL     1      27.126   1.065  55.350  1.00  0.00     0.168 HD
BRANCH  21  24
HETATM   24  C2  UNL     1      29.410   0.551  53.841  1.00  0.00     0.049 C 
HETATM   25  C1  UNL     1      29.773  -0.748  53.517  1.00  0.00     0.015 C 
ENDBRANCH  21  24
ENDBRANCH   1  20
TORSDOF 8
ENDMDL
MODEL 5
REMARK VINA RESULT:      -6.6      2.453      4.595
REMARK  8 active torsions:
REMARK  status: ('A' for Active; 'I' for Inactive)
REMARK    1  A    between atoms: C2_2  and  C3_3 
REMARK       I    between atoms: C3_3  and  N1_5 
REMARK    2  A    between atoms: N1_5  and  C4_6 
REMARK    3  A    between atoms: C9_13  and  N4_14 
REMARK    4  A    between atoms: N4_14  and  C10_15 
REMARK    5  A    between atoms: C10_15  and  C11_16 
REMARK    6  A    between atoms: C11_16  and  C12_17 
REMARK    7  A    between atoms: C12_17  and  C13_18 
REMARK    8  A    between atoms: C13_18  and  C14_19 
ROOT
HETATM    1  C4  UNL     1      26.011   2.624  51.268  1.00  0.00     0.035 A 
HETATM    2  C5  UNL     1      26.716   1.667  51.973  1.00  0.00     0.033 A 
HETATM    3  C6  UNL     1      26.566   0.459  52.812  1.00  0.00     0.048 A 
HETATM    4  C7  UNL     1      25.161   0.419  52.759  1.00  0.00     0.122 A 
HETATM    5  N2  UNL     1      24.229  -0.286  53.197  1.00  0.00    -0.398 NA
HETATM    6  C8  UNL     1      23.343  -0.949  53.607  1.00  0.00     0.301 A 
HETATM    7  N3  UNL     1      22.587  -0.088  52.971  1.00  0.00    -0.212 NA
HETATM    8  C9  UNL     1      22.754   1.027  52.201  1.00  0.00     0.140 A 
HETATM    9  C16 UNL     1      24.176   1.189  52.166  1.00  0.00     0.052 A 
HETATM   10  C17 UNL     1      24.670   2.307  51.416  1.00  0.00     0.048 A 
ENDROOT
BRANCH   8  11
HETATM   11  N4  UNL     1      21.915   2.041  51.502  1.00  0.00    -0.367 N 
HETATM   12  H8  UNL     1      22.043   2.961  51.906  1.00  0.00     0.161 HD
BRANCH  11  13
HETATM   13  C10 UNL     1      21.374   0.963  50.614  1.00  0.00     0.134 C 
BRANCH  13  14
HETATM   14  C11 UNL     1      20.665   1.013  49.407  1.00  0.00     0.004 C 
BRANCH  14  15
HETATM   15  C12 UNL     1      21.806   1.918  48.921  1.00  0.00     0.022 C 
BRANCH  15  16
HETATM   16  C13 UNL     1      22.454   2.205  47.749  1.00  0.00     0.029 C 
BRANCH  16  17
HETATM   17  C14 UNL     1      22.494   3.715  48.014  1.00  0.00    -0.012 A 
HETATM   18  C15 UNL     1      22.051   4.608  48.938  1.00  0.00     0.125 A 
HETATM   19 BR1  UNL     1      22.961   5.642  47.827  1.00  0.00    -0.167 Br
ENDBRANCH  16  17
ENDBRANCH  15  16
ENDBRANCH  14  15
ENDBRANCH  13  14
ENDBRANCH  11  13
ENDBRANCH   8  11
BRANCH   1  20
HETATM   20  N1  UNL     1      26.833   3.501  50.765  1.00  0.00    -0.335 N 
HETATM   21  C3  UNL     1      26.800   4.218  49.521  1.00  0.00     0.178 C 
HETATM   22  O1  UNL     1      25.664   3.581  49.220  1.00  0.00    -0.172 OA
HETATM   23  H4  UNL     1      27.798   4.019  51.042  1.00  0.00     0.168 HD
BRANCH  21  24
HETATM   24  C2  UNL     1      27.306   5.167  48.552  1.00  0.00     0.049 C 
HETATM   25  C1  UNL     1      28.668   5.355  48.363  1.00  0.00     0.015 C 
ENDBRANCH  21  24
ENDBRANCH   1  20
TORSDOF 8
ENDMDL
MODEL 6
REMARK VINA RESULT:      -6.5      2.960      5.520
REMARK  8 active torsions:
REMARK  status: ('A' for Active; 'I' for Inactive)
REMARK    1  A    between atoms: C2_2  and  C3_3 
REMARK       I    between atoms: C3_3  and  N1_5 
REMARK    2  A    between atoms: N1_5  and  C4_6 
REMARK    3  A    between atoms: C9_13  and  N4_14 
REMARK    4  A    between atoms: N4_14  and  C10_15 
REMARK    5  A    between atoms: C10_15  and  C11_16 
REMARK    6  A    between atoms: C11_16  and  C12_17 
REMARK    7  A    between atoms: C12_17  and  C13_18 
REMARK    8  A    between atoms: C13_18  and  C14_19 
ROOT
HETATM    1  C4  UNL     1      23.184  -0.898  53.996  1.00  0.00     0.035 A 
HETATM    2  C5  UNL     1      23.676  -1.144  55.263  1.00  0.00     0.033 A 
HETATM    3  C6  UNL     1      24.890  -1.058  56.104  1.00  0.00     0.048 A 
HETATM    4  C7  UNL     1      25.718  -0.514  55.106  1.00  0.00     0.122 A 
HETATM    5  N2  UNL     1      26.901  -0.135  54.977  1.00  0.00    -0.398 NA
HETATM    6  C8  UNL     1      28.017   0.225  54.848  1.00  0.00     0.301 A 
HETATM    7  N3  UNL     1      27.645   0.489  53.620  1.00  0.00    -0.212 NA
HETATM    8  C9  UNL     1      26.511   0.397  52.866  1.00  0.00     0.140 A 
HETATM    9  C16 UNL     1      25.556  -0.154  53.780  1.00  0.00     0.052 A 
HETATM   10  C17 UNL     1      24.237  -0.375  53.264  1.00  0.00     0.048 A 
ENDROOT
BRANCH   8  11
HETATM   11  N4  UNL     1      26.074   0.652  51.464  1.00  0.00    -0.367 N 
HETATM   12  H8  UNL     1      25.721  -0.194  51.033  1.00  0.00     0.161 HD
BRANCH  11  13
HETATM   13  C10 UNL     1      26.492   2.083  51.608  1.00  0.00     0.134 C 
BRANCH  13  14
HETATM   14  C11 UNL     1      26.594   3.126  50.678  1.00  0.00     0.004 C 
BRANCH  14  15
HETATM   15  C12 UNL     1      25.090   2.908  50.461  1.00  0.00     0.022 C 
BRANCH  15  16
HETATM   16  C13 UNL     1      23.909   3.503  50.818  1.00  0.00     0.029 C 
BRANCH  16  17
HETATM   17  C14 UNL     1      23.057   2.604  49.914  1.00  0.00    -0.012 A 
HETATM   18  C15 UNL     1      22.294   1.483  50.005  1.00  0.00     0.125 A 
HETATM   19 BR1  UNL     1      22.090   1.935  48.306  1.00  0.00    -0.167 Br
ENDBRANCH  16  17
ENDBRANCH  15  16
ENDBRANCH  14  15
ENDBRANCH  13  14
ENDBRANCH  11  13
ENDBRANCH   8  11
BRANCH   1  20
HETATM   20  N1  UNL     1      21.941  -1.284  53.919  1.00  0.00    -0.335 N 
HETATM   21  C3  UNL     1      20.751  -0.565  53.560  1.00  0.00     0.178 C 
HETATM   22  O1  UNL     1      21.501   0.529  53.393  1.00  0.00    -0.172 OA
HETATM   23  H4  UNL     1      21.332  -2.223  54.074  1.00  0.00     0.168 HD
BRANCH  21  24
HETATM   24  C2  UNL     1      19.330  -0.442  53.311  1.00  0.00     0.049 C 
HETATM   25  C1  UNL     1      18.492  -1.548  53.328  1.00  0.00     0.015 C 
ENDBRANCH  21  24
ENDBRANCH   1  20
TORSDOF 8
ENDMDL
MODEL 7
REMARK VINA RESULT:      -6.4      4.312      7.071
REMARK  8 active torsions:
REMARK  status: ('A' for Active; 'I' for Inactive)
REMARK    1  A    between atoms: C2_2  and  C3_3 
REMARK       I    between atoms: C3_3  and  N1_5 
REMARK    2  A    between atoms: N1_5  and  C4_6 
REMARK    3  A    between atoms: C9_13  and  N4_14 
REMARK    4  A    between atoms: N4_14  and  C10_15 
REMARK    5  A    between atoms: C10_15  and  C11_16 
REMARK    6  A    between atoms: C11_16  and  C12_17 
REMARK    7  A    between atoms: C12_17  and  C13_18 
REMARK    8  A    between atoms: C13_18  and  C14_19 
ROOT
HETATM    1  C4  UNL     1      24.605   2.152  52.259  1.00  0.00     0.035 A 
HETATM    2  C5  UNL     1      25.329   1.073  52.729  1.00  0.00     0.033 A 
HETATM    3  C6  UNL     1      25.208  -0.229  53.420  1.00  0.00     0.048 A 
HETATM    4  C7  UNL     1      23.809  -0.187  53.561  1.00  0.00     0.122 A 
HETATM    5  N2  UNL     1      22.896  -0.896  54.033  1.00  0.00    -0.398 NA
HETATM    6  C8  UNL     1      22.028  -1.561  54.478  1.00  0.00     0.301 A 
HETATM    7  N3  UNL     1      21.257  -0.583  54.070  1.00  0.00    -0.212 NA
HETATM    8  C9  UNL     1      21.398   0.617  53.433  1.00  0.00     0.140 A 
HETATM    9  C16 UNL     1      22.810   0.707  53.218  1.00  0.00     0.052 A 
HETATM   10  C17 UNL     1      23.278   1.889  52.554  1.00  0.00     0.048 A 
ENDROOT
BRANCH   8  11
HETATM   11  N4  UNL     1      20.547   1.759  52.996  1.00  0.00    -0.367 N 
HETATM   12  H8  UNL     1      20.937   2.642  53.301  1.00  0.00     0.161 HD
BRANCH  11  13
HETATM   13  C10 UNL     1      19.592   0.790  52.367  1.00  0.00     0.134 C 
BRANCH  13  14
HETATM   14  C11 UNL     1      19.239   0.557  51.031  1.00  0.00     0.004 C 
BRANCH  14  15
HETATM   15  C12 UNL     1      18.182  -0.394  51.609  1.00  0.00     0.022 C 
BRANCH  15  16
HETATM   16  C13 UNL     1      17.943  -1.067  52.778  1.00  0.00     0.029 C 
BRANCH  16  17
HETATM   17  C14 UNL     1      16.420  -1.052  52.602  1.00  0.00    -0.012 A 
HETATM   18  C15 UNL     1      15.390  -0.165  52.631  1.00  0.00     0.125 A 
HETATM   19 BR1  UNL     1      14.571  -1.672  52.195  1.00  0.00    -0.167 Br
ENDBRANCH  16  17
ENDBRANCH  15  16
ENDBRANCH  14  15
ENDBRANCH  13  14
ENDBRANCH  11  13
ENDBRANCH   8  11
BRANCH   1  20
HETATM   20  N1  UNL     1      25.413   3.046  51.760  1.00  0.00    -0.335 N 
HETATM   21  C3  UNL     1      25.443   3.671  50.468  1.00  0.00     0.178 C 
HETATM   22  O1  UNL     1      24.378   2.940  50.124  1.00  0.00    -0.172 OA
HETATM   23  H4  UNL     1      26.317   3.645  52.076  1.00  0.00     0.168 HD
BRANCH  21  24
HETATM   24  C2  UNL     1      25.972   4.582  49.475  1.00  0.00     0.049 C 
HETATM   25  C1  UNL     1      27.245   4.421  48.947  1.00  0.00     0.015 C 
ENDBRANCH  21  24
ENDBRANCH   1  20
TORSDOF 8
ENDMDL
MODEL 8
REMARK VINA RESULT:      -6.4      2.972      5.501
REMARK  8 active torsions:
REMARK  status: ('A' for Active; 'I' for Inactive)
REMARK    1  A    between atoms: C2_2  and  C3_3 
REMARK       I    between atoms: C3_3  and  N1_5 
REMARK    2  A    between atoms: N1_5  and  C4_6 
REMARK    3  A    between atoms: C9_13  and  N4_14 
REMARK    4  A    between atoms: N4_14  and  C10_15 
REMARK    5  A    between atoms: C10_15  and  C11_16 
REMARK    6  A    between atoms: C11_16  and  C12_17 
REMARK    7  A    between atoms: C12_17  and  C13_18 
REMARK    8  A    between atoms: C13_18  and  C14_19 
ROOT
HETATM    1  C4  UNL     1      20.361  -0.480  53.637  1.00  0.00     0.035 A 
HETATM    2  C5  UNL     1      21.177  -1.245  54.448  1.00  0.00     0.033 A 
HETATM    3  C6  UNL     1      22.586  -1.494  54.820  1.00  0.00     0.048 A 
HETATM    4  C7  UNL     1      23.136  -0.527  53.958  1.00  0.00     0.122 A 
HETATM    5  N2  UNL     1      24.260  -0.082  53.649  1.00  0.00    -0.398 NA
HETATM    6  C8  UNL     1      25.320   0.344  53.353  1.00  0.00     0.301 A 
HETATM    7  N3  UNL     1      24.633   1.113  52.545  1.00  0.00    -0.212 NA
HETATM    8  C9  UNL     1      23.323   1.321  52.219  1.00  0.00     0.140 A 
HETATM    9  C16 UNL     1      22.629   0.381  53.046  1.00  0.00     0.052 A 
HETATM   10  C17 UNL     1      21.201   0.359  52.921  1.00  0.00     0.048 A 
ENDROOT
BRANCH   8  11
HETATM   11  N4  UNL     1      22.522   2.157  51.281  1.00  0.00    -0.367 N 
HETATM   12  H8  UNL     1      21.541   2.149  51.532  1.00  0.00     0.161 HD
BRANCH  11  13
HETATM   13  C10 UNL     1      23.771   2.466  50.512  1.00  0.00     0.134 C 
BRANCH  13  14
HETATM   14  C11 UNL     1      23.985   3.176  49.324  1.00  0.00     0.004 C 
BRANCH  14  15
HETATM   15  C12 UNL     1      25.403   3.405  49.866  1.00  0.00     0.022 C 
BRANCH  15  16
HETATM   16  C13 UNL     1      26.606   3.880  49.413  1.00  0.00     0.029 C 
BRANCH  16  17
HETATM   17  C14 UNL     1      26.080   5.302  49.184  1.00  0.00    -0.012 A 
HETATM   18  C15 UNL     1      25.678   6.379  49.910  1.00  0.00     0.125 A 
HETATM   19 BR1  UNL     1      25.552   6.981  48.250  1.00  0.00    -0.167 Br
ENDBRANCH  16  17
ENDBRANCH  15  16
ENDBRANCH  14  15
ENDBRANCH  13  14
ENDBRANCH  11  13
ENDBRANCH   8  11
BRANCH   1  20
HETATM   20  N1  UNL     1      19.118  -0.842  53.787  1.00  0.00    -0.335 N 
HETATM   21  C3  UNL     1      18.031  -0.892  52.851  1.00  0.00     0.178 C 
HETATM   22  O1  UNL     1      18.861  -0.426  51.911  1.00  0.00    -0.172 OA
HETATM   23  H4  UNL     1      18.439  -1.227  54.603  1.00  0.00     0.168 HD
BRANCH  21  24
HETATM   24  C2  UNL     1      16.665  -1.163  52.455  1.00  0.00     0.049 C 
HETATM   25  C1  UNL     1      15.645  -0.253  52.698  1.00  0.00     0.015 C 
ENDBRANCH  21  24
ENDBRANCH   1  20
TORSDOF 8
ENDMDL
MODEL 9
REMARK VINA RESULT:      -6.4      2.603      5.211
REMARK  8 active torsions:
REMARK  status: ('A' for Active; 'I' for Inactive)
REMARK    1  A    between atoms: C2_2  and  C3_3 
REMARK       I    between atoms: C3_3  and  N1_5 
REMARK    2  A    between atoms: N1_5  and  C4_6 
REMARK    3  A    between atoms: C9_13  and  N4_14 
REMARK    4  A    between atoms: N4_14  and  C10_15 
REMARK    5  A    between atoms: C10_15  and  C11_16 
REMARK    6  A    between atoms: C11_16  and  C12_17 
REMARK    7  A    between atoms: C12_17  and  C13_18 
REMARK    8  A    between atoms: C13_18  and  C14_19 
ROOT
HETATM    1  C4  UNL     1      26.263   2.188  51.975  1.00  0.00     0.035 A 
HETATM    2  C5  UNL     1      26.757   2.663  50.776  1.00  0.00     0.033 A 
HETATM    3  C6  UNL     1      26.373   3.333  49.514  1.00  0.00     0.048 A 
HETATM    4  C7  UNL     1      25.007   3.457  49.826  1.00  0.00     0.122 A 
HETATM    5  N2  UNL     1      23.967   3.910  49.306  1.00  0.00    -0.398 NA
HETATM    6  C8  UNL     1      22.980   4.337  48.820  1.00  0.00     0.301 A 
HETATM    7  N3  UNL     1      22.418   3.917  49.926  1.00  0.00    -0.212 NA
HETATM    8  C9  UNL     1      22.799   3.295  51.080  1.00  0.00     0.140 A 
HETATM    9  C16 UNL     1      24.206   3.106  50.898  1.00  0.00     0.052 A 
HETATM   10  C17 UNL     1      24.904   2.457  51.970  1.00  0.00     0.048 A 
ENDROOT
BRANCH   8  11
HETATM   11  N4  UNL     1      22.176   2.773  52.329  1.00  0.00    -0.367 N 
HETATM   12  H8  UNL     1      22.853   2.719  53.080  1.00  0.00     0.161 HD
BRANCH  11  13
HETATM   13  C10 UNL     1      20.871   2.635  51.605  1.00  0.00     0.134 C 
BRANCH  13  14
HETATM   14  C11 UNL     1      19.572   2.372  52.059  1.00  0.00     0.004 C 
BRANCH  14  15
HETATM   15  C12 UNL     1      20.208   1.184  52.797  1.00  0.00     0.022 C 
BRANCH  15  16
HETATM   16  C13 UNL     1      19.984  -0.157  52.955  1.00  0.00     0.029 C 
BRANCH  16  17
HETATM   17  C14 UNL     1      21.348  -0.418  53.607  1.00  0.00    -0.012 A 
HETATM   18  C15 UNL     1      21.854  -0.879  54.781  1.00  0.00     0.125 A 
HETATM   19 BR1  UNL     1      23.319  -0.601  53.827  1.00  0.00    -0.167 Br
ENDBRANCH  16  17
ENDBRANCH  15  16
ENDBRANCH  14  15
ENDBRANCH  13  14
ENDBRANCH  11  13
ENDBRANCH   8  11
BRANCH   1  20
HETATM   20  N1  UNL     1      27.218   1.620  52.656  1.00  0.00    -0.335 N 
HETATM   21  C3  UNL     1      27.565   0.236  52.817  1.00  0.00     0.178 C 
HETATM   22  O1  UNL     1      26.533  -0.082  52.030  1.00  0.00    -0.172 OA
HETATM   23  H4  UNL     1      28.079   1.918  53.324  1.00  0.00     0.168 HD
BRANCH  21  24
HETATM   24  C2  UNL     1      28.370  -0.852  53.331  1.00  0.00     0.049 C 
HETATM   25  C1  UNL     1      29.699  -0.668  53.684  1.00  0.00     0.015 C 
ENDBRANCH  21  24
ENDBRANCH   1  20
TORSDOF 8
ENDMDL
