MODEL 1
REMARK VINA RESULT:      -7.1      0.000      0.000
REMARK  7 active torsions:
REMARK  status: ('A' for Active; 'I' for Inactive)
REMARK    1  A    between atoms: C2_2  and  C3_3 
REMARK       I    between atoms: C3_3  and  N1_5 
REMARK    2  A    between atoms: N1_5  and  C4_6 
REMARK    3  A    between atoms: C10_12  and  C11_13 
REMARK    4  A    between atoms: C11_13  and  C12_14 
REMARK    5  A    between atoms: C12_14  and  C13_15 
REMARK    6  A    between atoms: C13_15  and  C14_16 
REMARK    7  A    between atoms: C14_16  and  C15_17 
ROOT
HETATM    1  C4  UNL     1      25.156  -0.505  53.730  1.00  0.00     0.028 A 
HETATM    2  C5  UNL     1      24.442  -1.081  54.701  1.00  0.00     0.008 A 
HETATM    3  C6  UNL     1      23.053  -0.681  54.462  1.00  0.00     0.023 A 
HETATM    4  C7  UNL     1      21.791  -0.803  54.925  1.00  0.00     0.002 A 
HETATM    5  C8  UNL     1      20.842  -0.020  54.051  1.00  0.00     0.033 A 
HETATM    6  C9  UNL     1      21.519   0.661  52.942  1.00  0.00    -0.019 A 
HETATM    7  C10 UNL     1      22.272   1.199  52.014  1.00  0.00    -0.053 A 
HETATM    8  C16 UNL     1      23.469   0.612  52.558  1.00  0.00     0.055 A 
HETATM    9  C17 UNL     1      24.804   0.375  52.581  1.00  0.00     0.013 A 
ENDROOT
BRANCH   1  10
HETATM   10  N1  UNL     1      26.576  -0.803  53.818  1.00  0.00    -0.328 N 
HETATM   11  C3  UNL     1      27.304   0.225  54.474  1.00  0.00     0.221 C 
HETATM   12  O1  UNL     1      26.864   1.308  54.958  1.00  0.00    -0.273 OA
HETATM   13  H6  UNL     1      27.101  -1.641  53.474  1.00  0.00     0.169 HD
BRANCH  11  14
HETATM   14  C2  UNL     1      28.785   0.155  54.691  1.00  0.00     0.098 C 
HETATM   15  C1  UNL     1      29.343  -0.892  53.751  1.00  0.00     0.014 C 
ENDBRANCH  11  14
ENDBRANCH   1  10
BRANCH   7  16
HETATM   16  C11 UNL     1      21.917   2.077  50.871  1.00  0.00     0.007 C 
BRANCH  16  17
HETATM   17  C12 UNL     1      22.408   1.887  49.689  1.00  0.00     0.000 C 
BRANCH  17  18
HETATM   18  C13 UNL     1      23.458   2.857  49.298  1.00  0.00    -0.003 C 
BRANCH  18  19
HETATM   19  C14 UNL     1      23.718   3.933  50.014  1.00  0.00    -0.016 C 
BRANCH  19  20
HETATM   20  C15 UNL     1      25.003   4.155  50.726  1.00  0.00     0.112 C 
HETATM   21 BR1  UNL     1      26.397   3.316  49.693  1.00  0.00    -0.092 Br
ENDBRANCH  19  20
ENDBRANCH  18  19
ENDBRANCH  17  18
ENDBRANCH  16  17
ENDBRANCH   7  16
TORSDOF 7
ENDMDL
MODEL 2
REMARK VINA RESULT:      -6.7      2.364      4.377
REMARK  7 active torsions:
REMARK  status: ('A' for Active; 'I' for Inactive)
REMARK    1  A    between atoms: C2_2  and  C3_3 
REMARK       I    between atoms: C3_3  and  N1_5 
REMARK    2  A    between atoms: N1_5  and  C4_6 
REMARK    3  A    between atoms: C10_12  and  C11_13 
REMARK    4  A    between atoms: C11_13  and  C12_14 
REMARK    5  A    between atoms: C12_14  and  C13_15 
REMARK    6  A    between atoms: C13_15  and  C14_16 
REMARK    7  A    between atoms: C14_16  and  C15_17 
ROOT
HETATM    1  C4  UNL     1      25.954   0.280  52.564  1.00  0.00     0.028 A 
HETATM    2  C5  UNL     1      25.823   1.393  51.838  1.00  0.00     0.008 A 
HETATM    3  C6  UNL     1      24.414   1.778  51.954  1.00  0.00     0.023 A 
HETATM    4  C7  UNL     1      23.502   2.696  51.571  1.00  0.00     0.002 A 
HETATM    5  C8  UNL     1      22.154   2.364  52.162  1.00  0.00     0.033 A 
HETATM    6  C9  UNL     1      22.177   1.151  52.988  1.00  0.00    -0.019 A 
HETATM    7  C10 UNL     1      22.368   0.059  53.685  1.00  0.00    -0.053 A 
HETATM    8  C16 UNL     1      23.766   0.010  53.341  1.00  0.00     0.055 A 
HETATM    9  C17 UNL     1      25.008  -0.533  53.377  1.00  0.00     0.013 A 
ENDROOT
BRANCH   1  10
HETATM   10  N1  UNL     1      27.310  -0.244  52.558  1.00  0.00    -0.328 N 
HETATM   11  C3  UNL     1      28.089   0.260  53.634  1.00  0.00     0.221 C 
HETATM   12  O1  UNL     1      27.739   1.070  54.541  1.00  0.00    -0.273 OA
HETATM   13  H6  UNL     1      27.760  -0.913  51.891  1.00  0.00     0.169 HD
BRANCH  11  14
HETATM   14  C2  UNL     1      29.520  -0.129  53.848  1.00  0.00     0.098 C 
HETATM   15  C1  UNL     1      29.663  -1.592  53.482  1.00  0.00     0.014 C 
ENDBRANCH  11  14
ENDBRANCH   1  10
BRANCH   7  16
HETATM   16  C11 UNL     1      21.421  -0.750  54.493  1.00  0.00     0.007 C 
BRANCH  16  17
HETATM   17  C12 UNL     1      20.500  -1.473  53.942  1.00  0.00     0.000 C 
BRANCH  17  18
HETATM   18  C13 UNL     1      19.229  -0.756  53.687  1.00  0.00    -0.003 C 
BRANCH  18  19
HETATM   19  C14 UNL     1      18.431  -1.079  52.688  1.00  0.00    -0.016 C 
BRANCH  19  20
HETATM   20  C15 UNL     1      17.731  -0.080  51.840  1.00  0.00     0.112 C 
HETATM   21 BR1  UNL     1      19.043   0.725  50.679  1.00  0.00    -0.092 Br
ENDBRANCH  19  20
ENDBRANCH  18  19
ENDBRANCH  17  18
ENDBRANCH  16  17
ENDBRANCH   7  16
TORSDOF 7
ENDMDL
MODEL 3
REMARK VINA RESULT:      -6.7      2.829      5.606
REMARK  7 active torsions:
REMARK  status: ('A' for Active; 'I' for Inactive)
REMARK    1  A    between atoms: C2_2  and  C3_3 
REMARK       I    between atoms: C3_3  and  N1_5 
REMARK    2  A    between atoms: N1_5  and  C4_6 
REMARK    3  A    between atoms: C10_12  and  C11_13 
REMARK    4  A    between atoms: C11_13  and  C12_14 
REMARK    5  A    between atoms: C12_14  and  C13_15 
REMARK    6  A    between atoms: C13_15  and  C14_16 
REMARK    7  A    between atoms: C14_16  and  C15_17 
ROOT
HETATM    1  C4  UNL     1      25.075   2.732  51.877  1.00  0.00     0.028 A 
HETATM    2  C5  UNL     1      26.268   2.242  51.530  1.00  0.00     0.008 A 
HETATM    3  C6  UNL     1      26.320   0.889  52.089  1.00  0.00     0.023 A 
HETATM    4  C7  UNL     1      27.091  -0.212  52.203  1.00  0.00     0.002 A 
HETATM    5  C8  UNL     1      26.367  -1.271  52.999  1.00  0.00     0.033 A 
HETATM    6  C9  UNL     1      25.034  -0.842  53.437  1.00  0.00    -0.019 A 
HETATM    7  C10 UNL     1      23.879  -0.308  53.747  1.00  0.00    -0.053 A 
HETATM    8  C16 UNL     1      24.195   0.923  53.068  1.00  0.00     0.055 A 
HETATM    9  C17 UNL     1      23.926   2.184  52.651  1.00  0.00     0.013 A 
ENDROOT
BRANCH   1  10
HETATM   10  N1  UNL     1      24.857   4.086  51.396  1.00  0.00    -0.328 N 
HETATM   11  C3  UNL     1      24.308   4.111  50.085  1.00  0.00     0.221 C 
HETATM   12  O1  UNL     1      24.011   3.130  49.343  1.00  0.00    -0.273 OA
HETATM   13  H6  UNL     1      25.044   4.998  51.872  1.00  0.00     0.169 HD
BRANCH  11  14
HETATM   14  C2  UNL     1      23.990   5.386  49.366  1.00  0.00     0.098 C 
HETATM   15  C1  UNL     1      25.284   5.940  48.809  1.00  0.00     0.014 C 
ENDBRANCH  11  14
ENDBRANCH   1  10
BRANCH   7  16
HETATM   16  C11 UNL     1      22.736  -0.857  54.520  1.00  0.00     0.007 C 
BRANCH  16  17
HETATM   17  C12 UNL     1      21.616  -1.169  53.950  1.00  0.00     0.000 C 
BRANCH  17  18
HETATM   18  C13 UNL     1      20.607  -0.085  53.947  1.00  0.00    -0.003 C 
BRANCH  18  19
HETATM   19  C14 UNL     1      19.947   0.253  52.857  1.00  0.00    -0.016 C 
BRANCH  19  20
HETATM   20  C15 UNL     1      20.320   1.405  51.995  1.00  0.00     0.112 C 
HETATM   21 BR1  UNL     1      21.302   0.715  50.488  1.00  0.00    -0.092 Br
ENDBRANCH  19  20
ENDBRANCH  18  19
ENDBRANCH  17  18
ENDBRANCH  16  17
ENDBRANCH   7  16
TORSDOF 7
ENDMDL
MODEL 4
REMARK VINA RESULT:      -6.7      2.268      4.497
REMARK  7 active torsions:
REMARK  status: ('A' for Active; 'I' for Inactive)
REMARK    1  A    between atoms: C2_2  and  C3_3 
REMARK       I    between atoms: C3_3  and  N1_5 
REMARK    2  A    between atoms: N1_5  and  C4_6 
REMARK    3  A    between atoms: C10_12  and  C11_13 
REMARK    4  A    between atoms: C11_13  and  C12_14 
REMARK    5  A    between atoms: C12_14  and  C13_15 
REMARK    6  A    between atoms: C13_15  and  C14_16 
REMARK    7  A    between atoms: C14_16  and  C15_17 
ROOT
HETATM    1  C4  UNL     1      25.942   1.918  52.718  1.00  0.00     0.028 A 
HETATM    2  C5  UNL     1      26.516   2.690  51.791  1.00  0.00     0.008 A 
HETATM    3  C6  UNL     1      25.492   2.907  50.766  1.00  0.00     0.023 A 
HETATM    4  C7  UNL     1      25.245   3.513  49.587  1.00  0.00     0.002 A 
HETATM    5  C8  UNL     1      23.829   3.232  49.146  1.00  0.00     0.033 A 
HETATM    6  C9  UNL     1      23.095   2.386  50.094  1.00  0.00    -0.019 A 
HETATM    7  C10 UNL     1      22.587   1.631  51.036  1.00  0.00    -0.053 A 
HETATM    8  C16 UNL     1      23.811   1.648  51.796  1.00  0.00     0.055 A 
HETATM    9  C17 UNL     1      24.587   1.315  52.857  1.00  0.00     0.013 A 
ENDROOT
BRANCH   1  10
HETATM   10  N1  UNL     1      26.832   1.602  53.823  1.00  0.00    -0.328 N 
HETATM   11  C3  UNL     1      27.555   0.398  53.608  1.00  0.00     0.221 C 
HETATM   12  O1  UNL     1      27.501  -0.378  52.610  1.00  0.00    -0.273 OA
HETATM   13  H6  UNL     1      26.998   2.128  54.713  1.00  0.00     0.169 HD
BRANCH  11  14
HETATM   14  C2  UNL     1      28.538  -0.143  54.600  1.00  0.00     0.098 C 
HETATM   15  C1  UNL     1      29.709  -0.714  53.829  1.00  0.00     0.014 C 
ENDBRANCH  11  14
ENDBRANCH   1  10
BRANCH   7  16
HETATM   16  C11 UNL     1      21.236   1.030  51.170  1.00  0.00     0.007 C 
BRANCH  16  17
HETATM   17  C12 UNL     1      20.990   0.089  52.023  1.00  0.00     0.000 C 
BRANCH  17  18
HETATM   18  C13 UNL     1      20.613   0.567  53.373  1.00  0.00    -0.003 C 
BRANCH  18  19
HETATM   19  C14 UNL     1      21.156   0.073  54.468  1.00  0.00    -0.016 C 
BRANCH  19  20
HETATM   20  C15 UNL     1      21.642  -1.326  54.585  1.00  0.00     0.112 C 
HETATM   21 BR1  UNL     1      23.417  -1.268  55.333  1.00  0.00    -0.092 Br
ENDBRANCH  19  20
ENDBRANCH  18  19
ENDBRANCH  17  18
ENDBRANCH  16  17
ENDBRANCH   7  16
TORSDOF 7
ENDMDL
MODEL 5
REMARK VINA RESULT:      -6.6      2.852      5.656
REMARK  7 active torsions:
REMARK  status: ('A' for Active; 'I' for Inactive)
REMARK    1  A    between atoms: C2_2  and  C3_3 
REMARK       I    between atoms: C3_3  and  N1_5 
REMARK    2  A    between atoms: N1_5  and  C4_6 
REMARK    3  A    between atoms: C10_12  and  C11_13 
REMARK    4  A    between atoms: C11_13  and  C12_14 
REMARK    5  A    between atoms: C12_14  and  C13_15 
REMARK    6  A    between atoms: C13_15  and  C14_16 
REMARK    7  A    between atoms: C14_16  and  C15_17 
ROOT
HETATM    1  C4  UNL     1      22.358   2.501  51.790  1.00  0.00     0.028 A 
HETATM    2  C5  UNL     1      21.151   2.279  52.318  1.00  0.00     0.008 A 
HETATM    3  C6  UNL     1      21.316   1.132  53.216  1.00  0.00     0.023 A 
HETATM    4  C7  UNL     1      20.663   0.319  54.072  1.00  0.00     0.002 A 
HETATM    5  C8  UNL     1      21.615  -0.704  54.642  1.00  0.00     0.033 A 
HETATM    6  C9  UNL     1      22.983  -0.556  54.130  1.00  0.00    -0.019 A 
HETATM    7  C10 UNL     1      24.141  -0.289  53.579  1.00  0.00    -0.053 A 
HETATM    8  C16 UNL     1      23.600   0.812  52.826  1.00  0.00     0.055 A 
HETATM    9  C17 UNL     1      23.685   1.845  51.951  1.00  0.00     0.013 A 
ENDROOT
BRANCH   1  10
HETATM   10  N1  UNL     1      22.374   3.621  50.864  1.00  0.00    -0.328 N 
HETATM   11  C3  UNL     1      22.826   4.821  51.475  1.00  0.00     0.221 C 
HETATM   12  O1  UNL     1      23.193   4.998  52.673  1.00  0.00    -0.273 OA
HETATM   13  H6  UNL     1      22.106   3.649  49.852  1.00  0.00     0.169 HD
BRANCH  11  14
HETATM   14  C2  UNL     1      22.934   6.116  50.730  1.00  0.00     0.098 C 
HETATM   15  C1  UNL     1      21.615   6.846  50.874  1.00  0.00     0.014 C 
ENDBRANCH  11  14
ENDBRANCH   1  10
BRANCH   7  16
HETATM   16  C11 UNL     1      25.463  -0.947  53.742  1.00  0.00     0.007 C 
BRANCH  16  17
HETATM   17  C12 UNL     1      26.276  -1.097  52.746  1.00  0.00     0.000 C 
BRANCH  17  18
HETATM   18  C13 UNL     1      27.267  -0.006  52.594  1.00  0.00    -0.003 C 
BRANCH  18  19
HETATM   19  C14 UNL     1      27.638   0.748  53.610  1.00  0.00    -0.016 C 
BRANCH  19  20
HETATM   20  C15 UNL     1      29.016   0.757  54.166  1.00  0.00     0.112 C 
HETATM   21 BR1  UNL     1      29.874  -0.885  53.631  1.00  0.00    -0.092 Br
ENDBRANCH  19  20
ENDBRANCH  18  19
ENDBRANCH  17  18
ENDBRANCH  16  17
ENDBRANCH   7  16
TORSDOF 7
ENDMDL
MODEL 6
REMARK VINA RESULT:      -6.3      2.694      5.215
REMARK  7 active torsions:
REMARK  status: ('A' for Active; 'I' for Inactive)
REMARK    1  A    between atoms: C2_2  and  C3_3 
REMARK       I    between atoms: C3_3  and  N1_5 
REMARK    2  A    between atoms: N1_5  and  C4_6 
REMARK    3  A    between atoms: C10_12  and  C11_13 
REMARK    4  A    between atoms: C11_13  and  C12_14 
REMARK    5  A    between atoms: C12_14  and  C13_15 
REMARK    6  A    between atoms: C13_15  and  C14_16 
REMARK    7  A    between atoms: C14_16  and  C15_17 
ROOT
HETATM    1  C4  UNL     1      23.002   0.591  53.044  1.00  0.00     0.028 A 
HETATM    2  C5  UNL     1      23.581  -0.493  53.567  1.00  0.00     0.008 A 
HETATM    3  C6  UNL     1      24.989  -0.423  53.168  1.00  0.00     0.023 A 
HETATM    4  C7  UNL     1      26.177  -1.055  53.257  1.00  0.00     0.002 A 
HETATM    5  C8  UNL     1      27.234  -0.280  52.509  1.00  0.00     0.033 A 
HETATM    6  C9  UNL     1      26.710   0.942  51.887  1.00  0.00    -0.019 A 
HETATM    7  C10 UNL     1      26.088   1.986  51.400  1.00  0.00    -0.053 A 
HETATM    8  C16 UNL     1      24.829   1.580  51.970  1.00  0.00     0.055 A 
HETATM    9  C17 UNL     1      23.503   1.724  52.216  1.00  0.00     0.013 A 
ENDROOT
BRANCH   1  10
HETATM   10  N1  UNL     1      21.584   0.680  53.349  1.00  0.00    -0.328 N 
HETATM   11  C3  UNL     1      20.770   0.318  52.242  1.00  0.00     0.221 C 
HETATM   12  O1  UNL     1      21.137  -0.050  51.089  1.00  0.00    -0.273 OA
HETATM   13  H6  UNL     1      21.113   0.963  54.239  1.00  0.00     0.169 HD
BRANCH  11  14
HETATM   14  C2  UNL     1      19.273   0.326  52.303  1.00  0.00     0.098 C 
HETATM   15  C1  UNL     1      18.752   0.453  50.887  1.00  0.00     0.014 C 
ENDBRANCH  11  14
ENDBRANCH   1  10
BRANCH   7  16
HETATM   16  C11 UNL     1      26.591   3.113  50.574  1.00  0.00     0.007 C 
BRANCH  16  17
HETATM   17  C12 UNL     1      25.856   3.674  49.668  1.00  0.00     0.000 C 
BRANCH  17  18
HETATM   18  C13 UNL     1      24.890   4.668  50.192  1.00  0.00    -0.003 C 
BRANCH  18  19
HETATM   19  C14 UNL     1      23.645   4.726  49.763  1.00  0.00    -0.016 C 
BRANCH  19  20
HETATM   20  C15 UNL     1      23.207   4.212  48.439  1.00  0.00     0.112 C 
HETATM   21 BR1  UNL     1      22.415   2.477  48.718  1.00  0.00    -0.092 Br
ENDBRANCH  19  20
ENDBRANCH  18  19
ENDBRANCH  17  18
ENDBRANCH  16  17
ENDBRANCH   7  16
TORSDOF 7
ENDMDL
MODEL 7
REMARK VINA RESULT:      -6.2      2.698      5.193
REMARK  7 active torsions:
REMARK  status: ('A' for Active; 'I' for Inactive)
REMARK    1  A    between atoms: C2_2  and  C3_3 
REMARK       I    between atoms: C3_3  and  N1_5 
REMARK    2  A    between atoms: N1_5  and  C4_6 
REMARK    3  A    between atoms: C10_12  and  C11_13 
REMARK    4  A    between atoms: C11_13  and  C12_14 
REMARK    5  A    between atoms: C12_14  and  C13_15 
REMARK    6  A    between atoms: C13_15  and  C14_16 
REMARK    7  A    between atoms: C14_16  and  C15_17 
ROOT
HETATM    1  C4  UNL     1      21.557   2.388  51.993  1.00  0.00     0.028 A 
HETATM    2  C5  UNL     1      20.508   2.021  52.734  1.00  0.00     0.008 A 
HETATM    3  C6  UNL     1      20.963   0.878  53.530  1.00  0.00     0.023 A 
HETATM    4  C7  UNL     1      20.580  -0.022  54.458  1.00  0.00     0.002 A 
HETATM    5  C8  UNL     1      21.726  -0.948  54.785  1.00  0.00     0.033 A 
HETATM    6  C9  UNL     1      22.943  -0.638  54.026  1.00  0.00    -0.019 A 
HETATM    7  C10 UNL     1      23.936  -0.232  53.274  1.00  0.00    -0.053 A 
HETATM    8  C16 UNL     1      23.146   0.821  52.691  1.00  0.00     0.055 A 
HETATM    9  C17 UNL     1      22.950   1.878  51.864  1.00  0.00     0.013 A 
ENDROOT
BRANCH   1  10
HETATM   10  N1  UNL     1      21.274   3.525  51.133  1.00  0.00    -0.328 N 
HETATM   11  C3  UNL     1      21.735   4.749  51.688  1.00  0.00     0.221 C 
HETATM   12  O1  UNL     1      22.331   4.934  52.789  1.00  0.00    -0.273 OA
HETATM   13  H6  UNL     1      20.796   3.551  50.203  1.00  0.00     0.169 HD
BRANCH  11  14
HETATM   14  C2  UNL     1      21.565   6.066  50.994  1.00  0.00     0.098 C 
HETATM   15  C1  UNL     1      22.944   6.601  50.668  1.00  0.00     0.014 C 
ENDBRANCH  11  14
ENDBRANCH   1  10
BRANCH   7  16
HETATM   16  C11 UNL     1      25.324  -0.744  53.147  1.00  0.00     0.007 C 
BRANCH  16  17
HETATM   17  C12 UNL     1      26.346   0.050  53.146  1.00  0.00     0.000 C 
BRANCH  17  18
HETATM   18  C13 UNL     1      26.616   0.700  51.843  1.00  0.00    -0.003 C 
BRANCH  18  19
HETATM   19  C14 UNL     1      26.990   1.961  51.754  1.00  0.00    -0.016 C 
BRANCH  19  20
HETATM   20  C15 UNL     1      26.088   3.057  51.315  1.00  0.00     0.112 C 
HETATM   21 BR1  UNL     1      26.580   3.534  49.514  1.00  0.00    -0.092 Br
ENDBRANCH  19  20
ENDBRANCH  18  19
ENDBRANCH  17  18
ENDBRANCH  16  17
ENDBRANCH   7  16
TORSDOF 7
ENDMDL
MODEL 8
REMARK VINA RESULT:      -6.2      2.913      5.892
REMARK  7 active torsions:
REMARK  status: ('A' for Active; 'I' for Inactive)
REMARK    1  A    between atoms: C2_2  and  C3_3 
REMARK       I    between atoms: C3_3  and  N1_5 
REMARK    2  A    between atoms: N1_5  and  C4_6 
REMARK    3  A    between atoms: C10_12  and  C11_13 
REMARK    4  A    between atoms: C11_13  and  C12_14 
REMARK    5  A    between atoms: C12_14  and  C13_15 
REMARK    6  A    between atoms: C13_15  and  C14_16 
REMARK    7  A    between atoms: C14_16  and  C15_17 
ROOT
HETATM    1  C4  UNL     1      22.231   2.194  51.957  1.00  0.00     0.028 A 
HETATM    2  C5  UNL     1      21.005   1.800  52.311  1.00  0.00     0.008 A 
HETATM    3  C6  UNL     1      21.199   0.675  53.229  1.00  0.00     0.023 A 
HETATM    4  C7  UNL     1      20.553  -0.233  53.988  1.00  0.00     0.002 A 
HETATM    5  C8  UNL     1      21.548  -1.124  54.691  1.00  0.00     0.033 A 
HETATM    6  C9  UNL     1      22.940  -0.782  54.376  1.00  0.00    -0.019 A 
HETATM    7  C10 UNL     1      24.116  -0.350  53.992  1.00  0.00    -0.053 A 
HETATM    8  C16 UNL     1      23.538   0.678  53.165  1.00  0.00     0.055 A 
HETATM    9  C17 UNL     1      23.601   1.725  52.305  1.00  0.00     0.013 A 
ENDROOT
BRANCH   1  10
HETATM   10  N1  UNL     1      22.221   3.319  51.036  1.00  0.00    -0.328 N 
HETATM   11  C3  UNL     1      22.248   2.905  49.677  1.00  0.00     0.221 C 
HETATM   12  O1  UNL     1      22.279   1.726  49.219  1.00  0.00    -0.273 OA
HETATM   13  H6  UNL     1      22.197   4.345  51.242  1.00  0.00     0.169 HD
BRANCH  11  14
HETATM   14  C2  UNL     1      22.244   3.875  48.536  1.00  0.00     0.098 C 
HETATM   15  C1  UNL     1      22.160   3.080  47.250  1.00  0.00     0.014 C 
ENDBRANCH  11  14
ENDBRANCH   1  10
BRANCH   7  16
HETATM   16  C11 UNL     1      25.480  -0.822  54.341  1.00  0.00     0.007 C 
BRANCH  16  17
HETATM   17  C12 UNL     1      26.368  -0.025  54.842  1.00  0.00     0.000 C 
BRANCH  17  18
HETATM   18  C13 UNL     1      27.290   0.569  53.846  1.00  0.00    -0.003 C 
BRANCH  18  19
HETATM   19  C14 UNL     1      28.508   0.959  54.165  1.00  0.00    -0.016 C 
BRANCH  19  20
HETATM   20  C15 UNL     1      29.740   0.282  53.684  1.00  0.00     0.112 C 
HETATM   21 BR1  UNL     1      29.301  -1.565  53.351  1.00  0.00    -0.092 Br
ENDBRANCH  19  20
ENDBRANCH  18  19
ENDBRANCH  17  18
ENDBRANCH  16  17
ENDBRANCH   7  16
TORSDOF 7
ENDMDL
MODEL 9
REMARK VINA RESULT:      -6.1      2.212      4.023
REMARK  7 active torsions:
REMARK  status: ('A' for Active; 'I' for Inactive)
REMARK    1  A    between atoms: C2_2  and  C3_3 
REMARK       I    between atoms: C3_3  and  N1_5 
REMARK    2  A    between atoms: N1_5  and  C4_6 
REMARK    3  A    between atoms: C10_12  and  C11_13 
REMARK    4  A    between atoms: C11_13  and  C12_14 
REMARK    5  A    between atoms: C12_14  and  C13_15 
REMARK    6  A    between atoms: C13_15  and  C14_16 
REMARK    7  A    between atoms: C14_16  and  C15_17 
ROOT
HETATM    1  C4  UNL     1      26.171   1.781  52.803  1.00  0.00     0.028 A 
HETATM    2  C5  UNL     1      26.622   2.583  51.834  1.00  0.00     0.008 A 
HETATM    3  C6  UNL     1      25.512   2.725  50.888  1.00  0.00     0.023 A 
HETATM    4  C7  UNL     1      25.138   3.305  49.729  1.00  0.00     0.002 A 
HETATM    5  C8  UNL     1      23.716   2.927  49.396  1.00  0.00     0.033 A 
HETATM    6  C9  UNL     1      23.112   2.041  50.398  1.00  0.00    -0.019 A 
HETATM    7  C10 UNL     1      22.727   1.260  51.377  1.00  0.00    -0.053 A 
HETATM    8  C16 UNL     1      24.000   1.364  52.043  1.00  0.00     0.055 A 
HETATM    9  C17 UNL     1      24.874   1.091  53.043  1.00  0.00     0.013 A 
ENDROOT
BRANCH   1  10
HETATM   10  N1  UNL     1      27.160   1.533  53.839  1.00  0.00    -0.328 N 
HETATM   11  C3  UNL     1      27.883   0.330  53.619  1.00  0.00     0.221 C 
HETATM   12  O1  UNL     1      27.757  -0.496  52.668  1.00  0.00    -0.273 OA
HETATM   13  H6  UNL     1      27.393   2.104  54.684  1.00  0.00     0.169 HD
BRANCH  11  14
HETATM   14  C2  UNL     1      28.959  -0.148  54.545  1.00  0.00     0.098 C 
HETATM   15  C1  UNL     1      29.988  -0.889  53.719  1.00  0.00     0.014 C 
ENDBRANCH  11  14
ENDBRANCH   1  10
BRANCH   7  16
HETATM   16  C11 UNL     1      21.433   0.572  51.612  1.00  0.00     0.007 C 
BRANCH  16  17
HETATM   17  C12 UNL     1      20.685   0.857  52.629  1.00  0.00     0.000 C 
BRANCH  17  18
HETATM   18  C13 UNL     1      20.048   2.192  52.567  1.00  0.00    -0.003 C 
BRANCH  18  19
HETATM   19  C14 UNL     1      19.247   2.540  51.579  1.00  0.00    -0.016 C 
BRANCH  19  20
HETATM   20  C15 UNL     1      18.973   3.951  51.200  1.00  0.00     0.112 C 
HETATM   21 BR1  UNL     1      20.667   4.805  50.859  1.00  0.00    -0.092 Br
ENDBRANCH  19  20
ENDBRANCH  18  19
ENDBRANCH  17  18
ENDBRANCH  16  17
ENDBRANCH   7  16
TORSDOF 7
ENDMDL
