MODEL 1
REMARK VINA RESULT:      -6.7      0.000      0.000
REMARK  4 active torsions:
REMARK  status: ('A' for Active; 'I' for Inactive)
REMARK    1  A    between atoms: N1_2  and  C3_4 
REMARK    2  A    between atoms: C3_4  and  C4_5 
REMARK    3  A    between atoms: C5_6  and  N2_7 
REMARK    4  A    between atoms: C16_23  and  C17_24 
ROOT
HETATM    1  N2  UNL     1      24.547   1.277  52.148  1.00  0.00    -0.385 N 
HETATM    2  C6  UNL     1      23.291   1.320  52.855  1.00  0.00     0.127 C 
HETATM    3  C7  UNL     1      22.157   1.393  51.826  1.00  0.00     0.059 C 
HETATM    4  C8  UNL     1      22.305   2.706  51.131  1.00  0.00    -0.020 C 
HETATM    5  C9  UNL     1      23.557   2.951  50.769  1.00  0.00     0.004 C 
HETATM    6  C10 UNL     1      24.731   2.113  50.976  1.00  0.00     0.168 C 
HETATM    7  S1  UNL     1      23.495   4.571  49.953  1.00  0.00    -0.097 SA
HETATM    8  C11 UNL     1      21.897   5.023  50.629  1.00  0.00     0.169 C 
HETATM    9  N3  UNL     1      21.187   6.063  50.912  1.00  0.00    -0.157 NA
HETATM   10  C12 UNL     1      21.527   7.420  50.732  1.00  0.00     0.195 A 
HETATM   11  N4  UNL     1      20.611   7.045  49.956  1.00  0.00    -0.277 N 
HETATM   12  C13 UNL     1      19.830   7.592  48.960  1.00  0.00     0.122 C 
HETATM   13  P1  UNL     1      19.075   6.525  47.893  1.00  0.00    -0.040 P 
HETATM   14  C14 UNL     1      19.226   4.639  47.972  1.00  0.00     0.071 C 
HETATM   15  C15 UNL     1      20.082   4.501  49.180  1.00  0.00     0.175 C 
HETATM   16  O1  UNL     1      20.488   3.319  49.671  1.00  0.00    -0.365 OA
HETATM   17  C16 UNL     1      21.251   3.697  50.827  1.00  0.00     0.173 C 
ENDROOT
BRANCH   1  18
HETATM   18  C5  UNL     1      25.540   0.405  52.659  1.00  0.00     0.083 C 
HETATM   19  C4  UNL     1      26.732  -0.091  52.385  1.00  0.00     0.020 C 
BRANCH  19  20
HETATM   20  C3  UNL     1      27.733  -1.022  52.983  1.00  0.00     0.300 C 
BRANCH  20  21
HETATM   21  N1  UNL     1      28.846  -0.309  53.548  1.00  0.00     0.083 N 
HETATM   22  C1  UNL     1      29.970  -1.213  53.684  1.00  0.00     0.309 C 
HETATM   23  C2  UNL     1      28.523   0.228  54.857  1.00  0.00     0.309 C 
ENDBRANCH  20  21
ENDBRANCH  19  20
ENDBRANCH   1  18
BRANCH  17  24
HETATM   24  C17 UNL     1      20.308   3.733  51.978  1.00  0.00     0.277 C 
HETATM   25  O2  UNL     1      19.186   3.247  52.174  1.00  0.00    -0.303 OA
ENDBRANCH  17  24
TORSDOF 4
ENDMDL
MODEL 2
REMARK VINA RESULT:      -6.4      7.069      8.042
REMARK  4 active torsions:
REMARK  status: ('A' for Active; 'I' for Inactive)
REMARK    1  A    between atoms: N1_2  and  C3_4 
REMARK    2  A    between atoms: C3_4  and  C4_5 
REMARK    3  A    between atoms: C5_6  and  N2_7 
REMARK    4  A    between atoms: C16_23  and  C17_24 
ROOT
HETATM    1  N2  UNL     1      25.951   4.364  49.731  1.00  0.00    -0.385 N 
HETATM    2  C6  UNL     1      25.511   5.717  49.972  1.00  0.00     0.127 C 
HETATM    3  C7  UNL     1      25.698   6.524  48.683  1.00  0.00     0.059 C 
HETATM    4  C8  UNL     1      27.169   6.586  48.436  1.00  0.00    -0.020 C 
HETATM    5  C9  UNL     1      27.759   5.408  48.582  1.00  0.00     0.004 C 
HETATM    6  C10 UNL     1      27.145   4.136  48.941  1.00  0.00     0.168 C 
HETATM    7  S1  UNL     1      29.512   5.721  48.234  1.00  0.00    -0.097 SA
HETATM    8  C11 UNL     1      29.396   7.499  48.439  1.00  0.00     0.169 C 
HETATM    9  N3  UNL     1      30.123   8.524  48.729  1.00  0.00    -0.157 NA
HETATM   10  C12 UNL     1      31.502   8.551  49.025  1.00  0.00     0.195 A 
HETATM   11  N4  UNL     1      31.234   9.094  47.922  1.00  0.00    -0.277 N 
HETATM   12  C13 UNL     1      31.917   9.720  46.900  1.00  0.00     0.122 C 
HETATM   13  P1  UNL     1      31.136   9.842  45.409  1.00  0.00    -0.040 P 
HETATM   14  C14 UNL     1      29.399   9.183  45.048  1.00  0.00     0.071 C 
HETATM   15  C15 UNL     1      29.038   8.659  46.392  1.00  0.00     0.175 C 
HETATM   16  O1  UNL     1      27.864   8.070  46.669  1.00  0.00    -0.365 OA
HETATM   17  C16 UNL     1      27.979   7.767  48.067  1.00  0.00     0.173 C 
ENDROOT
BRANCH   1  18
HETATM   18  C5  UNL     1      25.169   3.327  50.300  1.00  0.00     0.083 C 
HETATM   19  C4  UNL     1      25.132   2.491  51.320  1.00  0.00     0.020 C 
BRANCH  19  20
HETATM   20  C3  UNL     1      24.260   1.407  51.862  1.00  0.00     0.300 C 
BRANCH  20  21
HETATM   21  N1  UNL     1      24.923   0.666  52.901  1.00  0.00     0.083 N 
HETATM   22  C1  UNL     1      26.140   0.089  52.370  1.00  0.00     0.309 C 
HETATM   23  C2  UNL     1      24.083  -0.404  53.406  1.00  0.00     0.309 C 
ENDBRANCH  20  21
ENDBRANCH  19  20
ENDBRANCH   1  18
BRANCH  17  24
HETATM   24  C17 UNL     1      27.448   8.940  48.813  1.00  0.00     0.277 C 
HETATM   25  O2  UNL     1      27.341   9.205  50.017  1.00  0.00    -0.303 OA
ENDBRANCH  17  24
TORSDOF 4
ENDMDL
MODEL 3
REMARK VINA RESULT:      -6.4      2.460      2.728
REMARK  4 active torsions:
REMARK  status: ('A' for Active; 'I' for Inactive)
REMARK    1  A    between atoms: N1_2  and  C3_4 
REMARK    2  A    between atoms: C3_4  and  C4_5 
REMARK    3  A    between atoms: C5_6  and  N2_7 
REMARK    4  A    between atoms: C16_23  and  C17_24 
ROOT
HETATM    1  N2  UNL     1      25.906   2.298  51.127  1.00  0.00    -0.385 N 
HETATM    2  C6  UNL     1      24.499   2.397  51.428  1.00  0.00     0.127 C 
HETATM    3  C7  UNL     1      23.736   2.613  50.117  1.00  0.00     0.059 C 
HETATM    4  C8  UNL     1      24.162   3.948  49.599  1.00  0.00    -0.020 C 
HETATM    5  C9  UNL     1      25.476   4.116  49.648  1.00  0.00     0.004 C 
HETATM    6  C10 UNL     1      26.483   3.180  50.132  1.00  0.00     0.168 C 
HETATM    7  S1  UNL     1      25.755   5.778  48.976  1.00  0.00    -0.097 SA
HETATM    8  C11 UNL     1      24.056   6.314  49.176  1.00  0.00     0.169 C 
HETATM    9  N3  UNL     1      23.352   7.387  49.312  1.00  0.00    -0.157 NA
HETATM   10  C12 UNL     1      23.807   8.722  49.345  1.00  0.00     0.195 A 
HETATM   11  N4  UNL     1      23.150   8.462  48.305  1.00  0.00    -0.277 N 
HETATM   12  C13 UNL     1      22.739   9.122  47.166  1.00  0.00     0.122 C 
HETATM   13  P1  UNL     1      22.285   8.176  45.845  1.00  0.00    -0.040 P 
HETATM   14  C14 UNL     1      22.299   6.284  45.821  1.00  0.00     0.071 C 
HETATM   15  C15 UNL     1      22.739   6.013  47.216  1.00  0.00     0.175 C 
HETATM   16  O1  UNL     1      22.910   4.778  47.714  1.00  0.00    -0.365 OA
HETATM   17  C16 UNL     1      23.306   5.032  49.071  1.00  0.00     0.173 C 
ENDROOT
BRANCH   1  18
HETATM   18  C5  UNL     1      26.646   1.324  51.845  1.00  0.00     0.083 C 
HETATM   19  C4  UNL     1      26.617   0.058  52.214  1.00  0.00     0.020 C 
BRANCH  19  20
HETATM   20  C3  UNL     1      27.448  -0.914  52.983  1.00  0.00     0.300 C 
BRANCH  20  21
HETATM   21  N1  UNL     1      28.643  -0.300  53.495  1.00  0.00     0.083 N 
HETATM   22  C1  UNL     1      29.729  -1.256  53.443  1.00  0.00     0.309 C 
HETATM   23  C2  UNL     1      28.470   0.132  54.870  1.00  0.00     0.309 C 
ENDBRANCH  20  21
ENDBRANCH  19  20
ENDBRANCH   1  18
BRANCH  17  24
HETATM   24  C17 UNL     1      22.063   5.076  49.887  1.00  0.00     0.277 C 
HETATM   25  O2  UNL     1      21.836   5.323  51.078  1.00  0.00    -0.303 OA
ENDBRANCH  17  24
TORSDOF 4
ENDMDL
MODEL 4
REMARK VINA RESULT:      -6.4      3.375      4.233
REMARK  4 active torsions:
REMARK  status: ('A' for Active; 'I' for Inactive)
REMARK    1  A    between atoms: N1_2  and  C3_4 
REMARK    2  A    between atoms: C3_4  and  C4_5 
REMARK    3  A    between atoms: C5_6  and  N2_7 
REMARK    4  A    between atoms: C16_23  and  C17_24 
ROOT
HETATM    1  N2  UNL     1      23.370   0.590  53.059  1.00  0.00    -0.385 N 
HETATM    2  C6  UNL     1      23.391   1.413  51.875  1.00  0.00     0.127 C 
HETATM    3  C7  UNL     1      22.326   2.506  52.025  1.00  0.00     0.059 C 
HETATM    4  C8  UNL     1      21.007   1.807  52.041  1.00  0.00    -0.020 C 
HETATM    5  C9  UNL     1      21.002   0.749  52.841  1.00  0.00     0.004 C 
HETATM    6  C10 UNL     1      22.097   0.234  53.654  1.00  0.00     0.168 C 
HETATM    7  S1  UNL     1      19.324   0.073  52.705  1.00  0.00    -0.097 SA
HETATM    8  C11 UNL     1      18.927   0.947  51.191  1.00  0.00     0.169 C 
HETATM    9  N3  UNL     1      18.149   0.871  50.164  1.00  0.00    -0.157 NA
HETATM   10  C12 UNL     1      17.187  -0.121  49.878  1.00  0.00     0.195 A 
HETATM   11  N4  UNL     1      16.668   0.993  50.148  1.00  0.00    -0.277 N 
HETATM   12  C13 UNL     1      15.402   1.531  50.247  1.00  0.00     0.122 C 
HETATM   13  P1  UNL     1      15.237   2.967  51.117  1.00  0.00    -0.040 P 
HETATM   14  C14 UNL     1      16.662   3.883  51.960  1.00  0.00     0.071 C 
HETATM   15  C15 UNL     1      17.799   3.010  51.564  1.00  0.00     0.175 C 
HETATM   16  O1  UNL     1      19.072   3.237  51.925  1.00  0.00    -0.365 OA
HETATM   17  C16 UNL     1      19.782   2.161  51.294  1.00  0.00     0.173 C 
ENDROOT
BRANCH   1  18
HETATM   18  C5  UNL     1      24.625   0.171  53.569  1.00  0.00     0.083 C 
HETATM   19  C4  UNL     1      25.921   0.392  53.455  1.00  0.00     0.020 C 
BRANCH  19  20
HETATM   20  C3  UNL     1      27.206  -0.097  54.036  1.00  0.00     0.300 C 
BRANCH  20  21
HETATM   21  N1  UNL     1      28.341   0.423  53.323  1.00  0.00     0.083 N 
HETATM   22  C1  UNL     1      29.525  -0.317  53.709  1.00  0.00     0.309 C 
HETATM   23  C2  UNL     1      28.555   1.828  53.619  1.00  0.00     0.309 C 
ENDBRANCH  20  21
ENDBRANCH  19  20
ENDBRANCH   1  18
BRANCH  17  24
HETATM   24  C17 UNL     1      20.189   2.640  49.945  1.00  0.00     0.277 C 
HETATM   25  O2  UNL     1      20.373   3.765  49.462  1.00  0.00    -0.303 OA
ENDBRANCH  17  24
TORSDOF 4
ENDMDL
MODEL 5
REMARK VINA RESULT:      -6.1      2.212      3.006
REMARK  4 active torsions:
REMARK  status: ('A' for Active; 'I' for Inactive)
REMARK    1  A    between atoms: N1_2  and  C3_4 
REMARK    2  A    between atoms: C3_4  and  C4_5 
REMARK    3  A    between atoms: C5_6  and  N2_7 
REMARK    4  A    between atoms: C16_23  and  C17_24 
ROOT
HETATM    1  N2  UNL     1      24.511   1.902  52.813  1.00  0.00    -0.385 N 
HETATM    2  C6  UNL     1      24.392   3.317  52.557  1.00  0.00     0.127 C 
HETATM    3  C7  UNL     1      22.975   3.761  52.936  1.00  0.00     0.059 C 
HETATM    4  C8  UNL     1      22.051   3.072  51.987  1.00  0.00    -0.020 C 
HETATM    5  C9  UNL     1      22.336   1.785  51.844  1.00  0.00     0.004 C 
HETATM    6  C10 UNL     1      23.402   1.026  52.486  1.00  0.00     0.168 C 
HETATM    7  S1  UNL     1      21.101   1.164  50.669  1.00  0.00    -0.097 SA
HETATM    8  C11 UNL     1      20.636   2.786  50.062  1.00  0.00     0.169 C 
HETATM    9  N3  UNL     1      20.123   3.359  49.026  1.00  0.00    -0.157 NA
HETATM   10  C12 UNL     1      19.685   2.754  47.829  1.00  0.00     0.195 A 
HETATM   11  N4  UNL     1      18.735   3.213  48.514  1.00  0.00    -0.277 N 
HETATM   12  C13 UNL     1      17.361   3.294  48.427  1.00  0.00     0.122 C 
HETATM   13  P1  UNL     1      16.511   3.586  49.855  1.00  0.00    -0.040 P 
HETATM   14  C14 UNL     1      17.311   3.810  51.556  1.00  0.00     0.071 C 
HETATM   15  C15 UNL     1      18.746   3.702  51.181  1.00  0.00     0.175 C 
HETATM   16  O1  UNL     1      19.754   3.795  52.063  1.00  0.00    -0.365 OA
HETATM   17  C16 UNL     1      20.919   3.656  51.237  1.00  0.00     0.173 C 
ENDROOT
BRANCH   1  18
HETATM   18  C5  UNL     1      25.732   1.454  53.377  1.00  0.00     0.083 C 
HETATM   19  C4  UNL     1      26.226   0.566  54.218  1.00  0.00     0.020 C 
BRANCH  19  20
HETATM   20  C3  UNL     1      27.548   0.147  54.772  1.00  0.00     0.300 C 
BRANCH  20  21
HETATM   21  N1  UNL     1      28.621   0.452  53.865  1.00  0.00     0.083 N 
HETATM   22  C1  UNL     1      29.540  -0.667  53.824  1.00  0.00     0.309 C 
HETATM   23  C2  UNL     1      29.349   1.635  54.284  1.00  0.00     0.309 C 
ENDBRANCH  20  21
ENDBRANCH  19  20
ENDBRANCH   1  18
BRANCH  17  24
HETATM   24  C17 UNL     1      21.311   5.024  50.802  1.00  0.00     0.277 C 
HETATM   25  O2  UNL     1      22.286   5.473  50.186  1.00  0.00    -0.303 OA
ENDBRANCH  17  24
TORSDOF 4
ENDMDL
MODEL 6
REMARK VINA RESULT:      -6.1      8.080      9.473
REMARK  4 active torsions:
REMARK  status: ('A' for Active; 'I' for Inactive)
REMARK    1  A    between atoms: N1_2  and  C3_4 
REMARK    2  A    between atoms: C3_4  and  C4_5 
REMARK    3  A    between atoms: C5_6  and  N2_7 
REMARK    4  A    between atoms: C16_23  and  C17_24 
ROOT
HETATM    1  N2  UNL     1      26.467   5.373  49.222  1.00  0.00    -0.385 N 
HETATM    2  C6  UNL     1      26.370   6.812  49.203  1.00  0.00     0.127 C 
HETATM    3  C7  UNL     1      26.892   7.316  47.853  1.00  0.00     0.059 C 
HETATM    4  C8  UNL     1      28.346   6.981  47.813  1.00  0.00    -0.020 C 
HETATM    5  C9  UNL     1      28.593   5.739  48.208  1.00  0.00     0.004 C 
HETATM    6  C10 UNL     1      27.637   4.733  48.651  1.00  0.00     0.168 C 
HETATM    7  S1  UNL     1      30.393   5.559  48.074  1.00  0.00    -0.097 SA
HETATM    8  C11 UNL     1      30.720   7.321  48.007  1.00  0.00     0.169 C 
HETATM    9  N3  UNL     1      31.655   8.177  48.250  1.00  0.00    -0.157 NA
HETATM   10  C12 UNL     1      32.956   7.925  48.734  1.00  0.00     0.195 A 
HETATM   11  N4  UNL     1      32.952   8.317  47.539  1.00  0.00    -0.277 N 
HETATM   12  C13 UNL     1      33.876   8.575  46.547  1.00  0.00     0.122 C 
HETATM   13  P1  UNL     1      33.312   8.620  44.958  1.00  0.00    -0.040 P 
HETATM   14  C14 UNL     1      31.510   8.343  44.447  1.00  0.00     0.071 C 
HETATM   15  C15 UNL     1      30.889   8.161  45.786  1.00  0.00     0.175 C 
HETATM   16  O1  UNL     1      29.580   7.927  45.972  1.00  0.00    -0.365 OA
HETATM   17  C16 UNL     1      29.468   7.852  47.402  1.00  0.00     0.173 C 
ENDROOT
BRANCH   1  18
HETATM   18  C5  UNL     1      25.389   4.667  49.813  1.00  0.00     0.083 C 
HETATM   19  C4  UNL     1      25.119   3.607  50.552  1.00  0.00     0.020 C 
BRANCH  19  20
HETATM   20  C3  UNL     1      23.938   2.915  51.145  1.00  0.00     0.300 C 
BRANCH  20  21
HETATM   21  N1  UNL     1      24.328   1.747  51.888  1.00  0.00     0.083 N 
HETATM   22  C1  UNL     1      23.146   0.974  52.212  1.00  0.00     0.309 C 
HETATM   23  C2  UNL     1      25.001   2.105  53.123  1.00  0.00     0.309 C 
ENDBRANCH  20  21
ENDBRANCH  19  20
ENDBRANCH   1  18
BRANCH  17  24
HETATM   24  C17 UNL     1      29.184   9.229  47.890  1.00  0.00     0.277 C 
HETATM   25  O2  UNL     1      28.928   9.699  49.005  1.00  0.00    -0.303 OA
ENDBRANCH  17  24
TORSDOF 4
ENDMDL
MODEL 7
REMARK VINA RESULT:      -6.0      7.902     10.036
REMARK  4 active torsions:
REMARK  status: ('A' for Active; 'I' for Inactive)
REMARK    1  A    between atoms: N1_2  and  C3_4 
REMARK    2  A    between atoms: C3_4  and  C4_5 
REMARK    3  A    between atoms: C5_6  and  N2_7 
REMARK    4  A    between atoms: C16_23  and  C17_24 
ROOT
HETATM    1  N2  UNL     1      25.792   6.986  49.622  1.00  0.00    -0.385 N 
HETATM    2  C6  UNL     1      26.428   8.192  50.092  1.00  0.00     0.127 C 
HETATM    3  C7  UNL     1      27.206   8.816  48.928  1.00  0.00     0.059 C 
HETATM    4  C8  UNL     1      28.298   7.856  48.590  1.00  0.00    -0.020 C 
HETATM    5  C9  UNL     1      27.869   6.603  48.516  1.00  0.00     0.004 C 
HETATM    6  C10 UNL     1      26.515   6.106  48.724  1.00  0.00     0.168 C 
HETATM    7  S1  UNL     1      29.343   5.633  48.097  1.00  0.00    -0.097 SA
HETATM    8  C11 UNL     1      30.510   6.909  48.572  1.00  0.00     0.169 C 
HETATM    9  N3  UNL     1      31.732   7.056  48.960  1.00  0.00    -0.157 NA
HETATM   10  C12 UNL     1      32.704   6.053  49.159  1.00  0.00     0.195 A 
HETATM   11  N4  UNL     1      32.963   6.787  48.171  1.00  0.00    -0.277 N 
HETATM   12  C13 UNL     1      33.945   6.894  47.208  1.00  0.00     0.122 C 
HETATM   13  P1  UNL     1      33.568   7.761  45.811  1.00  0.00    -0.040 P 
HETATM   14  C14 UNL     1      31.900   8.593  45.479  1.00  0.00     0.071 C 
HETATM   15  C15 UNL     1      31.198   8.278  46.752  1.00  0.00     0.175 C 
HETATM   16  O1  UNL     1      29.939   8.661  47.020  1.00  0.00    -0.365 OA
HETATM   17  C16 UNL     1      29.725   8.154  48.346  1.00  0.00     0.173 C 
ENDROOT
BRANCH   1  18
HETATM   18  C5  UNL     1      24.475   6.736  50.082  1.00  0.00     0.083 C 
HETATM   19  C4  UNL     1      23.768   5.886  50.803  1.00  0.00     0.020 C 
BRANCH  19  20
HETATM   20  C3  UNL     1      22.359   5.685  51.252  1.00  0.00     0.300 C 
BRANCH  20  21
HETATM   21  N1  UNL     1      22.284   4.786  52.372  1.00  0.00     0.083 N 
HETATM   22  C1  UNL     1      23.536   4.067  52.489  1.00  0.00     0.309 C 
HETATM   23  C2  UNL     1      21.210   3.824  52.208  1.00  0.00     0.309 C 
ENDBRANCH  20  21
ENDBRANCH  19  20
ENDBRANCH   1  18
BRANCH  17  24
HETATM   24  C17 UNL     1      30.141   9.223  49.293  1.00  0.00     0.277 C 
HETATM   25  O2  UNL     1      30.273  10.449  49.187  1.00  0.00    -0.303 OA
ENDBRANCH  17  24
TORSDOF 4
ENDMDL
MODEL 8
REMARK VINA RESULT:      -6.0      7.035      8.381
REMARK  4 active torsions:
REMARK  status: ('A' for Active; 'I' for Inactive)
REMARK    1  A    between atoms: N1_2  and  C3_4 
REMARK    2  A    between atoms: C3_4  and  C4_5 
REMARK    3  A    between atoms: C5_6  and  N2_7 
REMARK    4  A    between atoms: C16_23  and  C17_24 
ROOT
HETATM    1  N2  UNL     1      26.031   4.582  49.545  1.00  0.00    -0.385 N 
HETATM    2  C6  UNL     1      25.446   5.850  49.905  1.00  0.00     0.127 C 
HETATM    3  C7  UNL     1      25.563   6.797  48.706  1.00  0.00     0.059 C 
HETATM    4  C8  UNL     1      27.022   7.038  48.502  1.00  0.00    -0.020 C 
HETATM    5  C9  UNL     1      27.733   5.919  48.547  1.00  0.00     0.004 C 
HETATM    6  C10 UNL     1      27.254   4.560  48.765  1.00  0.00     0.168 C 
HETATM    7  S1  UNL     1      29.447   6.448  48.275  1.00  0.00    -0.097 SA
HETATM    8  C11 UNL     1      29.138   8.174  48.649  1.00  0.00     0.169 C 
HETATM    9  N3  UNL     1      29.748   9.237  49.055  1.00  0.00    -0.157 NA
HETATM   10  C12 UNL     1      31.112   9.379  49.386  1.00  0.00     0.195 A 
HETATM   11  N4  UNL     1      30.802   9.998  48.335  1.00  0.00    -0.277 N 
HETATM   12  C13 UNL     1      31.428  10.791  47.396  1.00  0.00     0.122 C 
HETATM   13  P1  UNL     1      30.660  10.978  45.906  1.00  0.00    -0.040 P 
HETATM   14  C14 UNL     1      29.008  10.180  45.439  1.00  0.00     0.071 C 
HETATM   15  C15 UNL     1      28.687   9.489  46.717  1.00  0.00     0.175 C 
HETATM   16  O1  UNL     1      27.579   8.755  46.906  1.00  0.00    -0.365 OA
HETATM   17  C16 UNL     1      27.706   8.328  48.271  1.00  0.00     0.173 C 
ENDROOT
BRANCH   1  18
HETATM   18  C5  UNL     1      25.357   3.417  49.990  1.00  0.00     0.083 C 
HETATM   19  C4  UNL     1      24.479   2.999  50.882  1.00  0.00     0.020 C 
BRANCH  19  20
HETATM   20  C3  UNL     1      23.806   1.733  51.297  1.00  0.00     0.300 C 
BRANCH  20  21
HETATM   21  N1  UNL     1      22.494   1.618  50.720  1.00  0.00     0.083 N 
HETATM   22  C1  UNL     1      21.791   2.874  50.882  1.00  0.00     0.309 C 
HETATM   23  C2  UNL     1      21.723   0.569  51.361  1.00  0.00     0.309 C 
ENDBRANCH  20  21
ENDBRANCH  19  20
ENDBRANCH   1  18
BRANCH  17  24
HETATM   24  C17 UNL     1      27.042   9.359  49.114  1.00  0.00     0.277 C 
HETATM   25  O2  UNL     1      26.880   9.483  50.335  1.00  0.00    -0.303 OA
ENDBRANCH  17  24
TORSDOF 4
ENDMDL
MODEL 9
REMARK VINA RESULT:      -5.9      2.818      3.176
REMARK  4 active torsions:
REMARK  status: ('A' for Active; 'I' for Inactive)
REMARK    1  A    between atoms: N1_2  and  C3_4 
REMARK    2  A    between atoms: C3_4  and  C4_5 
REMARK    3  A    between atoms: C5_6  and  N2_7 
REMARK    4  A    between atoms: C16_23  and  C17_24 
ROOT
HETATM    1  N2  UNL     1      23.088   1.134  52.791  1.00  0.00    -0.385 N 
HETATM    2  C6  UNL     1      22.171   0.045  52.563  1.00  0.00     0.127 C 
HETATM    3  C7  UNL     1      21.576   0.197  51.159  1.00  0.00     0.059 C 
HETATM    4  C8  UNL     1      20.763   1.449  51.180  1.00  0.00    -0.020 C 
HETATM    5  C9  UNL     1      21.402   2.460  51.753  1.00  0.00     0.004 C 
HETATM    6  C10 UNL     1      22.740   2.464  52.329  1.00  0.00     0.168 C 
HETATM    7  S1  UNL     1      20.241   3.852  51.662  1.00  0.00    -0.097 SA
HETATM    8  C11 UNL     1      18.801   2.832  51.343  1.00  0.00     0.169 C 
HETATM    9  N3  UNL     1      17.517   2.844  51.467  1.00  0.00    -0.157 NA
HETATM   10  C12 UNL     1      16.707   3.873  51.994  1.00  0.00     0.195 A 
HETATM   11  N4  UNL     1      16.553   3.723  50.754  1.00  0.00    -0.277 N 
HETATM   12  C13 UNL     1      15.805   4.290  49.743  1.00  0.00     0.122 C 
HETATM   13  P1  UNL     1      16.330   4.041  48.159  1.00  0.00    -0.040 P 
HETATM   14  C14 UNL     1      17.866   3.045  47.679  1.00  0.00     0.071 C 
HETATM   15  C15 UNL     1      18.312   2.596  49.025  1.00  0.00     0.175 C 
HETATM   16  O1  UNL     1      19.398   1.834  49.232  1.00  0.00    -0.365 OA
HETATM   17  C16 UNL     1      19.396   1.652  50.656  1.00  0.00     0.173 C 
ENDROOT
BRANCH   1  18
HETATM   18  C5  UNL     1      24.294   0.824  53.469  1.00  0.00     0.083 C 
HETATM   19  C4  UNL     1      25.485   0.286  53.282  1.00  0.00     0.020 C 
BRANCH  19  20
HETATM   20  C3  UNL     1      26.724  -0.012  54.058  1.00  0.00     0.300 C 
BRANCH  20  21
HETATM   21  N1  UNL     1      27.890   0.545  53.427  1.00  0.00     0.083 N 
HETATM   22  C1  UNL     1      29.073   0.088  54.126  1.00  0.00     0.309 C 
HETATM   23  C2  UNL     1      27.866   1.996  53.455  1.00  0.00     0.309 C 
ENDBRANCH  20  21
ENDBRANCH  19  20
ENDBRANCH   1  18
BRANCH  17  24
HETATM   24  C17 UNL     1      18.607   0.422  50.937  1.00  0.00     0.277 C 
HETATM   25  O2  UNL     1      18.492  -0.306  51.932  1.00  0.00    -0.303 OA
ENDBRANCH  17  24
TORSDOF 4
ENDMDL
