MODEL 1
REMARK VINA RESULT:      -8.3      0.000      0.000
REMARK  7 active torsions:
REMARK  status: ('A' for Active; 'I' for Inactive)
REMARK    1  A    between atoms: C2_2  and  C4_4 
REMARK    2  A    between atoms: C4_4  and  N2_15 
REMARK    3  A    between atoms: C5_5  and  C6_6 
REMARK    4  A    between atoms: C6_6  and  C7_7 
REMARK    5  A    between atoms: N2_15  and  C13_16 
REMARK    6  A    between atoms: C17_22  and  O1_23 
REMARK    7  A    between atoms: C19_25  and  O2_26 
ROOT
HETATM    1  N2  UNL     1      26.276   3.222  49.485  1.00  0.00    -0.340 N 
HETATM    2  H11 UNL     1      26.142   2.492  48.762  1.00  0.00     0.167 HD
ENDROOT
BRANCH   1   3
HETATM    3  C4  UNL     1      26.494   4.593  49.207  1.00  0.00     0.035 C 
HETATM    4  C5  UNL     1      27.632   4.928  48.690  1.00  0.00     0.010 C 
BRANCH   3   5
HETATM    5  C2  UNL     1      25.364   5.490  49.525  1.00  0.00    -0.045 C 
HETATM    6  C1  UNL     1      24.257   5.378  48.774  1.00  0.00     0.021 C 
HETATM    7  C3  UNL     1      24.987   6.559  50.445  1.00  0.00     0.049 C 
ENDBRANCH   3   5
BRANCH   4   8
HETATM    8  C6  UNL     1      28.469   6.027  48.177  1.00  0.00     0.096 C 
BRANCH   8   9
HETATM    9  C7  UNL     1      29.912   5.616  48.137  1.00  0.00     0.080 A 
HETATM   10  N1  UNL     1      30.574   4.690  47.788  1.00  0.00    -0.244 NA
HETATM   11  C8  UNL     1      31.906   4.663  47.889  1.00  0.00     0.086 A 
HETATM   12  C9  UNL     1      32.598   5.762  48.426  1.00  0.00     0.036 A 
HETATM   13  C12 UNL     1      32.821   3.764  47.573  1.00  0.00     0.007 A 
HETATM   14  S1  UNL     1      31.166   6.858  48.785  1.00  0.00    -0.072 SA
HETATM   15  C10 UNL     1      33.901   5.495  48.416  1.00  0.00     0.022 A 
HETATM   16  C11 UNL     1      34.040   4.157  47.840  1.00  0.00     0.016 A 
ENDBRANCH   8   9
ENDBRANCH   4   8
ENDBRANCH   1   3
BRANCH   1  17
HETATM   17  C13 UNL     1      26.209   2.704  50.789  1.00  0.00     0.142 A 
HETATM   18  N3  UNL     1      27.326   2.646  51.571  1.00  0.00    -0.224 NA
HETATM   19  C14 UNL     1      27.250   2.123  52.832  1.00  0.00     0.236 A 
HETATM   20  N4  UNL     1      26.100   1.643  53.373  1.00  0.00    -0.241 NA
HETATM   21  C15 UNL     1      24.940   1.667  52.651  1.00  0.00     0.075 A 
HETATM   22  C16 UNL     1      23.750   1.182  53.147  1.00  0.00     0.072 A 
HETATM   23  C22 UNL     1      25.082   2.205  51.395  1.00  0.00     0.042 A 
HETATM   24  C17 UNL     1      22.603   1.213  52.380  1.00  0.00     0.103 A 
HETATM   25  C19 UNL     1      22.711   1.746  51.114  1.00  0.00     0.102 A 
HETATM   26  C21 UNL     1      23.918   2.234  50.622  1.00  0.00     0.057 A 
BRANCH  24  27
HETATM   27  O1  UNL     1      21.408   0.733  52.858  1.00  0.00    -0.353 OA
HETATM   28  C18 UNL     1      21.209   0.171  54.119  1.00  0.00     0.210 C 
ENDBRANCH  24  27
BRANCH  25  29
HETATM   29  O2  UNL     1      21.547   1.764  50.365  1.00  0.00    -0.353 OA
HETATM   30  C20 UNL     1      21.496   1.319  49.017  1.00  0.00     0.210 C 
ENDBRANCH  25  29
ENDBRANCH   1  17
TORSDOF 7
ENDMDL
MODEL 2
REMARK VINA RESULT:      -8.1      4.796      7.213
REMARK  7 active torsions:
REMARK  status: ('A' for Active; 'I' for Inactive)
REMARK    1  A    between atoms: C2_2  and  C4_4 
REMARK    2  A    between atoms: C4_4  and  N2_15 
REMARK    3  A    between atoms: C5_5  and  C6_6 
REMARK    4  A    between atoms: C6_6  and  C7_7 
REMARK    5  A    between atoms: N2_15  and  C13_16 
REMARK    6  A    between atoms: C17_22  and  O1_23 
REMARK    7  A    between atoms: C19_25  and  O2_26 
ROOT
HETATM    1  N2  UNL     1      22.252  -0.314  52.319  1.00  0.00    -0.340 N 
HETATM    2  H11 UNL     1      22.475  -0.888  51.485  1.00  0.00     0.167 HD
ENDROOT
BRANCH   1   3
HETATM    3  C4  UNL     1      21.209   0.641  52.377  1.00  0.00     0.035 C 
HETATM    4  C5  UNL     1      21.537   1.893  52.365  1.00  0.00     0.010 C 
BRANCH   3   5
HETATM    5  C2  UNL     1      19.841   0.083  52.420  1.00  0.00    -0.045 C 
HETATM    6  C1  UNL     1      19.028   0.364  51.390  1.00  0.00     0.021 C 
HETATM    7  C3  UNL     1      18.976  -0.736  53.263  1.00  0.00     0.049 C 
ENDBRANCH   3   5
BRANCH   4   8
HETATM    8  C6  UNL     1      21.059   3.286  52.380  1.00  0.00     0.096 C 
BRANCH   8   9
HETATM    9  C7  UNL     1      22.072   4.199  51.754  1.00  0.00     0.080 A 
HETATM   10  N1  UNL     1      22.623   5.228  51.990  1.00  0.00    -0.244 NA
HETATM   11  C8  UNL     1      23.530   5.776  51.177  1.00  0.00     0.086 A 
HETATM   12  C9  UNL     1      23.881   5.137  49.975  1.00  0.00     0.036 A 
HETATM   13  C12 UNL     1      24.249   6.883  51.235  1.00  0.00     0.007 A 
HETATM   14  S1  UNL     1      22.789   3.664  50.101  1.00  0.00    -0.072 SA
HETATM   15  C10 UNL     1      24.797   5.873  49.351  1.00  0.00     0.022 A 
HETATM   16  C11 UNL     1      25.039   7.036  50.204  1.00  0.00     0.016 A 
ENDBRANCH   8   9
ENDBRANCH   4   8
ENDBRANCH   1   3
BRANCH   1  17
HETATM   17  C13 UNL     1      23.099  -0.591  53.404  1.00  0.00     0.142 A 
HETATM   18  N3  UNL     1      22.621  -1.225  54.514  1.00  0.00    -0.224 NA
HETATM   19  C14 UNL     1      23.453  -1.472  55.571  1.00  0.00     0.236 A 
HETATM   20  N4  UNL     1      24.764  -1.117  55.588  1.00  0.00    -0.241 NA
HETATM   21  C15 UNL     1      25.315  -0.479  54.512  1.00  0.00     0.075 A 
HETATM   22  C16 UNL     1      26.635  -0.086  54.483  1.00  0.00     0.072 A 
HETATM   23  C22 UNL     1      24.430  -0.261  53.485  1.00  0.00     0.042 A 
HETATM   24  C17 UNL     1      27.151   0.568  53.382  1.00  0.00     0.103 A 
HETATM   25  C19 UNL     1      26.288   0.803  52.333  1.00  0.00     0.102 A 
HETATM   26  C21 UNL     1      24.955   0.402  52.373  1.00  0.00     0.057 A 
BRANCH  24  27
HETATM   27  O1  UNL     1      28.464   0.968  53.336  1.00  0.00    -0.353 OA
HETATM   28  C18 UNL     1      29.558   0.202  53.738  1.00  0.00     0.210 C 
ENDBRANCH  24  27
BRANCH  25  29
HETATM   29  O2  UNL     1      26.829   1.462  51.242  1.00  0.00    -0.353 OA
HETATM   30  C20 UNL     1      26.518   2.813  50.932  1.00  0.00     0.210 C 
ENDBRANCH  25  29
ENDBRANCH   1  17
TORSDOF 7
ENDMDL
MODEL 3
REMARK VINA RESULT:      -8.0      3.435      5.017
REMARK  7 active torsions:
REMARK  status: ('A' for Active; 'I' for Inactive)
REMARK    1  A    between atoms: C2_2  and  C4_4 
REMARK    2  A    between atoms: C4_4  and  N2_15 
REMARK    3  A    between atoms: C5_5  and  C6_6 
REMARK    4  A    between atoms: C6_6  and  C7_7 
REMARK    5  A    between atoms: N2_15  and  C13_16 
REMARK    6  A    between atoms: C17_22  and  O1_23 
REMARK    7  A    between atoms: C19_25  and  O2_26 
ROOT
HETATM    1  N2  UNL     1      23.143   3.802  52.676  1.00  0.00    -0.340 N 
HETATM    2  H11 UNL     1      23.032   4.208  53.622  1.00  0.00     0.167 HD
ENDROOT
BRANCH   1   3
HETATM    3  C4  UNL     1      23.296   4.562  51.492  1.00  0.00     0.035 C 
HETATM    4  C5  UNL     1      23.621   5.809  51.615  1.00  0.00     0.010 C 
BRANCH   3   5
HETATM    5  C2  UNL     1      23.086   3.820  50.232  1.00  0.00    -0.045 C 
HETATM    6  C1  UNL     1      21.888   3.938  49.638  1.00  0.00     0.021 C 
HETATM    7  C3  UNL     1      23.778   2.914  49.319  1.00  0.00     0.049 C 
ENDBRANCH   3   5
BRANCH   4   8
HETATM    8  C6  UNL     1      23.935   7.068  50.918  1.00  0.00     0.096 C 
BRANCH   8   9
HETATM    9  C7  UNL     1      25.219   6.941  50.151  1.00  0.00     0.080 A 
HETATM   10  N1  UNL     1      25.884   6.093  49.645  1.00  0.00    -0.244 NA
HETATM   11  C8  UNL     1      27.024   6.347  48.995  1.00  0.00     0.086 A 
HETATM   12  C9  UNL     1      27.495   7.666  48.880  1.00  0.00     0.036 A 
HETATM   13  C12 UNL     1      27.902   5.580  48.372  1.00  0.00     0.007 A 
HETATM   14  S1  UNL     1      26.155   8.532  49.794  1.00  0.00    -0.072 SA
HETATM   15  C10 UNL     1      28.634   7.656  48.194  1.00  0.00     0.022 A 
HETATM   16  C11 UNL     1      28.896   6.257  47.856  1.00  0.00     0.016 A 
ENDBRANCH   8   9
ENDBRANCH   4   8
ENDBRANCH   1   3
BRANCH   1  17
HETATM   17  C13 UNL     1      23.133   2.397  52.690  1.00  0.00     0.142 A 
HETATM   18  N3  UNL     1      22.016   1.707  52.315  1.00  0.00    -0.224 NA
HETATM   19  C14 UNL     1      22.014   0.340  52.351  1.00  0.00     0.236 A 
HETATM   20  N4  UNL     1      23.084  -0.397  52.748  1.00  0.00    -0.241 NA
HETATM   21  C15 UNL     1      24.238   0.222  53.137  1.00  0.00     0.075 A 
HETATM   22  C16 UNL     1      25.347  -0.478  53.559  1.00  0.00     0.072 A 
HETATM   23  C22 UNL     1      24.177   1.593  53.077  1.00  0.00     0.042 A 
HETATM   24  C17 UNL     1      26.489   0.187  53.957  1.00  0.00     0.103 A 
HETATM   25  C19 UNL     1      26.461   1.564  53.910  1.00  0.00     0.102 A 
HETATM   26  C21 UNL     1      25.335   2.262  53.481  1.00  0.00     0.057 A 
BRANCH  24  27
HETATM   27  O1  UNL     1      27.603  -0.494  54.382  1.00  0.00    -0.353 OA
HETATM   28  C18 UNL     1      28.553  -1.090  53.553  1.00  0.00     0.210 C 
ENDBRANCH  24  27
BRANCH  25  29
HETATM   29  O2  UNL     1      27.618   2.207  54.316  1.00  0.00    -0.353 OA
HETATM   30  C20 UNL     1      28.656   2.560  53.414  1.00  0.00     0.210 C 
ENDBRANCH  25  29
ENDBRANCH   1  17
TORSDOF 7
ENDMDL
MODEL 4
REMARK VINA RESULT:      -7.9      5.255      6.504
REMARK  7 active torsions:
REMARK  status: ('A' for Active; 'I' for Inactive)
REMARK    1  A    between atoms: C2_2  and  C4_4 
REMARK    2  A    between atoms: C4_4  and  N2_15 
REMARK    3  A    between atoms: C5_5  and  C6_6 
REMARK    4  A    between atoms: C6_6  and  C7_7 
REMARK    5  A    between atoms: N2_15  and  C13_16 
REMARK    6  A    between atoms: C17_22  and  O1_23 
REMARK    7  A    between atoms: C19_25  and  O2_26 
ROOT
HETATM    1  N2  UNL     1      22.282   0.956  51.872  1.00  0.00    -0.340 N 
HETATM    2  H11 UNL     1      22.143   0.698  50.878  1.00  0.00     0.167 HD
ENDROOT
BRANCH   1   3
HETATM    3  C4  UNL     1      22.981   2.107  52.309  1.00  0.00     0.035 C 
HETATM    4  C5  UNL     1      24.092   1.929  52.949  1.00  0.00     0.010 C 
BRANCH   3   5
HETATM    5  C2  UNL     1      22.357   3.399  51.954  1.00  0.00    -0.045 C 
HETATM    6  C1  UNL     1      21.365   3.377  51.051  1.00  0.00     0.021 C 
HETATM    7  C3  UNL     1      22.447   4.824  52.257  1.00  0.00     0.049 C 
ENDBRANCH   3   5
BRANCH   4   8
HETATM    8  C6  UNL     1      25.238   2.571  53.615  1.00  0.00     0.096 C 
BRANCH   8   9
HETATM    9  C7  UNL     1      26.434   1.663  53.598  1.00  0.00     0.080 A 
HETATM   10  N1  UNL     1      27.586   1.688  53.897  1.00  0.00    -0.244 NA
HETATM   11  C8  UNL     1      28.401   0.640  53.754  1.00  0.00     0.086 A 
HETATM   12  C9  UNL     1      27.916  -0.569  53.228  1.00  0.00     0.036 A 
HETATM   13  C12 UNL     1      29.683   0.446  54.013  1.00  0.00     0.007 A 
HETATM   14  S1  UNL     1      26.166  -0.080  52.948  1.00  0.00    -0.072 SA
HETATM   15  C10 UNL     1      28.911  -1.450  53.188  1.00  0.00     0.022 A 
HETATM   16  C11 UNL     1      30.088  -0.763  53.719  1.00  0.00     0.016 A 
ENDBRANCH   8   9
ENDBRANCH   4   8
ENDBRANCH   1   3
BRANCH   1  17
HETATM   17  C13 UNL     1      21.689   0.037  52.754  1.00  0.00     0.142 A 
HETATM   18  N3  UNL     1      22.439  -0.599  53.700  1.00  0.00    -0.224 NA
HETATM   19  C14 UNL     1      21.852  -1.505  54.540  1.00  0.00     0.236 A 
HETATM   20  N4  UNL     1      20.532  -1.822  54.491  1.00  0.00    -0.241 NA
HETATM   21  C15 UNL     1      19.717  -1.227  53.570  1.00  0.00     0.075 A 
HETATM   22  C16 UNL     1      18.375  -1.521  53.470  1.00  0.00     0.072 A 
HETATM   23  C22 UNL     1      20.364  -0.327  52.758  1.00  0.00     0.042 A 
HETATM   24  C17 UNL     1      17.589  -0.906  52.516  1.00  0.00     0.103 A 
HETATM   25  C19 UNL     1      18.208   0.002  51.685  1.00  0.00     0.102 A 
HETATM   26  C21 UNL     1      19.565   0.293  51.794  1.00  0.00     0.057 A 
BRANCH  24  27
HETATM   27  O1  UNL     1      16.250  -1.189  52.401  1.00  0.00    -0.353 OA
HETATM   28  C18 UNL     1      15.685  -2.464  52.445  1.00  0.00     0.210 C 
ENDBRANCH  24  27
BRANCH  25  29
HETATM   29  O2  UNL     1      17.398   0.602  50.736  1.00  0.00    -0.353 OA
HETATM   30  C20 UNL     1      17.629   1.917  50.252  1.00  0.00     0.210 C 
ENDBRANCH  25  29
ENDBRANCH   1  17
TORSDOF 7
ENDMDL
MODEL 5
REMARK VINA RESULT:      -7.8      2.783      4.663
REMARK  7 active torsions:
REMARK  status: ('A' for Active; 'I' for Inactive)
REMARK    1  A    between atoms: C2_2  and  C4_4 
REMARK    2  A    between atoms: C4_4  and  N2_15 
REMARK    3  A    between atoms: C5_5  and  C6_6 
REMARK    4  A    between atoms: C6_6  and  C7_7 
REMARK    5  A    between atoms: N2_15  and  C13_16 
REMARK    6  A    between atoms: C17_22  and  O1_23 
REMARK    7  A    between atoms: C19_25  and  O2_26 
ROOT
HETATM    1  N2  UNL     1      24.436   3.540  52.702  1.00  0.00    -0.340 N 
HETATM    2  H11 UNL     1      24.634   3.951  53.632  1.00  0.00     0.167 HD
ENDROOT
BRANCH   1   3
HETATM    3  C4  UNL     1      25.371   2.801  51.937  1.00  0.00     0.035 C 
HETATM    4  C5  UNL     1      25.661   3.239  50.754  1.00  0.00     0.010 C 
BRANCH   3   5
HETATM    5  C2  UNL     1      25.933   1.609  52.605  1.00  0.00    -0.045 C 
HETATM    6  C1  UNL     1      26.177   1.697  53.921  1.00  0.00     0.021 C 
HETATM    7  C3  UNL     1      26.362   0.244  52.318  1.00  0.00     0.049 C 
ENDBRANCH   3   5
BRANCH   4   8
HETATM    8  C6  UNL     1      26.459   3.035  49.534  1.00  0.00     0.096 C 
BRANCH   8   9
HETATM    9  C7  UNL     1      27.054   4.333  49.069  1.00  0.00     0.080 A 
HETATM   10  N1  UNL     1      28.068   4.739  48.596  1.00  0.00    -0.244 NA
HETATM   11  C8  UNL     1      28.263   6.020  48.273  1.00  0.00     0.086 A 
HETATM   12  C9  UNL     1      27.246   6.967  48.485  1.00  0.00     0.036 A 
HETATM   13  C12 UNL     1      29.283   6.678  47.750  1.00  0.00     0.007 A 
HETATM   14  S1  UNL     1      25.964   5.859  49.198  1.00  0.00    -0.072 SA
HETATM   15  C10 UNL     1      27.680   8.158  48.083  1.00  0.00     0.022 A 
HETATM   16  C11 UNL     1      29.041   7.954  47.590  1.00  0.00     0.016 A 
ENDBRANCH   8   9
ENDBRANCH   4   8
ENDBRANCH   1   3
BRANCH   1  17
HETATM   17  C13 UNL     1      23.121   3.788  52.275  1.00  0.00     0.142 A 
HETATM   18  N3  UNL     1      22.765   5.020  51.805  1.00  0.00    -0.224 NA
HETATM   19  C14 UNL     1      21.477   5.253  51.409  1.00  0.00     0.236 A 
HETATM   20  N4  UNL     1      20.500   4.311  51.456  1.00  0.00    -0.241 NA
HETATM   21  C15 UNL     1      20.779   3.054  51.915  1.00  0.00     0.075 A 
HETATM   22  C16 UNL     1      19.823   2.066  51.994  1.00  0.00     0.072 A 
HETATM   23  C22 UNL     1      22.088   2.883  52.295  1.00  0.00     0.042 A 
HETATM   24  C17 UNL     1      20.144   0.813  52.476  1.00  0.00     0.103 A 
HETATM   25  C19 UNL     1      21.449   0.608  52.866  1.00  0.00     0.102 A 
HETATM   26  C21 UNL     1      22.409   1.613  52.782  1.00  0.00     0.057 A 
BRANCH  24  27
HETATM   27  O1  UNL     1      19.202  -0.183  52.564  1.00  0.00    -0.353 OA
HETATM   28  C18 UNL     1      17.896  -0.107  52.082  1.00  0.00     0.210 C 
ENDBRANCH  24  27
BRANCH  25  29
HETATM   29  O2  UNL     1      21.744  -0.656  53.349  1.00  0.00    -0.353 OA
HETATM   30  C20 UNL     1      21.862  -0.940  54.735  1.00  0.00     0.210 C 
ENDBRANCH  25  29
ENDBRANCH   1  17
TORSDOF 7
ENDMDL
MODEL 6
REMARK VINA RESULT:      -7.7      3.517      5.552
REMARK  7 active torsions:
REMARK  status: ('A' for Active; 'I' for Inactive)
REMARK    1  A    between atoms: C2_2  and  C4_4 
REMARK    2  A    between atoms: C4_4  and  N2_15 
REMARK    3  A    between atoms: C5_5  and  C6_6 
REMARK    4  A    between atoms: C6_6  and  C7_7 
REMARK    5  A    between atoms: N2_15  and  C13_16 
REMARK    6  A    between atoms: C17_22  and  O1_23 
REMARK    7  A    between atoms: C19_25  and  O2_26 
ROOT
HETATM    1  N2  UNL     1      23.618   0.585  52.023  1.00  0.00    -0.340 N 
HETATM    2  H11 UNL     1      23.800  -0.021  51.202  1.00  0.00     0.167 HD
ENDROOT
BRANCH   1   3
HETATM    3  C4  UNL     1      24.176   1.873  52.206  1.00  0.00     0.035 C 
HETATM    4  C5  UNL     1      23.402   2.895  52.025  1.00  0.00     0.010 C 
BRANCH   3   5
HETATM    5  C2  UNL     1      25.595   1.896  52.614  1.00  0.00    -0.045 C 
HETATM    6  C1  UNL     1      25.858   1.981  53.927  1.00  0.00     0.021 C 
HETATM    7  C3  UNL     1      26.940   1.861  52.047  1.00  0.00     0.049 C 
ENDBRANCH   3   5
BRANCH   4   8
HETATM    8  C6  UNL     1      23.286   4.363  52.047  1.00  0.00     0.096 C 
BRANCH   8   9
HETATM    9  C7  UNL     1      24.288   4.986  51.119  1.00  0.00     0.080 A 
HETATM   10  N1  UNL     1      25.138   4.650  50.357  1.00  0.00    -0.244 NA
HETATM   11  C8  UNL     1      25.868   5.514  49.646  1.00  0.00     0.086 A 
HETATM   12  C9  UNL     1      25.652   6.897  49.774  1.00  0.00     0.036 A 
HETATM   13  C12 UNL     1      26.840   5.368  48.762  1.00  0.00     0.007 A 
HETATM   14  S1  UNL     1      24.298   6.863  51.018  1.00  0.00    -0.072 SA
HETATM   15  C10 UNL     1      26.493   7.539  48.968  1.00  0.00     0.022 A 
HETATM   16  C11 UNL     1      27.280   6.507  48.293  1.00  0.00     0.016 A 
ENDBRANCH   8   9
ENDBRANCH   4   8
ENDBRANCH   1   3
BRANCH   1  17
HETATM   17  C13 UNL     1      22.742  -0.010  52.945  1.00  0.00     0.142 A 
HETATM   18  N3  UNL     1      23.212  -0.514  54.124  1.00  0.00    -0.224 NA
HETATM   19  C14 UNL     1      22.350  -1.107  55.004  1.00  0.00     0.236 A 
HETATM   20  N4  UNL     1      21.017  -1.230  54.775  1.00  0.00    -0.241 NA
HETATM   21  C15 UNL     1      20.472  -0.750  53.618  1.00  0.00     0.075 A 
HETATM   22  C16 UNL     1      19.129  -0.861  53.331  1.00  0.00     0.072 A 
HETATM   23  C22 UNL     1      21.387  -0.166  52.777  1.00  0.00     0.042 A 
HETATM   24  C17 UNL     1      18.621  -0.374  52.143  1.00  0.00     0.103 A 
HETATM   25  C19 UNL     1      19.513   0.218  51.276  1.00  0.00     0.102 A 
HETATM   26  C21 UNL     1      20.869   0.325  51.576  1.00  0.00     0.057 A 
BRANCH  24  27
HETATM   27  O1  UNL     1      17.285  -0.477  51.840  1.00  0.00    -0.353 OA
HETATM   28  C18 UNL     1      16.280   0.365  52.315  1.00  0.00     0.210 C 
ENDBRANCH  24  27
BRANCH  25  29
HETATM   29  O2  UNL     1      18.979   0.696  50.091  1.00  0.00    -0.353 OA
HETATM   30  C20 UNL     1      19.392   1.919  49.502  1.00  0.00     0.210 C 
ENDBRANCH  25  29
ENDBRANCH   1  17
TORSDOF 7
ENDMDL
MODEL 7
REMARK VINA RESULT:      -7.7      3.863      6.033
REMARK  7 active torsions:
REMARK  status: ('A' for Active; 'I' for Inactive)
REMARK    1  A    between atoms: C2_2  and  C4_4 
REMARK    2  A    between atoms: C4_4  and  N2_15 
REMARK    3  A    between atoms: C5_5  and  C6_6 
REMARK    4  A    between atoms: C6_6  and  C7_7 
REMARK    5  A    between atoms: N2_15  and  C13_16 
REMARK    6  A    between atoms: C17_22  and  O1_23 
REMARK    7  A    between atoms: C19_25  and  O2_26 
ROOT
HETATM    1  N2  UNL     1      22.088   0.939  51.488  1.00  0.00    -0.340 N 
HETATM    2  H11 UNL     1      22.301   0.428  50.612  1.00  0.00     0.167 HD
ENDROOT
BRANCH   1   3
HETATM    3  C4  UNL     1      21.551   2.248  51.541  1.00  0.00     0.035 C 
HETATM    4  C5  UNL     1      22.378   3.230  51.706  1.00  0.00     0.010 C 
BRANCH   3   5
HETATM    5  C2  UNL     1      20.086   2.338  51.373  1.00  0.00    -0.045 C 
HETATM    6  C1  UNL     1      19.473   1.319  50.752  1.00  0.00     0.021 C 
HETATM    7  C3  UNL     1      18.963   3.224  51.663  1.00  0.00     0.049 C 
ENDBRANCH   3   5
BRANCH   4   8
HETATM    8  C6  UNL     1      22.538   4.689  51.828  1.00  0.00     0.096 C 
BRANCH   8   9
HETATM    9  C7  UNL     1      23.725   5.158  51.039  1.00  0.00     0.080 A 
HETATM   10  N1  UNL     1      24.580   4.704  50.345  1.00  0.00    -0.244 NA
HETATM   11  C8  UNL     1      25.519   5.451  49.758  1.00  0.00     0.086 A 
HETATM   12  C9  UNL     1      25.535   6.844  49.942  1.00  0.00     0.036 A 
HETATM   13  C12 UNL     1      26.540   5.167  48.967  1.00  0.00     0.007 A 
HETATM   14  S1  UNL     1      24.071   7.005  51.044  1.00  0.00    -0.072 SA
HETATM   15  C10 UNL     1      26.555   7.355  49.259  1.00  0.00     0.022 A 
HETATM   16  C11 UNL     1      27.218   6.226  48.608  1.00  0.00     0.016 A 
ENDBRANCH   8   9
ENDBRANCH   4   8
ENDBRANCH   1   3
BRANCH   1  17
HETATM   17  C13 UNL     1      22.382   0.183  52.635  1.00  0.00     0.142 A 
HETATM   18  N3  UNL     1      21.391  -0.464  53.313  1.00  0.00    -0.224 NA
HETATM   19  C14 UNL     1      21.689  -1.181  54.439  1.00  0.00     0.236 A 
HETATM   20  N4  UNL     1      22.947  -1.293  54.941  1.00  0.00    -0.241 NA
HETATM   21  C15 UNL     1      23.992  -0.673  54.317  1.00  0.00     0.075 A 
HETATM   22  C16 UNL     1      25.284  -0.744  54.790  1.00  0.00     0.072 A 
HETATM   23  C22 UNL     1      23.628   0.029  53.193  1.00  0.00     0.042 A 
HETATM   24  C17 UNL     1      26.310  -0.092  54.137  1.00  0.00     0.103 A 
HETATM   25  C19 UNL     1      25.978   0.622  53.006  1.00  0.00     0.102 A 
HETATM   26  C21 UNL     1      24.669   0.688  52.535  1.00  0.00     0.057 A 
BRANCH  24  27
HETATM   27  O1  UNL     1      27.603  -0.150  54.596  1.00  0.00    -0.353 OA
HETATM   28  C18 UNL     1      28.642  -0.863  53.998  1.00  0.00     0.210 C 
ENDBRANCH  24  27
BRANCH  25  29
HETATM   29  O2  UNL     1      27.025   1.270  52.371  1.00  0.00    -0.353 OA
HETATM   30  C20 UNL     1      26.822   2.271  51.385  1.00  0.00     0.210 C 
ENDBRANCH  25  29
ENDBRANCH   1  17
TORSDOF 7
ENDMDL
MODEL 8
REMARK VINA RESULT:      -7.7      3.928      7.348
REMARK  7 active torsions:
REMARK  status: ('A' for Active; 'I' for Inactive)
REMARK    1  A    between atoms: C2_2  and  C4_4 
REMARK    2  A    between atoms: C4_4  and  N2_15 
REMARK    3  A    between atoms: C5_5  and  C6_6 
REMARK    4  A    between atoms: C6_6  and  C7_7 
REMARK    5  A    between atoms: N2_15  and  C13_16 
REMARK    6  A    between atoms: C17_22  and  O1_23 
REMARK    7  A    between atoms: C19_25  and  O2_26 
ROOT
HETATM    1  N2  UNL     1      23.760   3.264  49.852  1.00  0.00    -0.340 N 
HETATM    2  H11 UNL     1      24.307   3.185  48.975  1.00  0.00     0.167 HD
ENDROOT
BRANCH   1   3
HETATM    3  C4  UNL     1      23.359   2.163  50.647  1.00  0.00     0.035 C 
HETATM    4  C5  UNL     1      24.013   1.942  51.743  1.00  0.00     0.010 C 
BRANCH   3   5
HETATM    5  C2  UNL     1      22.204   1.399  50.132  1.00  0.00    -0.045 C 
HETATM    6  C1  UNL     1      21.880   1.567  48.841  1.00  0.00     0.021 C 
HETATM    7  C3  UNL     1      21.192   0.441  50.567  1.00  0.00     0.049 C 
ENDBRANCH   3   5
BRANCH   4   8
HETATM    8  C6  UNL     1      24.144   1.098  52.942  1.00  0.00     0.096 C 
BRANCH   8   9
HETATM    9  C7  UNL     1      25.559   0.624  53.101  1.00  0.00     0.080 A 
HETATM   10  N1  UNL     1      26.199  -0.366  52.938  1.00  0.00    -0.244 NA
HETATM   11  C8  UNL     1      27.511  -0.437  53.179  1.00  0.00     0.086 A 
HETATM   12  C9  UNL     1      28.208   0.690  53.647  1.00  0.00     0.036 A 
HETATM   13  C12 UNL     1      28.402  -1.408  53.071  1.00  0.00     0.007 A 
HETATM   14  S1  UNL     1      26.810   1.883  53.720  1.00  0.00    -0.072 SA
HETATM   15  C10 UNL     1      29.488   0.368  53.804  1.00  0.00     0.022 A 
HETATM   16  C11 UNL     1      29.608  -1.036  53.413  1.00  0.00     0.016 A 
ENDBRANCH   8   9
ENDBRANCH   4   8
ENDBRANCH   1   3
BRANCH   1  17
HETATM   17  C13 UNL     1      23.459   4.597  50.179  1.00  0.00     0.142 A 
HETATM   18  N3  UNL     1      22.309   4.905  50.847  1.00  0.00    -0.224 NA
HETATM   19  C14 UNL     1      22.020   6.208  51.142  1.00  0.00     0.236 A 
HETATM   20  N4  UNL     1      22.827   7.247  50.804  1.00  0.00    -0.241 NA
HETATM   21  C15 UNL     1      23.996   7.018  50.133  1.00  0.00     0.075 A 
HETATM   22  C16 UNL     1      24.843   8.036  49.756  1.00  0.00     0.072 A 
HETATM   23  C22 UNL     1      24.229   5.690  49.868  1.00  0.00     0.042 A 
HETATM   24  C17 UNL     1      26.009   7.762  49.068  1.00  0.00     0.103 A 
HETATM   25  C19 UNL     1      26.273   6.440  48.785  1.00  0.00     0.102 A 
HETATM   26  C21 UNL     1      25.410   5.418  49.171  1.00  0.00     0.057 A 
BRANCH  24  27
HETATM   27  O1  UNL     1      26.865   8.765  48.682  1.00  0.00    -0.353 OA
HETATM   28  C18 UNL     1      26.525   9.856  47.883  1.00  0.00     0.210 C 
ENDBRANCH  24  27
BRANCH  25  29
HETATM   29  O2  UNL     1      27.446   6.193  48.092  1.00  0.00    -0.353 OA
HETATM   30  C20 UNL     1      28.353   5.164  48.461  1.00  0.00     0.210 C 
ENDBRANCH  25  29
ENDBRANCH   1  17
TORSDOF 7
ENDMDL
MODEL 9
REMARK VINA RESULT:      -7.6      5.136      7.088
REMARK  7 active torsions:
REMARK  status: ('A' for Active; 'I' for Inactive)
REMARK    1  A    between atoms: C2_2  and  C4_4 
REMARK    2  A    between atoms: C4_4  and  N2_15 
REMARK    3  A    between atoms: C5_5  and  C6_6 
REMARK    4  A    between atoms: C6_6  and  C7_7 
REMARK    5  A    between atoms: N2_15  and  C13_16 
REMARK    6  A    between atoms: C17_22  and  O1_23 
REMARK    7  A    between atoms: C19_25  and  O2_26 
ROOT
HETATM    1  N2  UNL     1      21.634   0.101  51.385  1.00  0.00    -0.340 N 
HETATM    2  H11 UNL     1      21.536  -0.668  50.697  1.00  0.00     0.167 HD
ENDROOT
BRANCH   1   3
HETATM    3  C4  UNL     1      21.459   1.472  51.082  1.00  0.00     0.035 C 
HETATM    4  C5  UNL     1      20.952   2.232  52.000  1.00  0.00     0.010 C 
BRANCH   3   5
HETATM    5  C2  UNL     1      21.907   1.885  49.736  1.00  0.00    -0.045 C 
HETATM    6  C1  UNL     1      23.147   2.387  49.626  1.00  0.00     0.021 C 
HETATM    7  C3  UNL     1      21.439   1.955  48.356  1.00  0.00     0.049 C 
ENDBRANCH   3   5
BRANCH   4   8
HETATM    8  C6  UNL     1      20.540   3.596  52.373  1.00  0.00     0.096 C 
BRANCH   8   9
HETATM    9  C7  UNL     1      21.478   4.609  51.785  1.00  0.00     0.080 A 
HETATM   10  N1  UNL     1      21.476   5.461  50.953  1.00  0.00    -0.244 NA
HETATM   11  C8  UNL     1      22.537   6.226  50.687  1.00  0.00     0.086 A 
HETATM   12  C9  UNL     1      23.734   6.052  51.402  1.00  0.00     0.036 A 
HETATM   13  C12 UNL     1      22.755   7.207  49.828  1.00  0.00     0.007 A 
HETATM   14  S1  UNL     1      23.213   4.677  52.506  1.00  0.00    -0.072 SA
HETATM   15  C10 UNL     1      24.631   6.928  50.957  1.00  0.00     0.022 A 
HETATM   16  C11 UNL     1      23.965   7.698  49.907  1.00  0.00     0.016 A 
ENDBRANCH   8   9
ENDBRANCH   4   8
ENDBRANCH   1   3
BRANCH   1  17
HETATM   17  C13 UNL     1      21.957  -0.366  52.670  1.00  0.00     0.142 A 
HETATM   18  N3  UNL     1      20.976  -0.766  53.530  1.00  0.00    -0.224 NA
HETATM   19  C14 UNL     1      21.303  -1.201  54.784  1.00  0.00     0.236 A 
HETATM   20  N4  UNL     1      22.580  -1.262  55.243  1.00  0.00    -0.241 NA
HETATM   21  C15 UNL     1      23.617  -0.878  54.441  1.00  0.00     0.075 A 
HETATM   22  C16 UNL     1      24.929  -0.909  54.861  1.00  0.00     0.072 A 
HETATM   23  C22 UNL     1      23.224  -0.453  53.195  1.00  0.00     0.042 A 
HETATM   24  C17 UNL     1      25.946  -0.499  54.022  1.00  0.00     0.103 A 
HETATM   25  C19 UNL     1      25.585  -0.066  52.765  1.00  0.00     0.102 A 
HETATM   26  C21 UNL     1      24.257  -0.039  52.349  1.00  0.00     0.057 A 
BRANCH  24  27
HETATM   27  O1  UNL     1      27.259  -0.521  54.425  1.00  0.00    -0.353 OA
HETATM   28  C18 UNL     1      27.988   0.583  54.867  1.00  0.00     0.210 C 
ENDBRANCH  24  27
BRANCH  25  29
HETATM   29  O2  UNL     1      26.624   0.341  51.945  1.00  0.00    -0.353 OA
HETATM   30  C20 UNL     1      26.719   1.659  51.426  1.00  0.00     0.210 C 
ENDBRANCH  25  29
ENDBRANCH   1  17
TORSDOF 7
ENDMDL
