MODEL 1
REMARK VINA RESULT:      -6.2      0.000      0.000
REMARK  4 active torsions:
REMARK  status: ('A' for Active; 'I' for Inactive)
REMARK    1  A    between atoms: C2_3  and  C3_4 
REMARK    2  A    between atoms: C3_4  and  C4_5 
REMARK    3  A    between atoms: C12_14  and  C13_15 
REMARK    4  A    between atoms: C13_15  and  C14_16 
ROOT
HETATM    1  N1  UNL     1      26.880   2.923  50.740  1.00  0.00    -0.197 NA
HETATM    2  C1  UNL     1      26.589   3.807  50.034  1.00  0.00     0.059 C 
HETATM    3  C2  UNL     1      26.206   4.899  49.147  1.00  0.00     0.128 C 
ENDROOT
BRANCH   3   4
HETATM    4  C3  UNL     1      25.177   5.756  49.851  1.00  0.00     0.056 C 
BRANCH   4   5
HETATM    5  C4  UNL     1      23.789   5.213  49.608  1.00  0.00    -0.015 C 
HETATM    6  C5  UNL     1      23.022   4.320  48.943  1.00  0.00     0.083 C 
HETATM    7  N2  UNL     1      22.323   5.389  48.227  1.00  0.00    -0.379 N 
HETATM    8  S2  UNL     1      23.107   2.596  49.084  1.00  0.00    -0.039 SA
HETATM    9  C6  UNL     1      22.538   6.609  49.072  1.00  0.00     0.159 C 
HETATM   10  H5  UNL     1      21.819   5.149  47.312  1.00  0.00     0.160 HD
HETATM   11  C7  UNL     1      22.737   5.870  50.345  1.00  0.00    -0.032 C 
HETATM   12  C8  UNL     1      21.960   5.991  51.375  1.00  0.00     0.009 C 
HETATM   13  C9  UNL     1      22.631   4.825  51.853  1.00  0.00    -0.003 C 
HETATM   14  C10 UNL     1      23.458   3.830  51.895  1.00  0.00    -0.026 C 
HETATM   15  C11 UNL     1      23.748   2.709  52.837  1.00  0.00     0.043 C 
HETATM   16  C12 UNL     1      23.527   1.397  52.070  1.00  0.00     0.063 C 
HETATM   17  S1  UNL     1      22.363   1.627  50.758  1.00  0.00    -0.086 SA
BRANCH  16  18
HETATM   18  C13 UNL     1      23.478   0.181  52.890  1.00  0.00     0.030 C 
BRANCH  18  19
HETATM   19  C14 UNL     1      22.157   0.145  53.675  1.00  0.00     0.125 C 
HETATM   20  C15 UNL     1      22.223  -0.929  54.638  1.00  0.00     0.059 C 
HETATM   21  N3  UNL     1      22.269  -1.776  55.404  1.00  0.00    -0.197 NA
ENDBRANCH  18  19
ENDBRANCH  16  18
ENDBRANCH   4   5
ENDBRANCH   3   4
TORSDOF 4
ENDMDL
MODEL 2
REMARK VINA RESULT:      -6.2      2.777      6.367
REMARK  4 active torsions:
REMARK  status: ('A' for Active; 'I' for Inactive)
REMARK    1  A    between atoms: C2_3  and  C3_4 
REMARK    2  A    between atoms: C3_4  and  C4_5 
REMARK    3  A    between atoms: C12_14  and  C13_15 
REMARK    4  A    between atoms: C13_15  and  C14_16 
ROOT
HETATM    1  N1  UNL     1      26.970   2.043  54.176  1.00  0.00    -0.197 NA
HETATM    2  C1  UNL     1      26.016   1.454  53.847  1.00  0.00     0.059 C 
HETATM    3  C2  UNL     1      24.813   0.740  53.437  1.00  0.00     0.128 C 
ENDROOT
BRANCH   3   4
HETATM    4  C3  UNL     1      24.580   0.989  51.963  1.00  0.00     0.056 C 
BRANCH   4   5
HETATM    5  C4  UNL     1      23.428   1.946  51.771  1.00  0.00    -0.015 C 
HETATM    6  C5  UNL     1      22.733   2.996  52.263  1.00  0.00     0.083 C 
HETATM    7  N2  UNL     1      21.533   2.176  52.438  1.00  0.00    -0.379 N 
HETATM    8  S2  UNL     1      23.342   4.599  52.509  1.00  0.00    -0.039 SA
HETATM    9  C6  UNL     1      21.735   1.014  51.511  1.00  0.00     0.159 C 
HETATM   10  H5  UNL     1      20.781   2.507  53.126  1.00  0.00     0.160 HD
HETATM   11  C7  UNL     1      22.644   1.729  50.579  1.00  0.00    -0.032 C 
HETATM   12  C8  UNL     1      22.368   1.944  49.332  1.00  0.00     0.009 C 
HETATM   13  C9  UNL     1      23.472   2.850  49.381  1.00  0.00    -0.003 C 
HETATM   14  C10 UNL     1      24.480   3.513  49.850  1.00  0.00    -0.026 C 
HETATM   15  C11 UNL     1      25.435   4.534  49.328  1.00  0.00     0.043 C 
HETATM   16  C12 UNL     1      25.285   5.790  50.200  1.00  0.00     0.063 C 
HETATM   17  S1  UNL     1      23.666   5.871  50.907  1.00  0.00    -0.086 SA
BRANCH  16  18
HETATM   18  C13 UNL     1      25.922   7.005  49.679  1.00  0.00     0.030 C 
BRANCH  18  19
HETATM   19  C14 UNL     1      26.828   6.642  48.492  1.00  0.00     0.125 C 
HETATM   20  C15 UNL     1      28.014   7.464  48.549  1.00  0.00     0.059 C 
HETATM   21  N3  UNL     1      28.955   8.110  48.589  1.00  0.00    -0.197 NA
ENDBRANCH  18  19
ENDBRANCH  16  18
ENDBRANCH   4   5
ENDBRANCH   3   4
TORSDOF 4
ENDMDL
MODEL 3
REMARK VINA RESULT:      -6.2      2.976      4.463
REMARK  4 active torsions:
REMARK  status: ('A' for Active; 'I' for Inactive)
REMARK    1  A    between atoms: C2_3  and  C3_4 
REMARK    2  A    between atoms: C3_4  and  C4_5 
REMARK    3  A    between atoms: C12_14  and  C13_15 
REMARK    4  A    between atoms: C13_15  and  C14_16 
ROOT
HETATM    1  N1  UNL     1      21.678   4.779  46.753  1.00  0.00    -0.197 NA
HETATM    2  C1  UNL     1      21.847   4.067  47.663  1.00  0.00     0.059 C 
HETATM    3  C2  UNL     1      22.060   3.160  48.784  1.00  0.00     0.128 C 
ENDROOT
BRANCH   3   4
HETATM    4  C3  UNL     1      23.538   2.849  48.882  1.00  0.00     0.056 C 
BRANCH   4   5
HETATM    5  C4  UNL     1      24.183   3.705  49.946  1.00  0.00    -0.015 C 
HETATM    6  C5  UNL     1      24.071   4.265  51.171  1.00  0.00     0.083 C 
HETATM    7  N2  UNL     1      24.091   5.614  50.604  1.00  0.00    -0.379 N 
HETATM    8  S2  UNL     1      23.935   3.415  52.675  1.00  0.00    -0.039 SA
HETATM    9  C6  UNL     1      24.729   5.445  49.257  1.00  0.00     0.159 C 
HETATM   10  H5  UNL     1      23.691   6.422  51.185  1.00  0.00     0.160 HD
HETATM   11  C7  UNL     1      25.488   4.218  49.610  1.00  0.00    -0.032 C 
HETATM   12  C8  UNL     1      26.782   4.148  49.600  1.00  0.00     0.009 C 
HETATM   13  C9  UNL     1      26.589   2.925  50.312  1.00  0.00    -0.003 C 
HETATM   14  C10 UNL     1      25.982   1.939  50.892  1.00  0.00    -0.026 C 
HETATM   15  C11 UNL     1      26.390   0.701  51.619  1.00  0.00     0.043 C 
HETATM   16  C12 UNL     1      25.805   0.788  53.037  1.00  0.00     0.063 C 
HETATM   17  S1  UNL     1      25.578   2.476  53.517  1.00  0.00    -0.086 SA
BRANCH  16  18
HETATM   18  C13 UNL     1      26.328  -0.186  54.002  1.00  0.00     0.030 C 
BRANCH  18  19
HETATM   19  C14 UNL     1      27.833  -0.388  53.763  1.00  0.00     0.125 C 
HETATM   20  C15 UNL     1      28.551   0.666  54.441  1.00  0.00     0.059 C 
HETATM   21  N3  UNL     1      29.126   1.495  54.976  1.00  0.00    -0.197 NA
ENDBRANCH  18  19
ENDBRANCH  16  18
ENDBRANCH   4   5
ENDBRANCH   3   4
TORSDOF 4
ENDMDL
MODEL 4
REMARK VINA RESULT:      -6.1      1.928      3.538
REMARK  4 active torsions:
REMARK  status: ('A' for Active; 'I' for Inactive)
REMARK    1  A    between atoms: C2_3  and  C3_4 
REMARK    2  A    between atoms: C3_4  and  C4_5 
REMARK    3  A    between atoms: C12_14  and  C13_15 
REMARK    4  A    between atoms: C13_15  and  C14_16 
ROOT
HETATM    1  N1  UNL     1      20.129   5.702  48.445  1.00  0.00    -0.197 NA
HETATM    2  C1  UNL     1      21.237   6.057  48.343  1.00  0.00     0.059 C 
HETATM    3  C2  UNL     1      22.622   6.498  48.238  1.00  0.00     0.128 C 
ENDROOT
BRANCH   3   4
HETATM    4  C3  UNL     1      23.522   5.282  48.275  1.00  0.00     0.056 C 
BRANCH   4   5
HETATM    5  C4  UNL     1      24.385   5.309  49.513  1.00  0.00    -0.015 C 
HETATM    6  C5  UNL     1      24.513   5.712  50.797  1.00  0.00     0.083 C 
HETATM    7  N2  UNL     1      25.630   6.594  50.455  1.00  0.00    -0.379 N 
HETATM    8  S2  UNL     1      23.527   5.208  52.130  1.00  0.00    -0.039 SA
HETATM    9  C6  UNL     1      26.154   6.049  49.159  1.00  0.00     0.159 C 
HETATM   10  H5  UNL     1      25.870   7.400  51.119  1.00  0.00     0.160 HD
HETATM   11  C7  UNL     1      25.668   4.662  49.379  1.00  0.00    -0.032 C 
HETATM   12  C8  UNL     1      26.451   3.634  49.471  1.00  0.00     0.009 C 
HETATM   13  C9  UNL     1      25.291   2.961  49.961  1.00  0.00    -0.003 C 
HETATM   14  C10 UNL     1      24.063   2.760  50.322  1.00  0.00    -0.026 C 
HETATM   15  C11 UNL     1      23.276   1.620  50.877  1.00  0.00     0.043 C 
HETATM   16  C12 UNL     1      22.714   2.069  52.234  1.00  0.00     0.063 C 
HETATM   17  S1  UNL     1      23.738   3.319  52.954  1.00  0.00    -0.086 SA
BRANCH  16  18
HETATM   18  C13 UNL     1      22.155   1.004  53.075  1.00  0.00     0.030 C 
BRANCH  18  19
HETATM   19  C14 UNL     1      23.244  -0.039  53.374  1.00  0.00     0.125 C 
HETATM   20  C15 UNL     1      22.780  -0.895  54.441  1.00  0.00     0.059 C 
HETATM   21  N3  UNL     1      22.420  -1.577  55.284  1.00  0.00    -0.197 NA
ENDBRANCH  18  19
ENDBRANCH  16  18
ENDBRANCH   4   5
ENDBRANCH   3   4
TORSDOF 4
ENDMDL
MODEL 5
REMARK VINA RESULT:      -6.0      3.486      4.638
REMARK  4 active torsions:
REMARK  status: ('A' for Active; 'I' for Inactive)
REMARK    1  A    between atoms: C2_3  and  C3_4 
REMARK    2  A    between atoms: C3_4  and  C4_5 
REMARK    3  A    between atoms: C12_14  and  C13_15 
REMARK    4  A    between atoms: C13_15  and  C14_16 
ROOT
HETATM    1  N1  UNL     1      27.660   4.404  48.905  1.00  0.00    -0.197 NA
HETATM    2  C1  UNL     1      26.567   4.303  49.305  1.00  0.00     0.059 C 
HETATM    3  C2  UNL     1      25.199   4.163  49.788  1.00  0.00     0.128 C 
ENDROOT
BRANCH   3   4
HETATM    4  C3  UNL     1      25.063   2.824  50.479  1.00  0.00     0.056 C 
BRANCH   4   5
HETATM    5  C4  UNL     1      24.191   2.955  51.705  1.00  0.00    -0.015 C 
HETATM    6  C5  UNL     1      23.292   3.705  52.381  1.00  0.00     0.083 C 
HETATM    7  N2  UNL     1      24.230   3.909  53.487  1.00  0.00    -0.379 N 
HETATM    8  S2  UNL     1      21.700   4.123  51.844  1.00  0.00    -0.039 SA
HETATM    9  C6  UNL     1      25.215   2.785  53.356  1.00  0.00     0.159 C 
HETATM   10  H5  UNL     1      24.074   4.741  54.145  1.00  0.00     0.160 HD
HETATM   11  C7  UNL     1      24.290   1.865  52.645  1.00  0.00    -0.032 C 
HETATM   12  C8  UNL     1      23.911   0.721  53.120  1.00  0.00     0.009 C 
HETATM   13  C9  UNL     1      22.932   0.763  52.081  1.00  0.00    -0.003 C 
HETATM   14  C10 UNL     1      22.264   1.189  51.057  1.00  0.00    -0.026 C 
HETATM   15  C11 UNL     1      21.097   0.712  50.258  1.00  0.00     0.043 C 
HETATM   16  C12 UNL     1      20.007   1.791  50.352  1.00  0.00     0.063 C 
HETATM   17  S1  UNL     1      20.174   2.721  51.847  1.00  0.00    -0.086 SA
BRANCH  16  18
HETATM   18  C13 UNL     1      18.676   1.392  49.880  1.00  0.00     0.030 C 
BRANCH  18  19
HETATM   19  C14 UNL     1      18.117   0.287  50.790  1.00  0.00     0.125 C 
HETATM   20  C15 UNL     1      16.881  -0.197  50.221  1.00  0.00     0.059 C 
HETATM   21  N3  UNL     1      15.904  -0.586  49.776  1.00  0.00    -0.197 NA
ENDBRANCH  18  19
ENDBRANCH  16  18
ENDBRANCH   4   5
ENDBRANCH   3   4
TORSDOF 4
ENDMDL
MODEL 6
REMARK VINA RESULT:      -5.9      2.358      3.862
REMARK  4 active torsions:
REMARK  status: ('A' for Active; 'I' for Inactive)
REMARK    1  A    between atoms: C2_3  and  C3_4 
REMARK    2  A    between atoms: C3_4  and  C4_5 
REMARK    3  A    between atoms: C12_14  and  C13_15 
REMARK    4  A    between atoms: C13_15  and  C14_16 
ROOT
HETATM    1  N1  UNL     1      21.104   3.694  44.084  1.00  0.00    -0.197 NA
HETATM    2  C1  UNL     1      20.966   3.750  45.242  1.00  0.00     0.059 C 
HETATM    3  C2  UNL     1      20.790   3.797  46.689  1.00  0.00     0.128 C 
ENDROOT
BRANCH   3   4
HETATM    4  C3  UNL     1      22.041   3.257  47.347  1.00  0.00     0.056 C 
BRANCH   4   5
HETATM    5  C4  UNL     1      22.273   3.945  48.671  1.00  0.00    -0.015 C 
HETATM    6  C5  UNL     1      21.744   4.682  49.673  1.00  0.00     0.083 C 
HETATM    7  N2  UNL     1      22.615   5.815  49.357  1.00  0.00    -0.379 N 
HETATM    8  S2  UNL     1      20.477   4.188  50.746  1.00  0.00    -0.039 SA
HETATM    9  C6  UNL     1      23.754   5.211  48.590  1.00  0.00     0.159 C 
HETATM   10  H5  UNL     1      22.329   6.792  49.694  1.00  0.00     0.160 HD
HETATM   11  C7  UNL     1      23.621   3.854  49.179  1.00  0.00    -0.032 C 
HETATM   12  C8  UNL     1      24.544   3.286  49.888  1.00  0.00     0.009 C 
HETATM   13  C9  UNL     1      23.519   2.356  50.239  1.00  0.00    -0.003 C 
HETATM   14  C10 UNL     1      22.358   1.783  50.274  1.00  0.00    -0.026 C 
HETATM   15  C11 UNL     1      21.758   0.608  50.973  1.00  0.00     0.043 C 
HETATM   16  C12 UNL     1      20.587   1.128  51.820  1.00  0.00     0.063 C 
HETATM   17  S1  UNL     1      20.837   2.822  52.261  1.00  0.00    -0.086 SA
BRANCH  16  18
HETATM   18  C13 UNL     1      20.046   0.184  52.805  1.00  0.00     0.030 C 
BRANCH  18  19
HETATM   19  C14 UNL     1      20.737   0.406  54.160  1.00  0.00     0.125 C 
HETATM   20  C15 UNL     1      21.281  -0.854  54.611  1.00  0.00     0.059 C 
HETATM   21  N3  UNL     1      21.716  -1.846  54.973  1.00  0.00    -0.197 NA
ENDBRANCH  18  19
ENDBRANCH  16  18
ENDBRANCH   4   5
ENDBRANCH   3   4
TORSDOF 4
ENDMDL
MODEL 7
REMARK VINA RESULT:      -5.9      3.111      4.013
REMARK  4 active torsions:
REMARK  status: ('A' for Active; 'I' for Inactive)
REMARK    1  A    between atoms: C2_3  and  C3_4 
REMARK    2  A    between atoms: C3_4  and  C4_5 
REMARK    3  A    between atoms: C12_14  and  C13_15 
REMARK    4  A    between atoms: C13_15  and  C14_16 
ROOT
HETATM    1  N1  UNL     1      20.062   2.680  47.618  1.00  0.00    -0.197 NA
HETATM    2  C1  UNL     1      21.191   2.579  47.897  1.00  0.00     0.059 C 
HETATM    3  C2  UNL     1      22.606   2.470  48.232  1.00  0.00     0.128 C 
ENDROOT
BRANCH   3   4
HETATM    4  C3  UNL     1      22.948   3.542  49.244  1.00  0.00     0.056 C 
BRANCH   4   5
HETATM    5  C4  UNL     1      22.263   3.257  50.559  1.00  0.00    -0.015 C 
HETATM    6  C5  UNL     1      21.497   2.405  51.276  1.00  0.00     0.083 C 
HETATM    7  N2  UNL     1      20.406   3.378  51.347  1.00  0.00    -0.379 N 
HETATM    8  S2  UNL     1      21.927   0.795  51.747  1.00  0.00    -0.039 SA
HETATM    9  C6  UNL     1      21.065   4.701  51.090  1.00  0.00     0.159 C 
HETATM   10  H5  UNL     1      19.415   3.025  51.554  1.00  0.00     0.160 HD
HETATM   11  C7  UNL     1      22.411   4.284  51.561  1.00  0.00    -0.032 C 
HETATM   12  C8  UNL     1      23.016   4.823  52.573  1.00  0.00     0.009 C 
HETATM   13  C9  UNL     1      23.896   3.703  52.474  1.00  0.00    -0.003 C 
HETATM   14  C10 UNL     1      24.417   2.600  52.036  1.00  0.00    -0.026 C 
HETATM   15  C11 UNL     1      25.559   1.720  52.423  1.00  0.00     0.043 C 
HETATM   16  C12 UNL     1      24.981   0.332  52.739  1.00  0.00     0.063 C 
HETATM   17  S1  UNL     1      23.297   0.460  53.264  1.00  0.00    -0.086 SA
BRANCH  16  18
HETATM   18  C13 UNL     1      25.893  -0.597  53.415  1.00  0.00     0.030 C 
BRANCH  18  19
HETATM   19  C14 UNL     1      27.223  -0.661  52.647  1.00  0.00     0.125 C 
HETATM   20  C15 UNL     1      27.794  -1.976  52.825  1.00  0.00     0.059 C 
HETATM   21  N3  UNL     1      28.252  -3.014  52.960  1.00  0.00    -0.197 NA
ENDBRANCH  18  19
ENDBRANCH  16  18
ENDBRANCH   4   5
ENDBRANCH   3   4
TORSDOF 4
ENDMDL
MODEL 8
REMARK VINA RESULT:      -5.9      7.532     10.436
REMARK  4 active torsions:
REMARK  status: ('A' for Active; 'I' for Inactive)
REMARK    1  A    between atoms: C2_3  and  C3_4 
REMARK    2  A    between atoms: C3_4  and  C4_5 
REMARK    3  A    between atoms: C12_14  and  C13_15 
REMARK    4  A    between atoms: C13_15  and  C14_16 
ROOT
HETATM    1  N1  UNL     1      28.699   4.939  48.366  1.00  0.00    -0.197 NA
HETATM    2  C1  UNL     1      28.429   6.061  48.188  1.00  0.00     0.059 C 
HETATM    3  C2  UNL     1      28.105   7.468  47.983  1.00  0.00     0.128 C 
ENDROOT
BRANCH   3   4
HETATM    4  C3  UNL     1      29.237   8.119  47.217  1.00  0.00     0.056 C 
BRANCH   4   5
HETATM    5  C4  UNL     1      30.395   8.406  48.142  1.00  0.00    -0.015 C 
HETATM    6  C5  UNL     1      31.077   8.043  49.251  1.00  0.00     0.083 C 
HETATM    7  N2  UNL     1      30.709   9.284  49.936  1.00  0.00    -0.379 N 
HETATM    8  S2  UNL     1      31.941   6.559  49.479  1.00  0.00    -0.039 SA
HETATM    9  C6  UNL     1      30.350  10.230  48.829  1.00  0.00     0.159 C 
HETATM   10  H5  UNL     1      30.756   9.312  51.007  1.00  0.00     0.160 HD
HETATM   11  C7  UNL     1      31.182   9.564  47.794  1.00  0.00    -0.032 C 
HETATM   12  C8  UNL     1      32.177  10.139  47.194  1.00  0.00     0.009 C 
HETATM   13  C9  UNL     1      32.500   8.820  46.752  1.00  0.00    -0.003 C 
HETATM   14  C10 UNL     1      32.416   7.538  46.588  1.00  0.00    -0.026 C 
HETATM   15  C11 UNL     1      33.214   6.487  45.890  1.00  0.00     0.043 C 
HETATM   16  C12 UNL     1      33.661   5.471  46.952  1.00  0.00     0.063 C 
HETATM   17  S1  UNL     1      33.761   6.233  48.545  1.00  0.00    -0.086 SA
BRANCH  16  18
HETATM   18  C13 UNL     1      34.693   4.519  46.527  1.00  0.00     0.030 C 
BRANCH  18  19
HETATM   19  C14 UNL     1      34.667   3.288  47.447  1.00  0.00     0.125 C 
HETATM   20  C15 UNL     1      33.479   2.521  47.154  1.00  0.00     0.059 C 
HETATM   21  N3  UNL     1      32.542   1.907  46.928  1.00  0.00    -0.197 NA
ENDBRANCH  18  19
ENDBRANCH  16  18
ENDBRANCH   4   5
ENDBRANCH   3   4
TORSDOF 4
ENDMDL
MODEL 9
REMARK VINA RESULT:      -5.8      2.338      5.870
REMARK  4 active torsions:
REMARK  status: ('A' for Active; 'I' for Inactive)
REMARK    1  A    between atoms: C2_3  and  C3_4 
REMARK    2  A    between atoms: C3_4  and  C4_5 
REMARK    3  A    between atoms: C12_14  and  C13_15 
REMARK    4  A    between atoms: C13_15  and  C14_16 
ROOT
HETATM    1  N1  UNL     1      26.671   2.705  51.094  1.00  0.00    -0.197 NA
HETATM    2  C1  UNL     1      25.877   2.435  51.907  1.00  0.00     0.059 C 
HETATM    3  C2  UNL     1      24.871   2.112  52.912  1.00  0.00     0.128 C 
ENDROOT
BRANCH   3   4
HETATM    4  C3  UNL     1      23.957   1.043  52.355  1.00  0.00     0.056 C 
BRANCH   4   5
HETATM    5  C4  UNL     1      22.590   1.619  52.073  1.00  0.00    -0.015 C 
HETATM    6  C5  UNL     1      21.693   2.593  52.346  1.00  0.00     0.083 C 
HETATM    7  N2  UNL     1      20.755   1.627  52.921  1.00  0.00    -0.379 N 
HETATM    8  S2  UNL     1      21.896   4.285  52.035  1.00  0.00    -0.039 SA
HETATM    9  C6  UNL     1      21.171   0.308  52.341  1.00  0.00     0.159 C 
HETATM   10  H5  UNL     1      19.997   1.984  53.591  1.00  0.00     0.160 HD
HETATM   11  C7  UNL     1      21.798   0.879  51.121  1.00  0.00    -0.032 C 
HETATM   12  C8  UNL     1      21.383   0.631  49.919  1.00  0.00     0.009 C 
HETATM   13  C9  UNL     1      22.223   1.724  49.546  1.00  0.00    -0.003 C 
HETATM   14  C10 UNL     1      23.065   2.702  49.654  1.00  0.00    -0.026 C 
HETATM   15  C11 UNL     1      23.690   3.693  48.729  1.00  0.00     0.043 C 
HETATM   16  C12 UNL     1      23.296   5.093  49.222  1.00  0.00     0.063 C 
HETATM   17  S1  UNL     1      21.767   5.036  50.109  1.00  0.00    -0.086 SA
BRANCH  16  18
HETATM   18  C13 UNL     1      23.565   6.195  48.291  1.00  0.00     0.030 C 
BRANCH  18  19
HETATM   19  C14 UNL     1      25.073   6.490  48.268  1.00  0.00     0.125 C 
HETATM   20  C15 UNL     1      25.450   7.059  49.541  1.00  0.00     0.059 C 
HETATM   21  N3  UNL     1      25.756   7.508  50.546  1.00  0.00    -0.197 NA
ENDBRANCH  18  19
ENDBRANCH  16  18
ENDBRANCH   4   5
ENDBRANCH   3   4
TORSDOF 4
ENDMDL
