MODEL 1
REMARK VINA RESULT:      -8.7      0.000      0.000
REMARK  5 active torsions:
REMARK  status: ('A' for Active; 'I' for Inactive)
REMARK    1  A    between atoms: C3_3  and  C4_4 
REMARK    2  A    between atoms: C4_4  and  N1_5 
REMARK    3  A    between atoms: N1_5  and  C5_6 
REMARK    4  A    between atoms: C11_15  and  N5_16 
REMARK    5  A    between atoms: C16_23  and  O1_24 
ROOT
HETATM    1  C1  UNL     1      29.654   6.606  48.032  1.00  0.00     0.112 C 
HETATM    2  C2  UNL     1      28.645   5.589  48.382  1.00  0.00    -0.109 C 
HETATM    3  C3  UNL     1      27.819   4.763  48.683  1.00  0.00    -0.087 C 
ENDROOT
BRANCH   3   4
HETATM    4  C4  UNL     1      26.803   3.776  49.066  1.00  0.00     0.214 C 
BRANCH   4   5
HETATM    5  N1  UNL     1      26.674   3.628  50.501  1.00  0.00    -0.378 N 
HETATM    6  H6  UNL     1      27.442   3.887  51.148  1.00  0.00     0.160 HD
BRANCH   5   7
HETATM    7  C5  UNL     1      25.472   3.119  51.062  1.00  0.00     0.047 A 
HETATM    8  C6  UNL     1      24.218   3.622  50.785  1.00  0.00     0.148 A 
HETATM    9  N2  UNL     1      23.077   3.144  51.312  1.00  0.00    -0.238 NA
HETATM   10  C7  UNL     1      23.081   2.103  52.179  1.00  0.00     0.161 A 
HETATM   11  N3  UNL     1      21.926   1.642  52.692  1.00  0.00    -0.239 NA
HETATM   12  C17 UNL     1      24.308   1.557  52.496  1.00  0.00     0.042 A 
HETATM   13  C8  UNL     1      21.904   0.607  53.557  1.00  0.00     0.144 A 
HETATM   14  C9  UNL     1      23.118   0.023  53.907  1.00  0.00     0.089 A 
HETATM   15  C10 UNL     1      23.058  -1.077  54.829  1.00  0.00     0.103 C 
HETATM   16  C11 UNL     1      24.279   0.498  53.380  1.00  0.00     0.069 A 
HETATM   17  N4  UNL     1      23.018  -1.955  55.581  1.00  0.00    -0.191 NA
HETATM   18  C18 UNL     1      25.477   2.059  51.945  1.00  0.00     0.048 A 
BRANCH  16  19
HETATM   19  N5  UNL     1      25.510  -0.102  53.740  1.00  0.00    -0.346 N 
HETATM   20  C12 UNL     1      25.926  -1.216  52.932  1.00  0.00     0.154 C 
HETATM   21  C13 UNL     1      27.415  -1.288  52.784  1.00  0.00     0.015 C 
HETATM   22  C14 UNL     1      28.266  -0.514  53.455  1.00  0.00     0.047 C 
HETATM   23 CL1  UNL     1      30.001  -0.715  53.175  1.00  0.00    -0.086 Cl
HETATM   24  C15 UNL     1      27.805   0.509  54.429  1.00  0.00     0.263 C 
HETATM   25  F1  UNL     1      28.101   1.799  54.047  1.00  0.00    -0.239 F 
HETATM   26  C16 UNL     1      26.378   0.302  54.836  1.00  0.00     0.260 C 
BRANCH  26  27
HETATM   27  O1  UNL     1      25.923   1.428  55.488  1.00  0.00    -0.373 OA
HETATM   28  H14 UNL     1      26.655   2.031  55.772  1.00  0.00     0.212 HD
ENDBRANCH  26  27
ENDBRANCH  16  19
ENDBRANCH   5   7
ENDBRANCH   4   5
ENDBRANCH   3   4
TORSDOF 5
ENDMDL
MODEL 2
REMARK VINA RESULT:      -8.1      3.579      7.225
REMARK  5 active torsions:
REMARK  status: ('A' for Active; 'I' for Inactive)
REMARK    1  A    between atoms: C3_3  and  C4_4 
REMARK    2  A    between atoms: C4_4  and  N1_5 
REMARK    3  A    between atoms: N1_5  and  C5_6 
REMARK    4  A    between atoms: C11_15  and  N5_16 
REMARK    5  A    between atoms: C16_23  and  O1_24 
ROOT
HETATM    1  C1  UNL     1      18.135   1.058  50.032  1.00  0.00     0.112 C 
HETATM    2  C2  UNL     1      18.621   0.405  51.261  1.00  0.00    -0.109 C 
HETATM    3  C3  UNL     1      19.021  -0.143  52.259  1.00  0.00    -0.087 C 
ENDROOT
BRANCH   3   4
HETATM    4  C4  UNL     1      19.524  -0.824  53.458  1.00  0.00     0.214 C 
BRANCH   4   5
HETATM    5  N1  UNL     1      20.418   0.004  54.242  1.00  0.00    -0.378 N 
HETATM    6  H6  UNL     1      20.066   0.626  54.994  1.00  0.00     0.160 HD
BRANCH   5   7
HETATM    7  C5  UNL     1      21.816  -0.019  53.994  1.00  0.00     0.047 A 
HETATM    8  C6  UNL     1      22.692  -0.892  54.603  1.00  0.00     0.148 A 
HETATM    9  N2  UNL     1      24.017  -0.920  54.372  1.00  0.00    -0.238 NA
HETATM   10  C7  UNL     1      24.600  -0.065  53.498  1.00  0.00     0.161 A 
HETATM   11  N3  UNL     1      25.927  -0.113  53.284  1.00  0.00    -0.239 NA
HETATM   12  C17 UNL     1      23.773   0.834  52.857  1.00  0.00     0.042 A 
HETATM   13  C8  UNL     1      26.530   0.728  52.419  1.00  0.00     0.144 A 
HETATM   14  C9  UNL     1      25.737   1.654  51.747  1.00  0.00     0.089 A 
HETATM   15  C10 UNL     1      26.411   2.533  50.833  1.00  0.00     0.103 C 
HETATM   16  C11 UNL     1      24.395   1.691  51.972  1.00  0.00     0.069 A 
HETATM   17  N4  UNL     1      26.950   3.252  50.105  1.00  0.00    -0.191 NA
HETATM   18  C18 UNL     1      22.408   0.852  53.104  1.00  0.00     0.048 A 
BRANCH  16  19
HETATM   19  N5  UNL     1      23.595   2.635  51.286  1.00  0.00    -0.346 N 
HETATM   20  C12 UNL     1      23.013   2.185  50.050  1.00  0.00     0.154 C 
HETATM   21  C13 UNL     1      21.666   2.792  49.800  1.00  0.00     0.015 C 
HETATM   22  C14 UNL     1      21.138   3.760  50.546  1.00  0.00     0.047 C 
HETATM   23 CL1  UNL     1      19.534   4.378  50.127  1.00  0.00    -0.086 Cl
HETATM   24  C15 UNL     1      21.852   4.337  51.715  1.00  0.00     0.263 C 
HETATM   25  F1  UNL     1      21.220   4.093  52.915  1.00  0.00    -0.239 F 
HETATM   26  C16 UNL     1      23.311   3.998  51.711  1.00  0.00     0.260 C 
BRANCH  26  27
HETATM   27  O1  UNL     1      23.849   4.293  52.945  1.00  0.00    -0.373 OA
HETATM   28  H14 UNL     1      24.531   5.010  52.907  1.00  0.00     0.212 HD
ENDBRANCH  26  27
ENDBRANCH  16  19
ENDBRANCH   5   7
ENDBRANCH   4   5
ENDBRANCH   3   4
TORSDOF 5
ENDMDL
MODEL 3
REMARK VINA RESULT:      -8.0      3.603      7.814
REMARK  5 active torsions:
REMARK  status: ('A' for Active; 'I' for Inactive)
REMARK    1  A    between atoms: C3_3  and  C4_4 
REMARK    2  A    between atoms: C4_4  and  N1_5 
REMARK    3  A    between atoms: N1_5  and  C5_6 
REMARK    4  A    between atoms: C11_15  and  N5_16 
REMARK    5  A    between atoms: C16_23  and  O1_24 
ROOT
HETATM    1  C1  UNL     1      17.060  -3.998  53.632  1.00  0.00     0.112 C 
HETATM    2  C2  UNL     1      17.761  -2.706  53.518  1.00  0.00    -0.109 C 
HETATM    3  C3  UNL     1      18.349  -1.657  53.421  1.00  0.00    -0.087 C 
ENDROOT
BRANCH   3   4
HETATM    4  C4  UNL     1      19.079  -0.391  53.284  1.00  0.00     0.214 C 
BRANCH   4   5
HETATM    5  N1  UNL     1      20.020  -0.164  54.361  1.00  0.00    -0.378 N 
HETATM    6  H6  UNL     1      19.704   0.067  55.322  1.00  0.00     0.160 HD
BRANCH   5   7
HETATM    7  C5  UNL     1      21.417  -0.254  54.122  1.00  0.00     0.047 A 
HETATM    8  C6  UNL     1      22.220  -1.261  54.614  1.00  0.00     0.148 A 
HETATM    9  N2  UNL     1      23.543  -1.353  54.389  1.00  0.00    -0.238 NA
HETATM   10  C7  UNL     1      24.198  -0.433  53.642  1.00  0.00     0.161 A 
HETATM   11  N3  UNL     1      25.522  -0.546  53.432  1.00  0.00    -0.239 NA
HETATM   12  C17 UNL     1      23.447   0.601  53.122  1.00  0.00     0.042 A 
HETATM   13  C8  UNL     1      26.196   0.357  52.691  1.00  0.00     0.144 A 
HETATM   14  C9  UNL     1      25.481   1.419  52.145  1.00  0.00     0.089 A 
HETATM   15  C10 UNL     1      26.230   2.362  51.361  1.00  0.00     0.103 C 
HETATM   16  C11 UNL     1      24.141   1.522  52.364  1.00  0.00     0.069 A 
HETATM   17  N4  UNL     1      26.829   3.131  50.740  1.00  0.00    -0.191 NA
HETATM   18  C18 UNL     1      22.083   0.683  53.360  1.00  0.00     0.048 A 
BRANCH  16  19
HETATM   19  N5  UNL     1      23.420   2.604  51.806  1.00  0.00    -0.346 N 
HETATM   20  C12 UNL     1      23.474   3.840  52.538  1.00  0.00     0.154 C 
HETATM   21  C13 UNL     1      23.441   5.038  51.639  1.00  0.00     0.015 C 
HETATM   22  C14 UNL     1      23.220   4.975  50.327  1.00  0.00     0.047 C 
HETATM   23 CL1  UNL     1      23.211   6.477  49.393  1.00  0.00    -0.086 Cl
HETATM   24  C15 UNL     1      22.981   3.687  49.626  1.00  0.00     0.263 C 
HETATM   25  F1  UNL     1      23.968   3.368  48.718  1.00  0.00    -0.239 F 
HETATM   26  C16 UNL     1      22.643   2.579  50.575  1.00  0.00     0.260 C 
BRANCH  26  27
HETATM   27  O1  UNL     1      22.730   1.372  49.915  1.00  0.00    -0.373 OA
HETATM   28  H14 UNL     1      22.220   0.651  50.363  1.00  0.00     0.212 HD
ENDBRANCH  26  27
ENDBRANCH  16  19
ENDBRANCH   5   7
ENDBRANCH   4   5
ENDBRANCH   3   4
TORSDOF 5
ENDMDL
MODEL 4
REMARK VINA RESULT:      -7.8      3.427      5.097
REMARK  5 active torsions:
REMARK  status: ('A' for Active; 'I' for Inactive)
REMARK    1  A    between atoms: C3_3  and  C4_4 
REMARK    2  A    between atoms: C4_4  and  N1_5 
REMARK    3  A    between atoms: N1_5  and  C5_6 
REMARK    4  A    between atoms: C11_15  and  N5_16 
REMARK    5  A    between atoms: C16_23  and  O1_24 
ROOT
HETATM    1  C1  UNL     1      28.370   6.845  47.951  1.00  0.00     0.112 C 
HETATM    2  C2  UNL     1      27.655   5.683  48.510  1.00  0.00    -0.109 C 
HETATM    3  C3  UNL     1      27.056   4.742  48.968  1.00  0.00    -0.087 C 
ENDROOT
BRANCH   3   4
HETATM    4  C4  UNL     1      26.306   3.605  49.515  1.00  0.00     0.214 C 
BRANCH   4   5
HETATM    5  N1  UNL     1      26.717   3.253  50.859  1.00  0.00    -0.378 N 
HETATM    6  H6  UNL     1      27.522   3.716  51.322  1.00  0.00     0.160 HD
BRANCH   5   7
HETATM    7  C5  UNL     1      26.015   2.252  51.583  1.00  0.00     0.047 A 
HETATM    8  C6  UNL     1      26.627   1.279  52.344  1.00  0.00     0.148 A 
HETATM    9  N2  UNL     1      25.968   0.330  53.032  1.00  0.00    -0.238 NA
HETATM   10  C7  UNL     1      24.615   0.261  53.023  1.00  0.00     0.161 A 
HETATM   11  N3  UNL     1      23.979  -0.697  53.719  1.00  0.00    -0.239 NA
HETATM   12  C17 UNL     1      23.946   1.210  52.277  1.00  0.00     0.042 A 
HETATM   13  C8  UNL     1      22.634  -0.786  53.726  1.00  0.00     0.144 A 
HETATM   14  C9  UNL     1      21.913   0.149  52.988  1.00  0.00     0.089 A 
HETATM   15  C10 UNL     1      20.482   0.026  53.018  1.00  0.00     0.103 C 
HETATM   16  C11 UNL     1      22.569   1.115  52.288  1.00  0.00     0.069 A 
HETATM   17  N4  UNL     1      19.331  -0.075  53.028  1.00  0.00    -0.191 NA
HETATM   18  C18 UNL     1      24.637   2.184  51.573  1.00  0.00     0.048 A 
BRANCH  16  19
HETATM   19  N5  UNL     1      21.831   2.062  51.540  1.00  0.00    -0.346 N 
HETATM   20  C12 UNL     1      21.501   3.284  52.225  1.00  0.00     0.154 C 
HETATM   21  C13 UNL     1      21.482   4.466  51.304  1.00  0.00     0.015 C 
HETATM   22  C14 UNL     1      21.593   4.377  49.979  1.00  0.00     0.047 C 
HETATM   23 CL1  UNL     1      21.554   5.863  49.021  1.00  0.00    -0.086 Cl
HETATM   24  C15 UNL     1      21.747   3.072  49.284  1.00  0.00     0.263 C 
HETATM   25  F1  UNL     1      22.959   2.934  48.645  1.00  0.00    -0.239 F 
HETATM   26  C16 UNL     1      21.383   1.915  50.163  1.00  0.00     0.260 C 
BRANCH  26  27
HETATM   27  O1  UNL     1      21.825   0.746  49.582  1.00  0.00    -0.373 OA
HETATM   28  H14 UNL     1      21.252   0.448  48.833  1.00  0.00     0.212 HD
ENDBRANCH  26  27
ENDBRANCH  16  19
ENDBRANCH   5   7
ENDBRANCH   4   5
ENDBRANCH   3   4
TORSDOF 5
ENDMDL
MODEL 5
REMARK VINA RESULT:      -7.5      4.178      5.703
REMARK  5 active torsions:
REMARK  status: ('A' for Active; 'I' for Inactive)
REMARK    1  A    between atoms: C3_3  and  C4_4 
REMARK    2  A    between atoms: C4_4  and  N1_5 
REMARK    3  A    between atoms: N1_5  and  C5_6 
REMARK    4  A    between atoms: C11_15  and  N5_16 
REMARK    5  A    between atoms: C16_23  and  O1_24 
ROOT
HETATM    1  C1  UNL     1      27.776   6.720  47.892  1.00  0.00     0.112 C 
HETATM    2  C2  UNL     1      27.310   5.502  48.582  1.00  0.00    -0.109 C 
HETATM    3  C3  UNL     1      26.922   4.501  49.131  1.00  0.00    -0.087 C 
ENDROOT
BRANCH   3   4
HETATM    4  C4  UNL     1      26.451   3.271  49.777  1.00  0.00     0.214 C 
BRANCH   4   5
HETATM    5  N1  UNL     1      25.972   3.491  51.127  1.00  0.00    -0.378 N 
HETATM    6  H6  UNL     1      26.114   4.395  51.616  1.00  0.00     0.160 HD
BRANCH   5   7
HETATM    7  C5  UNL     1      25.287   2.458  51.820  1.00  0.00     0.047 A 
HETATM    8  C6  UNL     1      25.890   1.600  52.716  1.00  0.00     0.148 A 
HETATM    9  N2  UNL     1      25.247   0.621  53.377  1.00  0.00    -0.238 NA
HETATM   10  C7  UNL     1      23.921   0.402  53.201  1.00  0.00     0.161 A 
HETATM   11  N3  UNL     1      23.301  -0.584  53.873  1.00  0.00    -0.239 NA
HETATM   12  C17 UNL     1      23.263   1.230  52.315  1.00  0.00     0.042 A 
HETATM   13  C8  UNL     1      21.982  -0.821  53.716  1.00  0.00     0.144 A 
HETATM   14  C9  UNL     1      21.274  -0.012  52.831  1.00  0.00     0.089 A 
HETATM   15  C10 UNL     1      19.872  -0.291  52.688  1.00  0.00     0.103 C 
HETATM   16  C11 UNL     1      21.914   0.983  52.158  1.00  0.00     0.069 A 
HETATM   17  N4  UNL     1      18.747  -0.519  52.558  1.00  0.00    -0.191 NA
HETATM   18  C18 UNL     1      23.938   2.236  51.640  1.00  0.00     0.048 A 
BRANCH  16  19
HETATM   19  N5  UNL     1      21.188   1.802  51.261  1.00  0.00    -0.346 N 
HETATM   20  C12 UNL     1      21.206   1.393  49.882  1.00  0.00     0.154 C 
HETATM   21  C13 UNL     1      19.921   1.708  49.178  1.00  0.00     0.015 C 
HETATM   22  C14 UNL     1      18.938   2.431  49.713  1.00  0.00     0.047 C 
HETATM   23 CL1  UNL     1      17.477   2.719  48.759  1.00  0.00    -0.086 Cl
HETATM   24  C15 UNL     1      19.031   2.999  51.083  1.00  0.00     0.263 C 
HETATM   25  F1  UNL     1      18.108   2.470  51.958  1.00  0.00    -0.239 F 
HETATM   26  C16 UNL     1      20.436   3.001  51.603  1.00  0.00     0.260 C 
BRANCH  26  27
HETATM   27  O1  UNL     1      20.420   3.250  52.958  1.00  0.00    -0.373 OA
HETATM   28  H14 UNL     1      21.325   3.269  53.357  1.00  0.00     0.212 HD
ENDBRANCH  26  27
ENDBRANCH  16  19
ENDBRANCH   5   7
ENDBRANCH   4   5
ENDBRANCH   3   4
TORSDOF 5
ENDMDL
MODEL 6
REMARK VINA RESULT:      -7.2      3.845      7.643
REMARK  5 active torsions:
REMARK  status: ('A' for Active; 'I' for Inactive)
REMARK    1  A    between atoms: C3_3  and  C4_4 
REMARK    2  A    between atoms: C4_4  and  N1_5 
REMARK    3  A    between atoms: N1_5  and  C5_6 
REMARK    4  A    between atoms: C11_15  and  N5_16 
REMARK    5  A    between atoms: C16_23  and  O1_24 
ROOT
HETATM    1  C1  UNL     1      19.691   0.982  50.131  1.00  0.00     0.112 C 
HETATM    2  C2  UNL     1      20.841   0.595  50.970  1.00  0.00    -0.109 C 
HETATM    3  C3  UNL     1      21.786   0.269  51.644  1.00  0.00    -0.087 C 
ENDROOT
BRANCH   3   4
HETATM    4  C4  UNL     1      22.949  -0.133  52.444  1.00  0.00     0.214 C 
BRANCH   4   5
HETATM    5  N1  UNL     1      23.690   0.997  52.966  1.00  0.00    -0.378 N 
HETATM    6  H6  UNL     1      23.584   1.312  53.949  1.00  0.00     0.160 HD
BRANCH   5   7
HETATM    7  C5  UNL     1      24.592   1.709  52.131  1.00  0.00     0.047 A 
HETATM    8  C6  UNL     1      25.921   1.379  51.974  1.00  0.00     0.148 A 
HETATM    9  N2  UNL     1      26.780   2.048  51.184  1.00  0.00    -0.238 NA
HETATM   10  C7  UNL     1      26.385   3.127  50.466  1.00  0.00     0.161 A 
HETATM   11  N3  UNL     1      27.262   3.780  49.683  1.00  0.00    -0.239 NA
HETATM   12  C17 UNL     1      25.063   3.507  50.583  1.00  0.00     0.042 A 
HETATM   13  C8  UNL     1      26.893   4.856  48.959  1.00  0.00     0.144 A 
HETATM   14  C9  UNL     1      25.569   5.278  49.044  1.00  0.00     0.089 A 
HETATM   15  C10 UNL     1      25.210   6.427  48.259  1.00  0.00     0.103 C 
HETATM   16  C11 UNL     1      24.691   4.608  49.840  1.00  0.00     0.069 A 
HETATM   17  N4  UNL     1      24.917   7.358  47.640  1.00  0.00    -0.191 NA
HETATM   18  C18 UNL     1      24.188   2.807  51.401  1.00  0.00     0.048 A 
BRANCH  16  19
HETATM   19  N5  UNL     1      23.347   5.042  49.921  1.00  0.00    -0.346 N 
HETATM   20  C12 UNL     1      22.467   4.557  48.892  1.00  0.00     0.154 C 
HETATM   21  C13 UNL     1      21.071   4.339  49.391  1.00  0.00     0.015 C 
HETATM   22  C14 UNL     1      20.649   4.707  50.600  1.00  0.00     0.047 C 
HETATM   23 CL1  UNL     1      18.969   4.382  51.050  1.00  0.00    -0.086 Cl
HETATM   24  C15 UNL     1      21.542   5.379  51.579  1.00  0.00     0.263 C 
HETATM   25  F1  UNL     1      21.776   4.628  52.710  1.00  0.00    -0.239 F 
HETATM   26  C16 UNL     1      22.783   5.920  50.936  1.00  0.00     0.260 C 
BRANCH  26  27
HETATM   27  O1  UNL     1      23.694   6.254  51.915  1.00  0.00    -0.373 OA
HETATM   28  H14 UNL     1      24.626   6.037  51.664  1.00  0.00     0.212 HD
ENDBRANCH  26  27
ENDBRANCH  16  19
ENDBRANCH   5   7
ENDBRANCH   4   5
ENDBRANCH   3   4
TORSDOF 5
ENDMDL
MODEL 7
REMARK VINA RESULT:      -7.1      3.410      5.706
REMARK  5 active torsions:
REMARK  status: ('A' for Active; 'I' for Inactive)
REMARK    1  A    between atoms: C3_3  and  C4_4 
REMARK    2  A    between atoms: C4_4  and  N1_5 
REMARK    3  A    between atoms: N1_5  and  C5_6 
REMARK    4  A    between atoms: C11_15  and  N5_16 
REMARK    5  A    between atoms: C16_23  and  O1_24 
ROOT
HETATM    1  C1  UNL     1      30.040   2.239  55.060  1.00  0.00     0.112 C 
HETATM    2  C2  UNL     1      29.206   1.333  54.250  1.00  0.00    -0.109 C 
HETATM    3  C3  UNL     1      28.516   0.604  53.580  1.00  0.00    -0.087 C 
ENDROOT
BRANCH   3   4
HETATM    4  C4  UNL     1      27.677  -0.264  52.747  1.00  0.00     0.214 C 
BRANCH   4   5
HETATM    5  N1  UNL     1      26.639   0.462  52.043  1.00  0.00    -0.378 N 
HETATM    6  H6  UNL     1      26.850   1.049  51.214  1.00  0.00     0.160 HD
BRANCH   5   7
HETATM    7  C5  UNL     1      25.290   0.383  52.479  1.00  0.00     0.047 A 
HETATM    8  C6  UNL     1      24.804  -0.606  53.308  1.00  0.00     0.148 A 
HETATM    9  N2  UNL     1      23.528  -0.685  53.725  1.00  0.00    -0.238 NA
HETATM   10  C7  UNL     1      22.602   0.230  53.347  1.00  0.00     0.161 A 
HETATM   11  N3  UNL     1      21.332   0.129  53.778  1.00  0.00    -0.239 NA
HETATM   12  C17 UNL     1      23.030   1.245  52.515  1.00  0.00     0.042 A 
HETATM   13  C8  UNL     1      20.394   1.027  53.415  1.00  0.00     0.144 A 
HETATM   14  C9  UNL     1      20.777   2.070  52.576  1.00  0.00     0.089 A 
HETATM   15  C10 UNL     1      19.752   3.008  52.211  1.00  0.00     0.103 C 
HETATM   16  C11 UNL     1      22.066   2.161  52.148  1.00  0.00     0.069 A 
HETATM   17  N4  UNL     1      18.930   3.760  51.903  1.00  0.00    -0.191 NA
HETATM   18  C18 UNL     1      24.349   1.315  52.093  1.00  0.00     0.048 A 
BRANCH  16  19
HETATM   19  N5  UNL     1      22.448   3.224  51.296  1.00  0.00    -0.346 N 
HETATM   20  C12 UNL     1      22.929   4.411  51.950  1.00  0.00     0.154 C 
HETATM   21  C13 UNL     1      23.993   5.107  51.157  1.00  0.00     0.015 C 
HETATM   22  C14 UNL     1      24.338   4.765  49.917  1.00  0.00     0.047 C 
HETATM   23 CL1  UNL     1      25.616   5.682  49.106  1.00  0.00    -0.086 Cl
HETATM   24  C15 UNL     1      23.686   3.641  49.196  1.00  0.00     0.263 C 
HETATM   25  F1  UNL     1      24.543   2.598  48.921  1.00  0.00    -0.239 F 
HETATM   26  C16 UNL     1      22.400   3.224  49.841  1.00  0.00     0.260 C 
BRANCH  26  27
HETATM   27  O1  UNL     1      22.003   2.010  49.322  1.00  0.00    -0.373 OA
HETATM   28  H14 UNL     1      21.768   2.060  48.362  1.00  0.00     0.212 HD
ENDBRANCH  26  27
ENDBRANCH  16  19
ENDBRANCH   5   7
ENDBRANCH   4   5
ENDBRANCH   3   4
TORSDOF 5
ENDMDL
MODEL 8
REMARK VINA RESULT:      -7.1      4.548      9.165
REMARK  5 active torsions:
REMARK  status: ('A' for Active; 'I' for Inactive)
REMARK    1  A    between atoms: C3_3  and  C4_4 
REMARK    2  A    between atoms: C4_4  and  N1_5 
REMARK    3  A    between atoms: N1_5  and  C5_6 
REMARK    4  A    between atoms: C11_15  and  N5_16 
REMARK    5  A    between atoms: C16_23  and  O1_24 
ROOT
HETATM    1  C1  UNL     1      27.371   0.173  52.999  1.00  0.00     0.112 C 
HETATM    2  C2  UNL     1      26.848   1.280  52.177  1.00  0.00    -0.109 C 
HETATM    3  C3  UNL     1      26.426   2.196  51.515  1.00  0.00    -0.087 C 
ENDROOT
BRANCH   3   4
HETATM    4  C4  UNL     1      25.932   3.325  50.718  1.00  0.00     0.214 C 
BRANCH   4   5
HETATM    5  N1  UNL     1      26.602   3.447  49.440  1.00  0.00    -0.378 N 
HETATM    6  H6  UNL     1      26.875   2.614  48.884  1.00  0.00     0.160 HD
BRANCH   5   7
HETATM    7  C5  UNL     1      26.904   4.730  48.910  1.00  0.00     0.047 A 
HETATM    8  C6  UNL     1      25.957   5.695  48.638  1.00  0.00     0.148 A 
HETATM    9  N2  UNL     1      26.236   6.911  48.138  1.00  0.00    -0.238 NA
HETATM   10  C7  UNL     1      27.508   7.285  47.857  1.00  0.00     0.161 A 
HETATM   11  N3  UNL     1      27.762   8.507  47.357  1.00  0.00    -0.239 NA
HETATM   12  C17 UNL     1      28.501   6.360  48.107  1.00  0.00     0.042 A 
HETATM   13  C8  UNL     1      29.019   8.902  47.070  1.00  0.00     0.144 A 
HETATM   14  C9  UNL     1      30.056   8.003  47.305  1.00  0.00     0.089 A 
HETATM   15  C10 UNL     1      31.382   8.456  46.988  1.00  0.00     0.103 C 
HETATM   16  C11 UNL     1      29.786   6.769  47.812  1.00  0.00     0.069 A 
HETATM   17  N4  UNL     1      32.450   8.810  46.723  1.00  0.00    -0.191 NA
HETATM   18  C18 UNL     1      28.199   5.109  48.624  1.00  0.00     0.048 A 
BRANCH  16  19
HETATM   19  N5  UNL     1      30.845   5.861  48.049  1.00  0.00    -0.346 N 
HETATM   20  C12 UNL     1      31.125   4.932  46.988  1.00  0.00     0.154 C 
HETATM   21  C13 UNL     1      32.584   4.601  46.892  1.00  0.00     0.015 C 
HETATM   22  C14 UNL     1      33.493   4.987  47.785  1.00  0.00     0.047 C 
HETATM   23 CL1  UNL     1      35.181   4.518  47.537  1.00  0.00    -0.086 Cl
HETATM   24  C15 UNL     1      33.136   5.796  48.979  1.00  0.00     0.263 C 
HETATM   25  F1  UNL     1      33.698   7.054  48.974  1.00  0.00    -0.239 F 
HETATM   26  C16 UNL     1      31.663   5.785  49.251  1.00  0.00     0.260 C 
BRANCH  26  27
HETATM   27  O1  UNL     1      31.361   6.773  50.164  1.00  0.00    -0.373 OA
HETATM   28  H14 UNL     1      30.907   7.551  49.753  1.00  0.00     0.212 HD
ENDBRANCH  26  27
ENDBRANCH  16  19
ENDBRANCH   5   7
ENDBRANCH   4   5
ENDBRANCH   3   4
TORSDOF 5
ENDMDL
MODEL 9
REMARK VINA RESULT:      -7.1      3.612      6.743
REMARK  5 active torsions:
REMARK  status: ('A' for Active; 'I' for Inactive)
REMARK    1  A    between atoms: C3_3  and  C4_4 
REMARK    2  A    between atoms: C4_4  and  N1_5 
REMARK    3  A    between atoms: N1_5  and  C5_6 
REMARK    4  A    between atoms: C11_15  and  N5_16 
REMARK    5  A    between atoms: C16_23  and  O1_24 
ROOT
HETATM    1  C1  UNL     1      30.119  -0.734  53.773  1.00  0.00     0.112 C 
HETATM    2  C2  UNL     1      28.720  -0.710  53.306  1.00  0.00    -0.109 C 
HETATM    3  C3  UNL     1      27.580  -0.676  52.914  1.00  0.00    -0.087 C 
ENDROOT
BRANCH   3   4
HETATM    4  C4  UNL     1      26.200  -0.627  52.416  1.00  0.00     0.214 C 
BRANCH   4   5
HETATM    5  N1  UNL     1      25.526   0.612  52.747  1.00  0.00    -0.378 N 
HETATM    6  H6  UNL     1      24.998   0.726  53.634  1.00  0.00     0.160 HD
BRANCH   5   7
HETATM    7  C5  UNL     1      25.573   1.714  51.852  1.00  0.00     0.047 A 
HETATM    8  C6  UNL     1      26.730   2.382  51.512  1.00  0.00     0.148 A 
HETATM    9  N2  UNL     1      26.782   3.425  50.665  1.00  0.00    -0.238 NA
HETATM   10  C7  UNL     1      25.664   3.907  50.069  1.00  0.00     0.161 A 
HETATM   11  N3  UNL     1      25.741   4.951  49.225  1.00  0.00    -0.239 NA
HETATM   12  C17 UNL     1      24.474   3.278  50.371  1.00  0.00     0.042 A 
HETATM   13  C8  UNL     1      24.644   5.448  48.619  1.00  0.00     0.144 A 
HETATM   14  C9  UNL     1      23.418   4.847  48.893  1.00  0.00     0.089 A 
HETATM   15  C10 UNL     1      22.270   5.402  48.230  1.00  0.00     0.103 C 
HETATM   16  C11 UNL     1      23.354   3.791  49.748  1.00  0.00     0.069 A 
HETATM   17  N4  UNL     1      21.340   5.851  47.711  1.00  0.00    -0.191 NA
HETATM   18  C18 UNL     1      24.435   2.203  51.246  1.00  0.00     0.048 A 
BRANCH  16  19
HETATM   19  N5  UNL     1      22.105   3.185  50.021  1.00  0.00    -0.346 N 
HETATM   20  C12 UNL     1      21.719   2.116  49.139  1.00  0.00     0.154 C 
HETATM   21  C13 UNL     1      20.929   1.054  49.842  1.00  0.00     0.015 C 
HETATM   22  C14 UNL     1      20.490   1.162  51.095  1.00  0.00     0.047 C 
HETATM   23 CL1  UNL     1      19.568  -0.177  51.791  1.00  0.00    -0.086 Cl
HETATM   24  C15 UNL     1      20.750   2.369  51.922  1.00  0.00     0.263 C 
HETATM   25  F1  UNL     1      21.549   2.118  53.017  1.00  0.00    -0.239 F 
HETATM   26  C16 UNL     1      21.191   3.538  51.097  1.00  0.00     0.260 C 
BRANCH  26  27
HETATM   27  O1  UNL     1      21.698   4.515  51.927  1.00  0.00    -0.373 OA
HETATM   28  H14 UNL     1      22.687   4.541  51.931  1.00  0.00     0.212 HD
ENDBRANCH  26  27
ENDBRANCH  16  19
ENDBRANCH   5   7
ENDBRANCH   4   5
ENDBRANCH   3   4
TORSDOF 5
ENDMDL
