MODEL 1
REMARK VINA RESULT:      -7.6      0.000      0.000
REMARK  5 active torsions:
REMARK  status: ('A' for Active; 'I' for Inactive)
REMARK    1  A    between atoms: N1_1  and  C1_2 
REMARK    2  A    between atoms: C6_8  and  C7_9 
REMARK    3  A    between atoms: N3_10  and  C8_11 
REMARK    4  A    between atoms: C8_11  and  N4_12 
REMARK    5  A    between atoms: N4_12  and  C9_13 
ROOT
HETATM    1  C8  UNL     1      24.408   1.011  52.475  1.00  0.00     0.270 C 
ENDROOT
BRANCH   1   2
HETATM    2  N3  UNL     1      24.406   2.438  52.429  1.00  0.00    -0.282 NA
HETATM    3  C7  UNL     1      23.940   3.011  51.345  1.00  0.00     0.113 C 
BRANCH   3   4
HETATM    4  C6  UNL     1      23.909   4.482  51.233  1.00  0.00     0.030 C 
HETATM    5  C5  UNL     1      24.782   5.112  50.464  1.00  0.00    -0.003 A 
HETATM    6  C1  UNL     1      25.800   4.338  49.707  1.00  0.00     0.276 A 
HETATM    7  C4  UNL     1      24.713   6.566  50.383  1.00  0.00     0.125 A 
HETATM    8  C2  UNL     1      26.598   5.374  48.958  1.00  0.00     0.032 A 
HETATM    9  C3  UNL     1      26.512   6.694  48.903  1.00  0.00     0.114 A 
HETATM   10  N2  UNL     1      25.489   7.303  49.681  1.00  0.00    -0.273 NA
BRANCH   6  11
HETATM   11  N1  UNL     1      26.748   3.693  50.595  1.00  0.00     0.090 N 
HETATM   12  H1  UNL     1      26.599   3.895  51.601  1.00  0.00     0.314 HD
HETATM   13  H2  UNL     1      27.729   3.737  50.290  1.00  0.00     0.314 HD
ENDBRANCH   6  11
ENDBRANCH   3   4
ENDBRANCH   1   2
BRANCH   1  14
HETATM   14  N4  UNL     1      25.698   0.580  51.925  1.00  0.00    -0.370 N 
HETATM   15  H11 UNL     1      26.140   0.666  50.976  1.00  0.00     0.161 HD
BRANCH  14  16
HETATM   16  C9  UNL     1      26.775  -0.111  52.545  1.00  0.00     0.058 C 
HETATM   17  C10 UNL     1      26.773  -1.429  52.388  1.00  0.00     0.031 C 
HETATM   18  C11 UNL     1      27.785  -2.349  52.938  1.00  0.00    -0.000 C 
HETATM   19  C12 UNL     1      29.013  -2.034  53.306  1.00  0.00    -0.007 C 
HETATM   20  C13 UNL     1      29.822  -0.788  53.328  1.00  0.00     0.157 C 
HETATM   21  N5  UNL     1      28.984   0.374  53.552  1.00  0.00    -0.335 N 
HETATM   22  C14 UNL     1      29.477   1.459  54.215  1.00  0.00     0.210 A 
HETATM   23  C16 UNL     1      27.722   0.736  53.262  1.00  0.00     0.080 A 
HETATM   24  N6  UNL     1      28.572   2.434  54.330  1.00  0.00    -0.254 NA
HETATM   25  C15 UNL     1      27.450   2.002  53.735  1.00  0.00     0.149 A 
ENDBRANCH  14  16
ENDBRANCH   1  14
TORSDOF 5
ENDMDL
MODEL 2
REMARK VINA RESULT:      -7.5      3.061      7.135
REMARK  5 active torsions:
REMARK  status: ('A' for Active; 'I' for Inactive)
REMARK    1  A    between atoms: N1_1  and  C1_2 
REMARK    2  A    between atoms: C6_8  and  C7_9 
REMARK    3  A    between atoms: N3_10  and  C8_11 
REMARK    4  A    between atoms: C8_11  and  N4_12 
REMARK    5  A    between atoms: N4_12  and  C9_13 
ROOT
HETATM    1  C8  UNL     1      24.211   2.569  53.082  1.00  0.00     0.270 C 
ENDROOT
BRANCH   1   2
HETATM    2  N3  UNL     1      25.513   2.283  53.595  1.00  0.00    -0.282 NA
HETATM    3  C7  UNL     1      26.463   2.019  52.730  1.00  0.00     0.113 C 
BRANCH   3   4
HETATM    4  C6  UNL     1      27.830   1.717  53.195  1.00  0.00     0.030 C 
HETATM    5  C5  UNL     1      28.265   0.467  53.225  1.00  0.00    -0.003 A 
HETATM    6  C1  UNL     1      27.374  -0.640  52.790  1.00  0.00     0.276 A 
HETATM    7  C4  UNL     1      29.623   0.215  53.690  1.00  0.00     0.125 A 
HETATM    8  C2  UNL     1      28.198  -1.891  52.958  1.00  0.00     0.032 A 
HETATM    9  C3  UNL     1      29.435  -2.090  53.384  1.00  0.00     0.114 A 
HETATM   10  N2  UNL     1      30.174  -0.937  53.770  1.00  0.00    -0.273 NA
BRANCH   6  11
HETATM   11  N1  UNL     1      26.246  -0.802  53.687  1.00  0.00     0.090 N 
HETATM   12  H1  UNL     1      26.474  -1.277  54.579  1.00  0.00     0.314 HD
HETATM   13  H2  UNL     1      25.378  -1.121  53.241  1.00  0.00     0.314 HD
ENDBRANCH   6  11
ENDBRANCH   3   4
ENDBRANCH   1   2
BRANCH   1  14
HETATM   14  N4  UNL     1      23.752   1.346  52.411  1.00  0.00    -0.370 N 
HETATM   15  H11 UNL     1      24.068   0.838  51.548  1.00  0.00     0.161 HD
BRANCH  14  16
HETATM   16  C9  UNL     1      22.698   0.454  52.751  1.00  0.00     0.058 C 
HETATM   17  C10 UNL     1      22.927  -0.325  53.802  1.00  0.00     0.031 C 
HETATM   18  C11 UNL     1      21.984  -1.323  54.337  1.00  0.00    -0.000 C 
HETATM   19  C12 UNL     1      20.676  -1.343  54.155  1.00  0.00    -0.007 C 
HETATM   20  C13 UNL     1      19.698  -0.489  53.431  1.00  0.00     0.157 C 
HETATM   21  N5  UNL     1      20.298   0.110  52.255  1.00  0.00    -0.335 N 
HETATM   22  C14 UNL     1      19.537   0.374  51.155  1.00  0.00     0.210 A 
HETATM   23  C16 UNL     1      21.523   0.530  51.892  1.00  0.00     0.080 A 
HETATM   24  N6  UNL     1      20.250   0.925  50.169  1.00  0.00    -0.254 NA
HETATM   25  C15 UNL     1      21.512   1.035  50.609  1.00  0.00     0.149 A 
ENDBRANCH  14  16
ENDBRANCH   1  14
TORSDOF 5
ENDMDL
MODEL 3
REMARK VINA RESULT:      -7.5      2.477      3.860
REMARK  5 active torsions:
REMARK  status: ('A' for Active; 'I' for Inactive)
REMARK    1  A    between atoms: N1_1  and  C1_2 
REMARK    2  A    between atoms: C6_8  and  C7_9 
REMARK    3  A    between atoms: N3_10  and  C8_11 
REMARK    4  A    between atoms: C8_11  and  N4_12 
REMARK    5  A    between atoms: N4_12  and  C9_13 
ROOT
HETATM    1  C8  UNL     1      26.546   3.189  49.826  1.00  0.00     0.270 C 
ENDROOT
BRANCH   1   2
HETATM    2  N3  UNL     1      26.418   4.571  49.491  1.00  0.00    -0.282 NA
HETATM    3  C7  UNL     1      27.316   5.087  48.688  1.00  0.00     0.113 C 
BRANCH   3   4
HETATM    4  C6  UNL     1      27.241   6.510  48.302  1.00  0.00     0.030 C 
HETATM    5  C5  UNL     1      28.319   7.144  47.870  1.00  0.00    -0.003 A 
HETATM    6  C1  UNL     1      29.615   6.422  47.772  1.00  0.00     0.276 A 
HETATM    7  C4  UNL     1      28.197   8.547  47.498  1.00  0.00     0.125 A 
HETATM    8  C2  UNL     1      30.591   7.446  47.251  1.00  0.00     0.032 A 
HETATM    9  C3  UNL     1      30.451   8.721  46.920  1.00  0.00     0.114 A 
HETATM   10  N2  UNL     1      29.152   9.282  47.066  1.00  0.00    -0.273 NA
BRANCH   6  11
HETATM   11  N1  UNL     1      30.117   6.047  49.080  1.00  0.00     0.090 N 
HETATM   12  H1  UNL     1      29.451   6.212  49.857  1.00  0.00     0.314 HD
HETATM   13  H2  UNL     1      31.083   6.337  49.275  1.00  0.00     0.314 HD
ENDBRANCH   6  11
ENDBRANCH   3   4
ENDBRANCH   1   2
BRANCH   1  14
HETATM   14  N4  UNL     1      26.644   3.124  51.289  1.00  0.00    -0.370 N 
HETATM   15  H11 UNL     1      27.028   3.781  52.013  1.00  0.00     0.161 HD
BRANCH  14  16
HETATM   16  C9  UNL     1      26.230   2.107  52.192  1.00  0.00     0.058 C 
HETATM   17  C10 UNL     1      24.980   1.685  52.042  1.00  0.00     0.031 C 
HETATM   18  C11 UNL     1      24.334   0.643  52.859  1.00  0.00    -0.000 C 
HETATM   19  C12 UNL     1      24.945  -0.293  53.563  1.00  0.00    -0.007 C 
HETATM   20  C13 UNL     1      26.361  -0.669  53.814  1.00  0.00     0.157 C 
HETATM   21  N5  UNL     1      27.223   0.496  53.788  1.00  0.00    -0.335 N 
HETATM   22  C14 UNL     1      28.344   0.539  54.563  1.00  0.00     0.210 A 
HETATM   23  C16 UNL     1      27.244   1.679  53.149  1.00  0.00     0.080 A 
HETATM   24  N6  UNL     1      29.018   1.682  54.413  1.00  0.00    -0.254 NA
HETATM   25  C15 UNL     1      28.342   2.423  53.523  1.00  0.00     0.149 A 
ENDBRANCH  14  16
ENDBRANCH   1  14
TORSDOF 5
ENDMDL
MODEL 4
REMARK VINA RESULT:      -7.3      1.197      6.912
REMARK  5 active torsions:
REMARK  status: ('A' for Active; 'I' for Inactive)
REMARK    1  A    between atoms: N1_1  and  C1_2 
REMARK    2  A    between atoms: C6_8  and  C7_9 
REMARK    3  A    between atoms: N3_10  and  C8_11 
REMARK    4  A    between atoms: C8_11  and  N4_12 
REMARK    5  A    between atoms: N4_12  and  C9_13 
ROOT
HETATM    1  C8  UNL     1      23.719   3.094  51.712  1.00  0.00     0.270 C 
ENDROOT
BRANCH   1   2
HETATM    2  N3  UNL     1      24.505   1.904  51.629  1.00  0.00    -0.282 NA
HETATM    3  C7  UNL     1      24.742   1.254  52.742  1.00  0.00     0.113 C 
BRANCH   3   4
HETATM    4  C6  UNL     1      25.546   0.017  52.726  1.00  0.00     0.030 C 
HETATM    5  C5  UNL     1      26.803   0.031  53.140  1.00  0.00    -0.003 A 
HETATM    6  C1  UNL     1      27.411   1.299  53.623  1.00  0.00     0.276 A 
HETATM    7  C4  UNL     1      27.560  -1.214  53.108  1.00  0.00     0.125 A 
HETATM    8  C2  UNL     1      28.823   0.931  54.005  1.00  0.00     0.032 A 
HETATM    9  C3  UNL     1      29.486  -0.214  53.964  1.00  0.00     0.114 A 
HETATM   10  N2  UNL     1      28.778  -1.347  53.477  1.00  0.00    -0.273 NA
BRANCH   6  11
HETATM   11  N1  UNL     1      27.544   2.269  52.554  1.00  0.00     0.090 N 
HETATM   12  H1  UNL     1      27.946   3.178  52.849  1.00  0.00     0.314 HD
HETATM   13  H2  UNL     1      26.732   2.342  51.930  1.00  0.00     0.314 HD
ENDBRANCH   6  11
ENDBRANCH   3   4
ENDBRANCH   1   2
BRANCH   1  14
HETATM   14  N4  UNL     1      23.910   3.806  50.442  1.00  0.00    -0.370 N 
HETATM   15  H11 UNL     1      23.322   3.905  49.578  1.00  0.00     0.161 HD
BRANCH  14  16
HETATM   16  C9  UNL     1      24.997   4.605  49.994  1.00  0.00     0.058 C 
HETATM   17  C10 UNL     1      26.019   3.938  49.470  1.00  0.00     0.031 C 
HETATM   18  C11 UNL     1      27.249   4.551  48.941  1.00  0.00    -0.000 C 
HETATM   19  C12 UNL     1      27.390   5.799  48.532  1.00  0.00    -0.007 C 
HETATM   20  C13 UNL     1      26.499   6.984  48.432  1.00  0.00     0.157 C 
HETATM   21  N5  UNL     1      25.498   6.975  49.480  1.00  0.00    -0.335 N 
HETATM   22  C14 UNL     1      25.020   8.147  49.985  1.00  0.00     0.210 A 
HETATM   23  C16 UNL     1      24.826   6.041  50.178  1.00  0.00     0.080 A 
HETATM   24  N6  UNL     1      24.107   7.952  50.939  1.00  0.00    -0.254 NA
HETATM   25  C15 UNL     1      23.965   6.626  51.083  1.00  0.00     0.149 A 
ENDBRANCH  14  16
ENDBRANCH   1  14
TORSDOF 5
ENDMDL
MODEL 5
REMARK VINA RESULT:      -7.3      2.207      3.347
REMARK  5 active torsions:
REMARK  status: ('A' for Active; 'I' for Inactive)
REMARK    1  A    between atoms: N1_1  and  C1_2 
REMARK    2  A    between atoms: C6_8  and  C7_9 
REMARK    3  A    between atoms: N3_10  and  C8_11 
REMARK    4  A    between atoms: C8_11  and  N4_12 
REMARK    5  A    between atoms: N4_12  and  C9_13 
ROOT
HETATM    1  C8  UNL     1      24.034  -0.321  53.696  1.00  0.00     0.270 C 
ENDROOT
BRANCH   1   2
HETATM    2  N3  UNL     1      23.023   0.662  53.474  1.00  0.00    -0.282 NA
HETATM    3  C7  UNL     1      22.899   1.144  52.261  1.00  0.00     0.113 C 
BRANCH   3   4
HETATM    4  C6  UNL     1      21.873   2.162  51.965  1.00  0.00     0.030 C 
HETATM    5  C5  UNL     1      22.224   3.415  51.724  1.00  0.00    -0.003 A 
HETATM    6  C1  UNL     1      23.659   3.802  51.753  1.00  0.00     0.276 A 
HETATM    7  C4  UNL     1      21.178   4.387  51.434  1.00  0.00     0.125 A 
HETATM    8  C2  UNL     1      23.670   5.276  51.436  1.00  0.00     0.032 A 
HETATM    9  C3  UNL     1      22.698   6.137  51.176  1.00  0.00     0.114 A 
HETATM   10  N2  UNL     1      21.371   5.627  51.183  1.00  0.00    -0.273 NA
BRANCH   6  11
HETATM   11  N1  UNL     1      24.215   3.694  53.087  1.00  0.00     0.090 N 
HETATM   12  H1  UNL     1      25.169   4.089  53.187  1.00  0.00     0.314 HD
HETATM   13  H2  UNL     1      24.078   2.784  53.543  1.00  0.00     0.314 HD
ENDBRANCH   6  11
ENDBRANCH   3   4
ENDBRANCH   1   2
BRANCH   1  14
HETATM   14  N4  UNL     1      25.080  -0.073  52.697  1.00  0.00    -0.370 N 
HETATM   15  H11 UNL     1      25.087  -0.080  51.647  1.00  0.00     0.161 HD
BRANCH  14  16
HETATM   16  C9  UNL     1      26.450   0.265  52.869  1.00  0.00     0.058 C 
HETATM   17  C10 UNL     1      26.715   1.565  52.922  1.00  0.00     0.031 C 
HETATM   18  C11 UNL     1      28.057   2.150  53.095  1.00  0.00    -0.000 C 
HETATM   19  C12 UNL     1      29.114   1.548  53.608  1.00  0.00    -0.007 C 
HETATM   20  C13 UNL     1      29.394   0.200  54.168  1.00  0.00     0.157 C 
HETATM   21  N5  UNL     1      28.582  -0.812  53.522  1.00  0.00    -0.335 N 
HETATM   22  C14 UNL     1      29.053  -2.083  53.379  1.00  0.00     0.210 A 
HETATM   23  C16 UNL     1      27.361  -0.870  52.961  1.00  0.00     0.080 A 
HETATM   24  N6  UNL     1      28.176  -2.881  52.764  1.00  0.00    -0.254 NA
HETATM   25  C15 UNL     1      27.095  -2.138  52.488  1.00  0.00     0.149 A 
ENDBRANCH  14  16
ENDBRANCH   1  14
TORSDOF 5
ENDMDL
MODEL 6
REMARK VINA RESULT:      -7.2      2.494      3.760
REMARK  5 active torsions:
REMARK  status: ('A' for Active; 'I' for Inactive)
REMARK    1  A    between atoms: N1_1  and  C1_2 
REMARK    2  A    between atoms: C6_8  and  C7_9 
REMARK    3  A    between atoms: N3_10  and  C8_11 
REMARK    4  A    between atoms: C8_11  and  N4_12 
REMARK    5  A    between atoms: N4_12  and  C9_13 
ROOT
HETATM    1  C8  UNL     1      22.898   3.023  50.771  1.00  0.00     0.270 C 
ENDROOT
BRANCH   1   2
HETATM    2  N3  UNL     1      23.506   4.286  50.500  1.00  0.00    -0.282 NA
HETATM    3  C7  UNL     1      23.966   4.493  49.290  1.00  0.00     0.113 C 
BRANCH   3   4
HETATM    4  C6  UNL     1      24.605   5.778  48.945  1.00  0.00     0.030 C 
HETATM    5  C5  UNL     1      25.912   5.843  48.748  1.00  0.00    -0.003 A 
HETATM    6  C1  UNL     1      26.744   4.618  48.874  1.00  0.00     0.276 A 
HETATM    7  C4  UNL     1      26.499   7.133  48.408  1.00  0.00     0.125 A 
HETATM    8  C2  UNL     1      28.151   5.073  48.582  1.00  0.00     0.032 A 
HETATM    9  C3  UNL     1      28.657   6.257  48.274  1.00  0.00     0.114 A 
HETATM   10  N2  UNL     1      27.742   7.343  48.189  1.00  0.00    -0.273 NA
BRANCH   6  11
HETATM   11  N1  UNL     1      26.775   4.132  50.239  1.00  0.00     0.090 N 
HETATM   12  H1  UNL     1      27.425   4.646  50.862  1.00  0.00     0.314 HD
HETATM   13  H2  UNL     1      26.807   3.110  50.337  1.00  0.00     0.314 HD
ENDBRANCH   6  11
ENDBRANCH   3   4
ENDBRANCH   1   2
BRANCH   1  14
HETATM   14  N4  UNL     1      23.410   2.587  52.076  1.00  0.00    -0.370 N 
HETATM   15  H11 UNL     1      23.390   3.015  53.035  1.00  0.00     0.161 HD
BRANCH  14  16
HETATM   16  C9  UNL     1      24.113   1.406  52.437  1.00  0.00     0.058 C 
HETATM   17  C10 UNL     1      25.337   1.293  51.934  1.00  0.00     0.031 C 
HETATM   18  C11 UNL     1      26.249   0.160  52.171  1.00  0.00    -0.000 C 
HETATM   19  C12 UNL     1      26.197  -0.691  53.179  1.00  0.00    -0.007 C 
HETATM   20  C13 UNL     1      25.322  -0.868  54.368  1.00  0.00     0.157 C 
HETATM   21  N5  UNL     1      23.967  -0.434  54.087  1.00  0.00    -0.335 N 
HETATM   22  C14 UNL     1      22.912  -1.035  54.706  1.00  0.00     0.210 A 
HETATM   23  C16 UNL     1      23.382   0.493  53.308  1.00  0.00     0.080 A 
HETATM   24  N6  UNL     1      21.742  -0.512  54.332  1.00  0.00    -0.254 NA
HETATM   25  C15 UNL     1      22.010   0.459  53.446  1.00  0.00     0.149 A 
ENDBRANCH  14  16
ENDBRANCH   1  14
TORSDOF 5
ENDMDL
MODEL 7
REMARK VINA RESULT:      -7.2      3.936      6.368
REMARK  5 active torsions:
REMARK  status: ('A' for Active; 'I' for Inactive)
REMARK    1  A    between atoms: N1_1  and  C1_2 
REMARK    2  A    between atoms: C6_8  and  C7_9 
REMARK    3  A    between atoms: N3_10  and  C8_11 
REMARK    4  A    between atoms: C8_11  and  N4_12 
REMARK    5  A    between atoms: N4_12  and  C9_13 
ROOT
HETATM    1  C8  UNL     1      23.772   1.150  52.865  1.00  0.00     0.270 C 
ENDROOT
BRANCH   1   2
HETATM    2  N3  UNL     1      22.606   0.641  53.513  1.00  0.00    -0.282 NA
HETATM    3  C7  UNL     1      21.937  -0.308  52.904  1.00  0.00     0.113 C 
BRANCH   3   4
HETATM    4  C6  UNL     1      20.723  -0.878  53.520  1.00  0.00     0.030 C 
HETATM    5  C5  UNL     1      19.531  -0.628  53.004  1.00  0.00    -0.003 A 
HETATM    6  C1  UNL     1      19.409   0.232  51.798  1.00  0.00     0.276 A 
HETATM    7  C4  UNL     1      18.360  -1.213  53.645  1.00  0.00     0.125 A 
HETATM    8  C2  UNL     1      17.931   0.287  51.507  1.00  0.00     0.032 A 
HETATM    9  C3  UNL     1      16.885  -0.258  52.110  1.00  0.00     0.114 A 
HETATM   10  N2  UNL     1      17.151  -1.058  53.256  1.00  0.00    -0.273 NA
BRANCH   6  11
HETATM   11  N1  UNL     1      19.795   1.601  52.078  1.00  0.00     0.090 N 
HETATM   12  H1  UNL     1      20.359   2.048  51.331  1.00  0.00     0.314 HD
HETATM   13  H2  UNL     1      20.135   1.772  53.032  1.00  0.00     0.314 HD
ENDBRANCH   6  11
ENDBRANCH   3   4
ENDBRANCH   1   2
BRANCH   1  14
HETATM   14  N4  UNL     1      24.880   0.270  53.254  1.00  0.00    -0.370 N 
HETATM   15  H11 UNL     1      24.924  -0.723  53.592  1.00  0.00     0.161 HD
BRANCH  14  16
HETATM   16  C9  UNL     1      26.279   0.518  53.288  1.00  0.00     0.058 C 
HETATM   17  C10 UNL     1      26.630   1.791  53.436  1.00  0.00     0.031 C 
HETATM   18  C11 UNL     1      28.017   2.285  53.500  1.00  0.00    -0.000 C 
HETATM   19  C12 UNL     1      29.087   1.580  53.817  1.00  0.00    -0.007 C 
HETATM   20  C13 UNL     1      29.345   0.168  54.203  1.00  0.00     0.157 C 
HETATM   21  N5  UNL     1      28.401  -0.728  53.565  1.00  0.00    -0.335 N 
HETATM   22  C14 UNL     1      28.771  -1.999  53.240  1.00  0.00     0.210 A 
HETATM   23  C16 UNL     1      27.121  -0.665  53.155  1.00  0.00     0.080 A 
HETATM   24  N6  UNL     1      27.780  -2.682  52.663  1.00  0.00    -0.254 NA
HETATM   25  C15 UNL     1      26.722  -1.860  52.596  1.00  0.00     0.149 A 
ENDBRANCH  14  16
ENDBRANCH   1  14
TORSDOF 5
ENDMDL
MODEL 8
REMARK VINA RESULT:      -7.2      2.135      3.204
REMARK  5 active torsions:
REMARK  status: ('A' for Active; 'I' for Inactive)
REMARK    1  A    between atoms: N1_1  and  C1_2 
REMARK    2  A    between atoms: C6_8  and  C7_9 
REMARK    3  A    between atoms: N3_10  and  C8_11 
REMARK    4  A    between atoms: C8_11  and  N4_12 
REMARK    5  A    between atoms: N4_12  and  C9_13 
ROOT
HETATM    1  C8  UNL     1      22.870   3.333  51.188  1.00  0.00     0.270 C 
ENDROOT
BRANCH   1   2
HETATM    2  N3  UNL     1      23.586   4.529  50.875  1.00  0.00    -0.282 NA
HETATM    3  C7  UNL     1      23.914   4.731  49.622  1.00  0.00     0.113 C 
BRANCH   3   4
HETATM    4  C6  UNL     1      24.654   5.947  49.232  1.00  0.00     0.030 C 
HETATM    5  C5  UNL     1      25.940   5.879  48.928  1.00  0.00    -0.003 A 
HETATM    6  C1  UNL     1      26.647   4.572  48.980  1.00  0.00     0.276 A 
HETATM    7  C4  UNL     1      26.629   7.105  48.547  1.00  0.00     0.125 A 
HETATM    8  C2  UNL     1      28.066   4.883  48.576  1.00  0.00     0.032 A 
HETATM    9  C3  UNL     1      28.666   6.012  48.234  1.00  0.00     0.114 A 
HETATM   10  N2  UNL     1      27.866   7.187  48.229  1.00  0.00    -0.273 NA
BRANCH   6  11
HETATM   11  N1  UNL     1      26.737   4.067  50.336  1.00  0.00     0.090 N 
HETATM   12  H1  UNL     1      26.556   4.777  51.070  1.00  0.00     0.314 HD
HETATM   13  H2  UNL     1      27.542   3.456  50.521  1.00  0.00     0.314 HD
ENDBRANCH   6  11
ENDBRANCH   3   4
ENDBRANCH   1   2
BRANCH   1  14
HETATM   14  N4  UNL     1      23.874   2.345  51.601  1.00  0.00    -0.370 N 
HETATM   15  H11 UNL     1      24.821   2.084  51.228  1.00  0.00     0.161 HD
BRANCH  14  16
HETATM   16  C9  UNL     1      23.856   1.412  52.673  1.00  0.00     0.058 C 
HETATM   17  C10 UNL     1      22.706   0.772  52.853  1.00  0.00     0.031 C 
HETATM   18  C11 UNL     1      22.453  -0.236  53.897  1.00  0.00    -0.000 C 
HETATM   19  C12 UNL     1      23.362  -0.948  54.538  1.00  0.00    -0.007 C 
HETATM   20  C13 UNL     1      24.845  -1.045  54.501  1.00  0.00     0.157 C 
HETATM   21  N5  UNL     1      25.443   0.232  54.162  1.00  0.00    -0.335 N 
HETATM   22  C14 UNL     1      26.668   0.570  54.656  1.00  0.00     0.210 A 
HETATM   23  C16 UNL     1      25.105   1.299  53.416  1.00  0.00     0.080 A 
HETATM   24  N6  UNL     1      27.064   1.776  54.241  1.00  0.00    -0.254 NA
HETATM   25  C15 UNL     1      26.092   2.261  53.455  1.00  0.00     0.149 A 
ENDBRANCH  14  16
ENDBRANCH   1  14
TORSDOF 5
ENDMDL
MODEL 9
REMARK VINA RESULT:      -7.1      2.513      6.976
REMARK  5 active torsions:
REMARK  status: ('A' for Active; 'I' for Inactive)
REMARK    1  A    between atoms: N1_1  and  C1_2 
REMARK    2  A    between atoms: C6_8  and  C7_9 
REMARK    3  A    between atoms: N3_10  and  C8_11 
REMARK    4  A    between atoms: C8_11  and  N4_12 
REMARK    5  A    between atoms: N4_12  and  C9_13 
ROOT
HETATM    1  C8  UNL     1      23.914   6.293  51.053  1.00  0.00     0.270 C 
ENDROOT
BRANCH   1   2
HETATM    2  N3  UNL     1      23.499   4.927  51.078  1.00  0.00    -0.282 NA
HETATM    3  C7  UNL     1      23.271   4.383  52.249  1.00  0.00     0.113 C 
BRANCH   3   4
HETATM    4  C6  UNL     1      22.839   2.975  52.345  1.00  0.00     0.030 C 
HETATM    5  C5  UNL     1      23.671   2.048  52.791  1.00  0.00    -0.003 A 
HETATM    6  C1  UNL     1      25.051   2.424  53.198  1.00  0.00     0.276 A 
HETATM    7  C4  UNL     1      23.201   0.671  52.870  1.00  0.00     0.125 A 
HETATM    8  C2  UNL     1      25.689   1.132  53.643  1.00  0.00     0.032 A 
HETATM    9  C3  UNL     1      25.235  -0.110  53.704  1.00  0.00     0.114 A 
HETATM   10  N2  UNL     1      23.893  -0.323  53.281  1.00  0.00    -0.273 NA
BRANCH   6  11
HETATM   11  N1  UNL     1      25.839   2.869  52.065  1.00  0.00     0.090 N 
HETATM   12  H1  UNL     1      25.299   3.381  51.343  1.00  0.00     0.314 HD
HETATM   13  H2  UNL     1      26.499   2.175  51.694  1.00  0.00     0.314 HD
ENDBRANCH   6  11
ENDBRANCH   3   4
ENDBRANCH   1   2
BRANCH   1  14
HETATM   14  N4  UNL     1      24.582   6.499  49.762  1.00  0.00    -0.370 N 
HETATM   15  H11 UNL     1      24.232   6.750  48.804  1.00  0.00     0.161 HD
BRANCH  14  16
HETATM   16  C9  UNL     1      25.959   6.416  49.418  1.00  0.00     0.058 C 
HETATM   17  C10 UNL     1      26.380   5.216  49.035  1.00  0.00     0.031 C 
HETATM   18  C11 UNL     1      27.760   4.892  48.633  1.00  0.00    -0.000 C 
HETATM   19  C12 UNL     1      28.673   5.745  48.206  1.00  0.00    -0.007 C 
HETATM   20  C13 UNL     1      28.720   7.211  47.969  1.00  0.00     0.157 C 
HETATM   21  N5  UNL     1      27.857   7.917  48.895  1.00  0.00    -0.335 N 
HETATM   22  C14 UNL     1      28.175   9.177  49.306  1.00  0.00     0.210 A 
HETATM   23  C16 UNL     1      26.703   7.664  49.538  1.00  0.00     0.080 A 
HETATM   24  N6  UNL     1      27.272   9.675  50.154  1.00  0.00    -0.254 NA
HETATM   25  C15 UNL     1      26.328   8.737  50.320  1.00  0.00     0.149 A 
ENDBRANCH  14  16
ENDBRANCH   1  14
TORSDOF 5
ENDMDL
