MODEL 1
REMARK VINA RESULT:      -7.9      0.000      0.000
REMARK  4 active torsions:
REMARK  status: ('A' for Active; 'I' for Inactive)
REMARK    1  A    between atoms: C2_2  and  C3_3 
REMARK       I    between atoms: C3_3  and  N1_5 
REMARK    2  A    between atoms: N1_5  and  C4_6 
REMARK    3  A    between atoms: C8_10  and  N2_11 
REMARK    4  A    between atoms: C9_12  and  C10_13 
ROOT
HETATM    1  C4  UNL     1      26.438   1.000  52.927  1.00  0.00     0.037 A 
HETATM    2  C5  UNL     1      26.404   2.142  53.687  1.00  0.00     0.029 A 
HETATM    3  C6  UNL     1      25.308   2.966  53.813  1.00  0.00     0.004 A 
HETATM    4  C7  UNL     1      24.150   2.643  53.137  1.00  0.00     0.030 A 
HETATM    5  C8  UNL     1      24.159   1.503  52.370  1.00  0.00     0.043 A 
HETATM    6  C18 UNL     1      25.268   0.708  52.268  1.00  0.00     0.059 A 
ENDROOT
BRANCH   5   7
HETATM    7  N2  UNL     1      22.991   1.124  51.653  1.00  0.00    -0.297 N 
HETATM    8  C9  UNL     1      22.023   0.254  52.002  1.00  0.00     0.112 A 
HETATM    9  N3  UNL     1      21.086   0.184  51.028  1.00  0.00    -0.233 NA
HETATM   10  C12 UNL     1      21.425   1.015  50.010  1.00  0.00     0.086 A 
HETATM   11  C13 UNL     1      20.872   1.350  48.793  1.00  0.00     0.034 A 
HETATM   12  C17 UNL     1      22.624   1.592  50.427  1.00  0.00     0.070 A 
HETATM   13  C14 UNL     1      21.501   2.275  47.955  1.00  0.00     0.002 A 
HETATM   14  C15 UNL     1      22.687   2.861  48.342  1.00  0.00     0.002 A 
HETATM   15  C16 UNL     1      23.211   2.500  49.567  1.00  0.00     0.032 A 
BRANCH   8  16
HETATM   16  C10 UNL     1      21.975  -0.526  53.273  1.00  0.00     0.074 C 
HETATM   17  C11 UNL     1      21.216   0.145  54.369  1.00  0.00     0.013 C 
ENDBRANCH   8  16
ENDBRANCH   5   7
BRANCH   1  18
HETATM   18  N1  UNL     1      27.530   0.119  52.761  1.00  0.00    -0.324 N 
HETATM   19  C3  UNL     1      28.322  -0.513  53.751  1.00  0.00     0.244 C 
HETATM   20  O1  UNL     1      28.087  -0.315  54.951  1.00  0.00    -0.268 OA
HETATM   21  H4  UNL     1      27.851  -0.145  51.805  1.00  0.00     0.169 HD
BRANCH  19  22
HETATM   22  C2  UNL     1      29.434  -1.409  53.472  1.00  0.00     0.064 C 
HETATM   23  C1  UNL     1      29.046  -2.630  53.175  1.00  0.00     0.017 C 
ENDBRANCH  19  22
ENDBRANCH   1  18
TORSDOF 4
ENDMDL
MODEL 2
REMARK VINA RESULT:      -7.6      2.897      4.001
REMARK  4 active torsions:
REMARK  status: ('A' for Active; 'I' for Inactive)
REMARK    1  A    between atoms: C2_2  and  C3_3 
REMARK       I    between atoms: C3_3  and  N1_5 
REMARK    2  A    between atoms: N1_5  and  C4_6 
REMARK    3  A    between atoms: C8_10  and  N2_11 
REMARK    4  A    between atoms: C9_12  and  C10_13 
ROOT
HETATM    1  C4  UNL     1      26.065   0.673  52.520  1.00  0.00     0.037 A 
HETATM    2  C5  UNL     1      24.878   0.027  52.759  1.00  0.00     0.029 A 
HETATM    3  C6  UNL     1      23.633   0.565  52.519  1.00  0.00     0.004 A 
HETATM    4  C7  UNL     1      23.545   1.840  52.002  1.00  0.00     0.030 A 
HETATM    5  C8  UNL     1      24.720   2.507  51.753  1.00  0.00     0.043 A 
HETATM    6  C18 UNL     1      25.941   1.940  52.005  1.00  0.00     0.059 A 
ENDROOT
BRANCH   5   7
HETATM    7  N2  UNL     1      24.688   3.825  51.219  1.00  0.00    -0.297 N 
HETATM    8  C9  UNL     1      23.816   4.821  51.466  1.00  0.00     0.112 A 
HETATM    9  N3  UNL     1      24.146   5.919  50.748  1.00  0.00    -0.233 NA
HETATM   10  C12 UNL     1      25.254   5.661  50.007  1.00  0.00     0.086 A 
HETATM   11  C13 UNL     1      26.024   6.374  49.115  1.00  0.00     0.034 A 
HETATM   12  C17 UNL     1      25.574   4.341  50.322  1.00  0.00     0.070 A 
HETATM   13  C14 UNL     1      27.138   5.790  48.508  1.00  0.00     0.002 A 
HETATM   14  C15 UNL     1      27.477   4.486  48.800  1.00  0.00     0.002 A 
HETATM   15  C16 UNL     1      26.683   3.803  49.698  1.00  0.00     0.032 A 
BRANCH   8  16
HETATM   16  C10 UNL     1      22.649   4.743  52.393  1.00  0.00     0.074 C 
HETATM   17  C11 UNL     1      21.326   4.720  51.703  1.00  0.00     0.013 C 
ENDBRANCH   8  16
ENDBRANCH   5   7
BRANCH   1  18
HETATM   18  N1  UNL     1      27.366   0.173  52.746  1.00  0.00    -0.324 N 
HETATM   19  C3  UNL     1      28.153   0.238  53.921  1.00  0.00     0.244 C 
HETATM   20  O1  UNL     1      27.708   0.795  54.934  1.00  0.00    -0.268 OA
HETATM   21  H4  UNL     1      27.877  -0.324  51.984  1.00  0.00     0.169 HD
BRANCH  19  22
HETATM   22  C2  UNL     1      29.494  -0.314  54.051  1.00  0.00     0.064 C 
HETATM   23  C1  UNL     1      29.650  -1.441  53.391  1.00  0.00     0.017 C 
ENDBRANCH  19  22
ENDBRANCH   1  18
TORSDOF 4
ENDMDL
MODEL 3
REMARK VINA RESULT:      -7.5      2.674      6.435
REMARK  4 active torsions:
REMARK  status: ('A' for Active; 'I' for Inactive)
REMARK    1  A    between atoms: C2_2  and  C3_3 
REMARK       I    between atoms: C3_3  and  N1_5 
REMARK    2  A    between atoms: N1_5  and  C4_6 
REMARK    3  A    between atoms: C8_10  and  N2_11 
REMARK    4  A    between atoms: C9_12  and  C10_13 
ROOT
HETATM    1  C4  UNL     1      23.712   3.231  50.645  1.00  0.00     0.037 A 
HETATM    2  C5  UNL     1      23.280   4.256  51.448  1.00  0.00     0.029 A 
HETATM    3  C6  UNL     1      23.515   4.340  52.803  1.00  0.00     0.004 A 
HETATM    4  C7  UNL     1      24.230   3.336  53.420  1.00  0.00     0.030 A 
HETATM    5  C8  UNL     1      24.672   2.298  52.636  1.00  0.00     0.043 A 
HETATM    6  C18 UNL     1      24.420   2.248  51.291  1.00  0.00     0.059 A 
ENDROOT
BRANCH   5   7
HETATM    7  N2  UNL     1      25.415   1.235  53.221  1.00  0.00    -0.297 N 
HETATM    8  C9  UNL     1      25.004  -0.001  53.565  1.00  0.00     0.112 A 
HETATM    9  N3  UNL     1      26.032  -0.704  54.093  1.00  0.00    -0.233 NA
HETATM   10  C12 UNL     1      27.150   0.066  54.107  1.00  0.00     0.086 A 
HETATM   11  C13 UNL     1      28.454  -0.107  54.516  1.00  0.00     0.034 A 
HETATM   12  C17 UNL     1      26.735   1.278  53.555  1.00  0.00     0.070 A 
HETATM   13  C14 UNL     1      29.386   0.926  54.384  1.00  0.00     0.002 A 
HETATM   14  C15 UNL     1      29.003   2.134  53.842  1.00  0.00     0.002 A 
HETATM   15  C16 UNL     1      27.689   2.271  53.444  1.00  0.00     0.032 A 
BRANCH   8  16
HETATM   16  C10 UNL     1      23.621  -0.534  53.394  1.00  0.00     0.074 C 
HETATM   17  C11 UNL     1      22.974  -0.963  54.669  1.00  0.00     0.013 C 
ENDBRANCH   8  16
ENDBRANCH   5   7
BRANCH   1  18
HETATM   18  N1  UNL     1      23.502   3.092  49.255  1.00  0.00    -0.324 N 
HETATM   19  C3  UNL     1      22.485   2.379  48.574  1.00  0.00     0.244 C 
HETATM   20  O1  UNL     1      21.623   1.765  49.218  1.00  0.00    -0.268 OA
HETATM   21  H4  UNL     1      24.148   3.553  48.578  1.00  0.00     0.169 HD
BRANCH  19  22
HETATM   22  C2  UNL     1      22.358   2.299  47.126  1.00  0.00     0.064 C 
HETATM   23  C1  UNL     1      21.932   3.420  46.587  1.00  0.00     0.017 C 
ENDBRANCH  19  22
ENDBRANCH   1  18
TORSDOF 4
ENDMDL
MODEL 4
REMARK VINA RESULT:      -7.4      3.198      6.382
REMARK  4 active torsions:
REMARK  status: ('A' for Active; 'I' for Inactive)
REMARK    1  A    between atoms: C2_2  and  C3_3 
REMARK       I    between atoms: C3_3  and  N1_5 
REMARK    2  A    between atoms: N1_5  and  C4_6 
REMARK    3  A    between atoms: C8_10  and  N2_11 
REMARK    4  A    between atoms: C9_12  and  C10_13 
ROOT
HETATM    1  C4  UNL     1      24.932   3.649  51.515  1.00  0.00     0.037 A 
HETATM    2  C5  UNL     1      25.817   3.345  50.511  1.00  0.00     0.029 A 
HETATM    3  C6  UNL     1      26.558   2.185  50.447  1.00  0.00     0.004 A 
HETATM    4  C7  UNL     1      26.420   1.249  51.450  1.00  0.00     0.030 A 
HETATM    5  C8  UNL     1      25.540   1.532  52.466  1.00  0.00     0.043 A 
HETATM    6  C18 UNL     1      24.819   2.696  52.497  1.00  0.00     0.059 A 
ENDROOT
BRANCH   5   7
HETATM    7  N2  UNL     1      25.359   0.602  53.526  1.00  0.00    -0.297 N 
HETATM    8  C9  UNL     1      26.249   0.174  54.443  1.00  0.00     0.112 A 
HETATM    9  N3  UNL     1      25.666  -0.717  55.278  1.00  0.00    -0.233 NA
HETATM   10  C12 UNL     1      24.368  -0.893  54.921  1.00  0.00     0.086 A 
HETATM   11  C13 UNL     1      23.317  -1.652  55.388  1.00  0.00     0.034 A 
HETATM   12  C17 UNL     1      24.201  -0.054  53.820  1.00  0.00     0.070 A 
HETATM   13  C14 UNL     1      22.066  -1.596  54.769  1.00  0.00     0.002 A 
HETATM   14  C15 UNL     1      21.873  -0.775  53.678  1.00  0.00     0.002 A 
HETATM   15  C16 UNL     1      22.948  -0.030  53.238  1.00  0.00     0.032 A 
BRANCH   8  16
HETATM   16  C10 UNL     1      27.673   0.607  54.538  1.00  0.00     0.074 C 
HETATM   17  C11 UNL     1      28.637  -0.328  53.888  1.00  0.00     0.013 C 
ENDBRANCH   8  16
ENDBRANCH   5   7
BRANCH   1  18
HETATM   18  N1  UNL     1      24.148   4.819  51.631  1.00  0.00    -0.324 N 
HETATM   19  C3  UNL     1      22.908   5.124  51.019  1.00  0.00     0.244 C 
HETATM   20  O1  UNL     1      22.372   4.302  50.262  1.00  0.00    -0.268 OA
HETATM   21  H4  UNL     1      24.467   5.606  52.235  1.00  0.00     0.169 HD
BRANCH  19  22
HETATM   22  C2  UNL     1      22.176   6.368  51.208  1.00  0.00     0.064 C 
HETATM   23  C1  UNL     1      22.780   7.404  50.668  1.00  0.00     0.017 C 
ENDBRANCH  19  22
ENDBRANCH   1  18
TORSDOF 4
ENDMDL
MODEL 5
REMARK VINA RESULT:      -7.4      1.750      2.375
REMARK  4 active torsions:
REMARK  status: ('A' for Active; 'I' for Inactive)
REMARK    1  A    between atoms: C2_2  and  C3_3 
REMARK       I    between atoms: C3_3  and  N1_5 
REMARK    2  A    between atoms: N1_5  and  C4_6 
REMARK    3  A    between atoms: C8_10  and  N2_11 
REMARK    4  A    between atoms: C9_12  and  C10_13 
ROOT
HETATM    1  C4  UNL     1      25.121   1.031  52.468  1.00  0.00     0.037 A 
HETATM    2  C5  UNL     1      25.197   2.401  52.503  1.00  0.00     0.029 A 
HETATM    3  C6  UNL     1      24.111   3.241  52.616  1.00  0.00     0.004 A 
HETATM    4  C7  UNL     1      22.849   2.692  52.701  1.00  0.00     0.030 A 
HETATM    5  C8  UNL     1      22.748   1.323  52.668  1.00  0.00     0.043 A 
HETATM    6  C18 UNL     1      23.851   0.518  52.555  1.00  0.00     0.059 A 
ENDROOT
BRANCH   5   7
HETATM    7  N2  UNL     1      21.470   0.704  52.752  1.00  0.00    -0.297 N 
HETATM    8  C9  UNL     1      20.944  -0.029  53.753  1.00  0.00     0.112 A 
HETATM    9  N3  UNL     1      19.694  -0.431  53.429  1.00  0.00    -0.233 NA
HETATM   10  C12 UNL     1      19.372   0.035  52.195  1.00  0.00     0.086 A 
HETATM   11  C13 UNL     1      18.272  -0.053  51.370  1.00  0.00     0.034 A 
HETATM   12  C17 UNL     1      20.504   0.744  51.793  1.00  0.00     0.070 A 
HETATM   13  C14 UNL     1      18.268   0.567  50.118  1.00  0.00     0.002 A 
HETATM   14  C15 UNL     1      19.373   1.274  49.695  1.00  0.00     0.002 A 
HETATM   15  C16 UNL     1      20.456   1.340  50.548  1.00  0.00     0.032 A 
BRANCH   8  16
HETATM   16  C10 UNL     1      21.627  -0.359  55.038  1.00  0.00     0.074 C 
HETATM   17  C11 UNL     1      22.300  -1.691  55.044  1.00  0.00     0.013 C 
ENDBRANCH   8  16
ENDBRANCH   5   7
BRANCH   1  18
HETATM   18  N1  UNL     1      26.197   0.123  52.354  1.00  0.00    -0.324 N 
HETATM   19  C3  UNL     1      27.185  -0.212  53.311  1.00  0.00     0.244 C 
HETATM   20  O1  UNL     1      27.171   0.324  54.429  1.00  0.00    -0.268 OA
HETATM   21  H4  UNL     1      26.344  -0.409  51.469  1.00  0.00     0.169 HD
BRANCH  19  22
HETATM   22  C2  UNL     1      28.260  -1.170  53.092  1.00  0.00     0.064 C 
HETATM   23  C1  UNL     1      29.358  -0.866  53.746  1.00  0.00     0.017 C 
ENDBRANCH  19  22
ENDBRANCH   1  18
TORSDOF 4
ENDMDL
MODEL 6
REMARK VINA RESULT:      -7.3      1.690      2.544
REMARK  4 active torsions:
REMARK  status: ('A' for Active; 'I' for Inactive)
REMARK    1  A    between atoms: C2_2  and  C3_3 
REMARK       I    between atoms: C3_3  and  N1_5 
REMARK    2  A    between atoms: N1_5  and  C4_6 
REMARK    3  A    between atoms: C8_10  and  N2_11 
REMARK    4  A    between atoms: C9_12  and  C10_13 
ROOT
HETATM    1  C4  UNL     1      25.727  -0.506  53.595  1.00  0.00     0.037 A 
HETATM    2  C5  UNL     1      24.830  -0.882  54.564  1.00  0.00     0.029 A 
HETATM    3  C6  UNL     1      23.490  -0.565  54.554  1.00  0.00     0.004 A 
HETATM    4  C7  UNL     1      22.989   0.183  53.509  1.00  0.00     0.030 A 
HETATM    5  C8  UNL     1      23.868   0.571  52.527  1.00  0.00     0.043 A 
HETATM    6  C18 UNL     1      25.195   0.237  52.570  1.00  0.00     0.059 A 
ENDROOT
BRANCH   5   7
HETATM    7  N2  UNL     1      23.404   1.343  51.427  1.00  0.00    -0.297 N 
HETATM    8  C9  UNL     1      22.247   1.242  50.743  1.00  0.00     0.112 A 
HETATM    9  N3  UNL     1      22.200   2.175  49.765  1.00  0.00    -0.233 NA
HETATM   10  C12 UNL     1      23.338   2.915  49.787  1.00  0.00     0.086 A 
HETATM   11  C13 UNL     1      23.836   3.969  49.054  1.00  0.00     0.034 A 
HETATM   12  C17 UNL     1      24.076   2.373  50.839  1.00  0.00     0.070 A 
HETATM   13  C14 UNL     1      25.087   4.516  49.349  1.00  0.00     0.002 A 
HETATM   14  C15 UNL     1      25.838   4.000  50.384  1.00  0.00     0.002 A 
HETATM   15  C16 UNL     1      25.307   2.944  51.096  1.00  0.00     0.032 A 
BRANCH   8  16
HETATM   16  C10 UNL     1      21.165   0.251  51.013  1.00  0.00     0.074 C 
HETATM   17  C11 UNL     1      19.861   0.865  51.401  1.00  0.00     0.013 C 
ENDBRANCH   8  16
ENDBRANCH   5   7
BRANCH   1  18
HETATM   18  N1  UNL     1      27.108  -0.802  53.553  1.00  0.00    -0.324 N 
HETATM   19  C3  UNL     1      28.188  -0.095  54.136  1.00  0.00     0.244 C 
HETATM   20  O1  UNL     1      27.973   0.935  54.790  1.00  0.00    -0.268 OA
HETATM   21  H4  UNL     1      27.449  -1.642  53.038  1.00  0.00     0.169 HD
BRANCH  19  22
HETATM   22  C2  UNL     1      29.586  -0.488  54.032  1.00  0.00     0.064 C 
HETATM   23  C1  UNL     1      29.748  -1.652  53.443  1.00  0.00     0.017 C 
ENDBRANCH  19  22
ENDBRANCH   1  18
TORSDOF 4
ENDMDL
MODEL 7
REMARK VINA RESULT:      -7.3      2.053      3.728
REMARK  4 active torsions:
REMARK  status: ('A' for Active; 'I' for Inactive)
REMARK    1  A    between atoms: C2_2  and  C3_3 
REMARK       I    between atoms: C3_3  and  N1_5 
REMARK    2  A    between atoms: N1_5  and  C4_6 
REMARK    3  A    between atoms: C8_10  and  N2_11 
REMARK    4  A    between atoms: C9_12  and  C10_13 
ROOT
HETATM    1  C4  UNL     1      26.248   2.542  51.790  1.00  0.00     0.037 A 
HETATM    2  C5  UNL     1      26.313   2.970  50.488  1.00  0.00     0.029 A 
HETATM    3  C6  UNL     1      25.217   3.210  49.688  1.00  0.00     0.004 A 
HETATM    4  C7  UNL     1      23.956   3.013  50.209  1.00  0.00     0.030 A 
HETATM    5  C8  UNL     1      23.866   2.585  51.511  1.00  0.00     0.043 A 
HETATM    6  C18 UNL     1      24.977   2.356  52.277  1.00  0.00     0.059 A 
ENDROOT
BRANCH   5   7
HETATM    7  N2  UNL     1      22.589   2.366  52.098  1.00  0.00    -0.297 N 
HETATM    8  C9  UNL     1      21.553   3.219  52.224  1.00  0.00     0.112 A 
HETATM    9  N3  UNL     1      20.518   2.608  52.845  1.00  0.00    -0.233 NA
HETATM   10  C12 UNL     1      20.859   1.327  53.143  1.00  0.00     0.086 A 
HETATM   11  C13 UNL     1      20.233   0.264  53.755  1.00  0.00     0.034 A 
HETATM   12  C17 UNL     1      22.163   1.202  52.663  1.00  0.00     0.070 A 
HETATM   13  C14 UNL     1      20.890  -0.960  53.906  1.00  0.00     0.002 A 
HETATM   14  C15 UNL     1      22.179  -1.112  53.441  1.00  0.00     0.002 A 
HETATM   15  C16 UNL     1      22.774  -0.025  52.833  1.00  0.00     0.032 A 
BRANCH   8  16
HETATM   16  C10 UNL     1      21.533   4.635  51.753  1.00  0.00     0.074 C 
HETATM   17  C11 UNL     1      20.699   4.858  50.535  1.00  0.00     0.013 C 
ENDBRANCH   8  16
ENDBRANCH   5   7
BRANCH   1  18
HETATM   18  N1  UNL     1      27.334   2.281  52.655  1.00  0.00    -0.324 N 
HETATM   19  C3  UNL     1      27.915   1.037  53.004  1.00  0.00     0.244 C 
HETATM   20  O1  UNL     1      27.464  -0.013  52.527  1.00  0.00    -0.268 OA
HETATM   21  H4  UNL     1      27.822   3.066  53.136  1.00  0.00     0.169 HD
BRANCH  19  22
HETATM   22  C2  UNL     1      29.042   0.877  53.913  1.00  0.00     0.064 C 
HETATM   23  C1  UNL     1      29.748  -0.204  53.666  1.00  0.00     0.017 C 
ENDBRANCH  19  22
ENDBRANCH   1  18
TORSDOF 4
ENDMDL
MODEL 8
REMARK VINA RESULT:      -7.3      3.140      6.158
REMARK  4 active torsions:
REMARK  status: ('A' for Active; 'I' for Inactive)
REMARK    1  A    between atoms: C2_2  and  C3_3 
REMARK       I    between atoms: C3_3  and  N1_5 
REMARK    2  A    between atoms: N1_5  and  C4_6 
REMARK    3  A    between atoms: C8_10  and  N2_11 
REMARK    4  A    between atoms: C9_12  and  C10_13 
ROOT
HETATM    1  C4  UNL     1      24.472   3.620  50.603  1.00  0.00     0.037 A 
HETATM    2  C5  UNL     1      23.145   3.813  50.896  1.00  0.00     0.029 A 
HETATM    3  C6  UNL     1      22.462   3.158  51.896  1.00  0.00     0.004 A 
HETATM    4  C7  UNL     1      23.135   2.238  52.672  1.00  0.00     0.030 A 
HETATM    5  C8  UNL     1      24.464   2.029  52.398  1.00  0.00     0.043 A 
HETATM    6  C18 UNL     1      25.112   2.698  51.395  1.00  0.00     0.059 A 
ENDROOT
BRANCH   5   7
HETATM    7  N2  UNL     1      25.207   1.091  53.168  1.00  0.00    -0.297 N 
HETATM    8  C9  UNL     1      24.812  -0.092  53.679  1.00  0.00     0.112 A 
HETATM    9  N3  UNL     1      25.833  -0.674  54.350  1.00  0.00    -0.233 NA
HETATM   10  C12 UNL     1      26.929   0.125  54.291  1.00  0.00     0.086 A 
HETATM   11  C13 UNL     1      28.218   0.057  54.774  1.00  0.00     0.034 A 
HETATM   12  C17 UNL     1      26.509   1.225  53.544  1.00  0.00     0.070 A 
HETATM   13  C14 UNL     1      29.128   1.087  54.524  1.00  0.00     0.002 A 
HETATM   14  C15 UNL     1      28.740   2.187  53.788  1.00  0.00     0.002 A 
HETATM   15  C16 UNL     1      27.441   2.220  53.322  1.00  0.00     0.032 A 
BRANCH   8  16
HETATM   16  C10 UNL     1      23.452  -0.688  53.537  1.00  0.00     0.074 C 
HETATM   17  C11 UNL     1      22.804  -1.041  54.835  1.00  0.00     0.013 C 
ENDBRANCH   8  16
ENDBRANCH   5   7
BRANCH   1  18
HETATM   18  N1  UNL     1      25.222   4.262  49.593  1.00  0.00    -0.324 N 
HETATM   19  C3  UNL     1      25.684   5.599  49.540  1.00  0.00     0.244 C 
HETATM   20  O1  UNL     1      25.435   6.377  50.472  1.00  0.00    -0.268 OA
HETATM   21  H4  UNL     1      25.510   3.736  48.739  1.00  0.00     0.169 HD
BRANCH  19  22
HETATM   22  C2  UNL     1      26.456   6.165  48.443  1.00  0.00     0.064 C 
HETATM   23  C1  UNL     1      27.701   5.744  48.423  1.00  0.00     0.017 C 
ENDBRANCH  19  22
ENDBRANCH   1  18
TORSDOF 4
ENDMDL
MODEL 9
REMARK VINA RESULT:      -7.1      3.706      5.266
REMARK  4 active torsions:
REMARK  status: ('A' for Active; 'I' for Inactive)
REMARK    1  A    between atoms: C2_2  and  C3_3 
REMARK       I    between atoms: C3_3  and  N1_5 
REMARK    2  A    between atoms: N1_5  and  C4_6 
REMARK    3  A    between atoms: C8_10  and  N2_11 
REMARK    4  A    between atoms: C9_12  and  C10_13 
ROOT
HETATM    1  C4  UNL     1      24.144   1.835  52.169  1.00  0.00     0.037 A 
HETATM    2  C5  UNL     1      23.177   1.213  51.419  1.00  0.00     0.029 A 
HETATM    3  C6  UNL     1      22.599   1.749  50.290  1.00  0.00     0.004 A 
HETATM    4  C7  UNL     1      23.001   2.998  49.863  1.00  0.00     0.030 A 
HETATM    5  C8  UNL     1      23.968   3.639  50.598  1.00  0.00     0.043 A 
HETATM    6  C18 UNL     1      24.521   3.075  51.716  1.00  0.00     0.059 A 
ENDROOT
BRANCH   5   7
HETATM    7  N2  UNL     1      24.419   4.929  50.201  1.00  0.00    -0.297 N 
HETATM    8  C9  UNL     1      23.806   6.122  50.332  1.00  0.00     0.112 A 
HETATM    9  N3  UNL     1      24.584   7.104  49.821  1.00  0.00    -0.233 NA
HETATM   10  C12 UNL     1      25.735   6.568  49.340  1.00  0.00     0.086 A 
HETATM   11  C13 UNL     1      26.865   7.063  48.727  1.00  0.00     0.034 A 
HETATM   12  C17 UNL     1      25.606   5.202  49.592  1.00  0.00     0.070 A 
HETATM   13  C14 UNL     1      27.902   6.208  48.346  1.00  0.00     0.002 A 
HETATM   14  C15 UNL     1      27.801   4.854  48.582  1.00  0.00     0.002 A 
HETATM   15  C16 UNL     1      26.655   4.394  49.198  1.00  0.00     0.032 A 
BRANCH   8  16
HETATM   16  C10 UNL     1      22.465   6.345  50.947  1.00  0.00     0.074 C 
HETATM   17  C11 UNL     1      21.841   7.651  50.583  1.00  0.00     0.013 C 
ENDBRANCH   8  16
ENDBRANCH   5   7
BRANCH   1  18
HETATM   18  N1  UNL     1      24.771   1.335  53.332  1.00  0.00    -0.324 N 
HETATM   19  C3  UNL     1      25.794   0.362  53.444  1.00  0.00     0.244 C 
HETATM   20  O1  UNL     1      26.254  -0.172  52.425  1.00  0.00    -0.268 OA
HETATM   21  H4  UNL     1      24.490   1.687  54.273  1.00  0.00     0.169 HD
BRANCH  19  22
HETATM   22  C2  UNL     1      26.375  -0.087  54.701  1.00  0.00     0.064 C 
HETATM   23  C1  UNL     1      27.659   0.182  54.796  1.00  0.00     0.017 C 
ENDBRANCH  19  22
ENDBRANCH   1  18
TORSDOF 4
ENDMDL
