MODEL 1
REMARK VINA RESULT:      -7.4      0.000      0.000
REMARK  5 active torsions:
REMARK  status: ('A' for Active; 'I' for Inactive)
REMARK    1  A    between atoms: C2_2  and  O1_3 
REMARK    2  A    between atoms: C2_2  and  C13_16 
REMARK    3  A    between atoms: O1_3  and  C3_4 
REMARK    4  A    between atoms: C8_10  and  C9_11 
REMARK    5  A    between atoms: C14_18  and  C15_19 
ROOT
HETATM    1  C3  UNL     1      22.396  -0.460  53.580  1.00  0.00     0.082 A 
HETATM    2  C4  UNL     1      22.172  -1.259  54.651  1.00  0.00     0.040 A 
HETATM    3  C5  UNL     1      23.323  -1.481  55.371  1.00  0.00     0.035 A 
HETATM    4  C6  UNL     1      24.352  -0.801  54.751  1.00  0.00     0.069 A 
HETATM    5  N1  UNL     1      25.665  -0.742  55.123  1.00  0.00    -0.259 NA
HETATM    6  C7  UNL     1      26.510   0.321  54.979  1.00  0.00     0.131 C 
HETATM    7  C8  UNL     1      26.580   1.073  53.820  1.00  0.00     0.019 C 
HETATM    8  C10 UNL     1      25.624   1.327  52.858  1.00  0.00     0.017 C 
HETATM    9  C11 UNL     1      24.405   0.672  52.650  1.00  0.00     0.017 C 
HETATM   10  C12 UNL     1      23.746  -0.135  53.583  1.00  0.00     0.026 A 
ENDROOT
BRANCH   1  11
HETATM   11  O1  UNL     1      21.579   0.040  52.577  1.00  0.00    -0.340 OA
BRANCH  11  12
HETATM   12  C2  UNL     1      20.382   0.678  52.918  1.00  0.00     0.169 C 
HETATM   13  C1  UNL     1      20.261   2.032  52.252  1.00  0.00     0.046 C 
BRANCH  12  14
HETATM   14  C13 UNL     1      19.184  -0.174  52.601  1.00  0.00     0.039 C 
HETATM   15 CL1  UNL     1      18.334   0.024  51.063  1.00  0.00    -0.086 Cl
HETATM   16  C14 UNL     1      18.659  -1.116  53.387  1.00  0.00     0.026 C 
BRANCH  16  17
HETATM   17  C15 UNL     1      17.491  -2.054  53.254  1.00  0.00     0.251 C 
HETATM   18  F1  UNL     1      17.728  -3.125  54.120  1.00  0.00    -0.251 F 
ENDBRANCH  16  17
ENDBRANCH  12  14
ENDBRANCH  11  12
ENDBRANCH   1  11
BRANCH   7  19
HETATM   19  C9  UNL     1      27.862   1.715  53.540  1.00  0.00     0.271 C 
HETATM   20  O2  UNL     1      28.441   2.670  54.113  1.00  0.00    -0.301 OA
ENDBRANCH   7  19
TORSDOF 5
ENDMDL
MODEL 2
REMARK VINA RESULT:      -7.4      2.797      3.540
REMARK  5 active torsions:
REMARK  status: ('A' for Active; 'I' for Inactive)
REMARK    1  A    between atoms: C2_2  and  O1_3 
REMARK    2  A    between atoms: C2_2  and  C13_16 
REMARK    3  A    between atoms: O1_3  and  C3_4 
REMARK    4  A    between atoms: C8_10  and  C9_11 
REMARK    5  A    between atoms: C14_18  and  C15_19 
ROOT
HETATM    1  C3  UNL     1      24.345   1.516  52.438  1.00  0.00     0.082 A 
HETATM    2  C4  UNL     1      24.391   2.749  52.996  1.00  0.00     0.040 A 
HETATM    3  C5  UNL     1      25.505   2.910  53.787  1.00  0.00     0.035 A 
HETATM    4  C6  UNL     1      26.226   1.734  53.752  1.00  0.00     0.069 A 
HETATM    5  N1  UNL     1      27.399   1.447  54.390  1.00  0.00    -0.259 NA
HETATM    6  C7  UNL     1      28.408   0.651  53.930  1.00  0.00     0.131 C 
HETATM    7  C8  UNL     1      28.184  -0.576  53.332  1.00  0.00     0.019 C 
HETATM    8  C10 UNL     1      27.097  -1.038  52.617  1.00  0.00     0.017 C 
HETATM    9  C11 UNL     1      25.813  -0.488  52.535  1.00  0.00     0.017 C 
HETATM   10  C12 UNL     1      25.468   0.825  52.872  1.00  0.00     0.026 A 
ENDROOT
BRANCH   1  11
HETATM   11  O1  UNL     1      23.447   0.887  51.588  1.00  0.00    -0.340 OA
BRANCH  11  12
HETATM   12  C2  UNL     1      22.076   0.964  51.856  1.00  0.00     0.169 C 
HETATM   13  C1  UNL     1      21.249   0.505  50.674  1.00  0.00     0.046 C 
BRANCH  12  14
HETATM   14  C13 UNL     1      21.704   0.190  53.091  1.00  0.00     0.039 C 
HETATM   15 CL1  UNL     1      20.492   0.828  54.209  1.00  0.00    -0.086 Cl
HETATM   16  C14 UNL     1      22.210  -0.988  53.462  1.00  0.00     0.026 C 
BRANCH  16  17
HETATM   17  C15 UNL     1      21.974  -1.902  54.633  1.00  0.00     0.251 C 
HETATM   18  F1  UNL     1      22.778  -1.440  55.678  1.00  0.00    -0.251 F 
ENDBRANCH  16  17
ENDBRANCH  12  14
ENDBRANCH  11  12
ENDBRANCH   1  11
BRANCH   7  19
HETATM   19  C9  UNL     1      29.251  -1.566  53.461  1.00  0.00     0.271 C 
HETATM   20  O2  UNL     1      29.205  -2.820  53.479  1.00  0.00    -0.301 OA
ENDBRANCH   7  19
TORSDOF 5
ENDMDL
MODEL 3
REMARK VINA RESULT:      -7.3      2.288      2.876
REMARK  5 active torsions:
REMARK  status: ('A' for Active; 'I' for Inactive)
REMARK    1  A    between atoms: C2_2  and  O1_3 
REMARK    2  A    between atoms: C2_2  and  C13_16 
REMARK    3  A    between atoms: O1_3  and  C3_4 
REMARK    4  A    between atoms: C8_10  and  C9_11 
REMARK    5  A    between atoms: C14_18  and  C15_19 
ROOT
HETATM    1  C3  UNL     1      23.685   1.056  52.793  1.00  0.00     0.082 A 
HETATM    2  C4  UNL     1      23.660   2.403  52.934  1.00  0.00     0.040 A 
HETATM    3  C5  UNL     1      24.873   2.895  53.357  1.00  0.00     0.035 A 
HETATM    4  C6  UNL     1      25.738   1.829  53.502  1.00  0.00     0.069 A 
HETATM    5  N1  UNL     1      27.043   1.854  53.902  1.00  0.00    -0.259 NA
HETATM    6  C7  UNL     1      28.047   1.033  53.474  1.00  0.00     0.131 C 
HETATM    7  C8  UNL     1      27.891  -0.335  53.335  1.00  0.00     0.019 C 
HETATM    8  C10 UNL     1      26.764  -1.084  53.065  1.00  0.00     0.017 C 
HETATM    9  C11 UNL     1      25.422  -0.691  53.128  1.00  0.00     0.017 C 
HETATM   10  C12 UNL     1      24.962   0.630  53.134  1.00  0.00     0.026 A 
ENDROOT
BRANCH   1  11
HETATM   11  O1  UNL     1      22.739   0.121  52.402  1.00  0.00    -0.340 OA
BRANCH  11  12
HETATM   12  C2  UNL     1      21.416   0.526  52.193  1.00  0.00     0.169 C 
HETATM   13  C1  UNL     1      21.046   0.488  50.725  1.00  0.00     0.046 C 
BRANCH  12  14
HETATM   14  C13 UNL     1      20.446  -0.290  53.002  1.00  0.00     0.039 C 
HETATM   15 CL1  UNL     1      20.978  -1.091  54.486  1.00  0.00    -0.086 Cl
HETATM   16  C14 UNL     1      19.158  -0.490  52.715  1.00  0.00     0.026 C 
BRANCH  16  17
HETATM   17  C15 UNL     1      18.048  -1.256  53.382  1.00  0.00     0.251 C 
HETATM   18  F1  UNL     1      17.076  -1.494  52.407  1.00  0.00    -0.251 F 
ENDBRANCH  16  17
ENDBRANCH  12  14
ENDBRANCH  11  12
ENDBRANCH   1  11
BRANCH   7  19
HETATM   19  C9  UNL     1      29.095  -1.145  53.495  1.00  0.00     0.271 C 
HETATM   20  O2  UNL     1      29.257  -2.389  53.451  1.00  0.00    -0.301 OA
ENDBRANCH   7  19
TORSDOF 5
ENDMDL
MODEL 4
REMARK VINA RESULT:      -7.1      2.679      3.245
REMARK  5 active torsions:
REMARK  status: ('A' for Active; 'I' for Inactive)
REMARK    1  A    between atoms: C2_2  and  O1_3 
REMARK    2  A    between atoms: C2_2  and  C13_16 
REMARK    3  A    between atoms: O1_3  and  C3_4 
REMARK    4  A    between atoms: C8_10  and  C9_11 
REMARK    5  A    between atoms: C14_18  and  C15_19 
ROOT
HETATM    1  C3  UNL     1      22.087   0.043  53.828  1.00  0.00     0.082 A 
HETATM    2  C4  UNL     1      21.921  -0.990  54.688  1.00  0.00     0.040 A 
HETATM    3  C5  UNL     1      23.125  -1.459  55.161  1.00  0.00     0.035 A 
HETATM    4  C6  UNL     1      24.130  -0.704  54.590  1.00  0.00     0.069 A 
HETATM    5  N1  UNL     1      25.477  -0.821  54.776  1.00  0.00    -0.259 NA
HETATM    6  C7  UNL     1      26.394   0.191  54.783  1.00  0.00     0.131 C 
HETATM    7  C8  UNL     1      26.394   1.212  53.848  1.00  0.00     0.019 C 
HETATM    8  C10 UNL     1      25.356   1.761  53.124  1.00  0.00     0.017 C 
HETATM    9  C11 UNL     1      24.065   1.256  52.933  1.00  0.00     0.017 C 
HETATM   10  C12 UNL     1      23.452   0.275  53.721  1.00  0.00     0.026 A 
ENDROOT
BRANCH   1  11
HETATM   11  O1  UNL     1      21.205   0.833  53.105  1.00  0.00    -0.340 OA
BRANCH  11  12
HETATM   12  C2  UNL     1      20.735   0.382  51.866  1.00  0.00     0.169 C 
HETATM   13  C1  UNL     1      19.239   0.150  51.888  1.00  0.00     0.046 C 
BRANCH  12  14
HETATM   14  C13 UNL     1      21.105   1.321  50.752  1.00  0.00     0.039 C 
HETATM   15 CL1  UNL     1      21.071   3.069  51.013  1.00  0.00    -0.086 Cl
HETATM   16  C14 UNL     1      21.479   0.969  49.520  1.00  0.00     0.026 C 
BRANCH  16  17
HETATM   17  C15 UNL     1      21.881   1.739  48.292  1.00  0.00     0.251 C 
HETATM   18  F1  UNL     1      23.138   2.291  48.550  1.00  0.00    -0.251 F 
ENDBRANCH  16  17
ENDBRANCH  12  14
ENDBRANCH  11  12
ENDBRANCH   1  11
BRANCH   7  19
HETATM   19  C9  UNL     1      27.686   1.826  53.559  1.00  0.00     0.271 C 
HETATM   20  O2  UNL     1      28.374   2.638  54.225  1.00  0.00    -0.301 OA
ENDBRANCH   7  19
TORSDOF 5
ENDMDL
MODEL 5
REMARK VINA RESULT:      -7.1      4.940      6.719
REMARK  5 active torsions:
REMARK  status: ('A' for Active; 'I' for Inactive)
REMARK    1  A    between atoms: C2_2  and  O1_3 
REMARK    2  A    between atoms: C2_2  and  C13_16 
REMARK    3  A    between atoms: O1_3  and  C3_4 
REMARK    4  A    between atoms: C8_10  and  C9_11 
REMARK    5  A    between atoms: C14_18  and  C15_19 
ROOT
HETATM    1  C3  UNL     1      23.910   2.213  51.929  1.00  0.00     0.082 A 
HETATM    2  C4  UNL     1      22.808   2.929  52.259  1.00  0.00     0.040 A 
HETATM    3  C5  UNL     1      22.901   4.234  51.836  1.00  0.00     0.035 A 
HETATM    4  C6  UNL     1      24.115   4.390  51.200  1.00  0.00     0.069 A 
HETATM    5  N1  UNL     1      24.624   5.520  50.625  1.00  0.00    -0.259 NA
HETATM    6  C7  UNL     1      25.417   5.589  49.516  1.00  0.00     0.131 C 
HETATM    7  C8  UNL     1      26.489   4.739  49.305  1.00  0.00     0.019 C 
HETATM    8  C10 UNL     1      26.707   3.449  49.742  1.00  0.00     0.017 C 
HETATM    9  C11 UNL     1      26.030   2.743  50.743  1.00  0.00     0.017 C 
HETATM   10  C12 UNL     1      24.773   3.072  51.260  1.00  0.00     0.026 A 
ENDROOT
BRANCH   1  11
HETATM   11  O1  UNL     1      24.285   0.893  52.128  1.00  0.00    -0.340 OA
BRANCH  11  12
HETATM   12  C2  UNL     1      24.610   0.457  53.418  1.00  0.00     0.169 C 
HETATM   13  C1  UNL     1      23.693  -0.656  53.878  1.00  0.00     0.046 C 
BRANCH  12  14
HETATM   14  C13 UNL     1      26.048   0.031  53.518  1.00  0.00     0.039 C 
HETATM   15 CL1  UNL     1      26.725  -1.101  52.341  1.00  0.00    -0.086 Cl
HETATM   16  C14 UNL     1      26.923   0.430  54.444  1.00  0.00     0.026 C 
BRANCH  16  17
HETATM   17  C15 UNL     1      28.372   0.126  54.709  1.00  0.00     0.251 C 
HETATM   18  F1  UNL     1      29.107   0.710  53.675  1.00  0.00    -0.251 F 
ENDBRANCH  16  17
ENDBRANCH  12  14
ENDBRANCH  11  12
ENDBRANCH   1  11
BRANCH   7  19
HETATM   19  C9  UNL     1      27.583   5.265  48.492  1.00  0.00     0.271 C 
HETATM   20  O2  UNL     1      28.795   4.943  48.447  1.00  0.00    -0.301 OA
ENDBRANCH   7  19
TORSDOF 5
ENDMDL
MODEL 6
REMARK VINA RESULT:      -7.1      3.614      4.477
REMARK  5 active torsions:
REMARK  status: ('A' for Active; 'I' for Inactive)
REMARK    1  A    between atoms: C2_2  and  O1_3 
REMARK    2  A    between atoms: C2_2  and  C13_16 
REMARK    3  A    between atoms: O1_3  and  C3_4 
REMARK    4  A    between atoms: C8_10  and  C9_11 
REMARK    5  A    between atoms: C14_18  and  C15_19 
ROOT
HETATM    1  C3  UNL     1      22.955   0.757  52.677  1.00  0.00     0.082 A 
HETATM    2  C4  UNL     1      22.356  -0.205  53.420  1.00  0.00     0.040 A 
HETATM    3  C5  UNL     1      23.262  -0.888  54.197  1.00  0.00     0.035 A 
HETATM    4  C6  UNL     1      24.513  -0.357  53.959  1.00  0.00     0.069 A 
HETATM    5  N1  UNL     1      25.704  -0.730  54.514  1.00  0.00    -0.259 NA
HETATM    6  C7  UNL     1      26.759   0.085  54.814  1.00  0.00     0.131 C 
HETATM    7  C8  UNL     1      27.220   1.064  53.953  1.00  0.00     0.019 C 
HETATM    8  C10 UNL     1      26.556   1.789  52.984  1.00  0.00     0.017 C 
HETATM    9  C11 UNL     1      25.300   1.540  52.420  1.00  0.00     0.017 C 
HETATM   10  C12 UNL     1      24.312   0.716  52.968  1.00  0.00     0.026 A 
ENDROOT
BRANCH   1  11
HETATM   11  O1  UNL     1      22.484   1.686  51.761  1.00  0.00    -0.340 OA
BRANCH  11  12
HETATM   12  C2  UNL     1      22.281   1.301  50.432  1.00  0.00     0.169 C 
HETATM   13  C1  UNL     1      20.826   0.983  50.158  1.00  0.00     0.046 C 
BRANCH  12  14
HETATM   14  C13 UNL     1      22.784   2.338  49.466  1.00  0.00     0.039 C 
HETATM   15 CL1  UNL     1      22.538   2.129  47.728  1.00  0.00    -0.086 Cl
HETATM   16  C14 UNL     1      23.431   3.461  49.786  1.00  0.00     0.026 C 
BRANCH  16  17
HETATM   17  C15 UNL     1      24.002   4.599  48.986  1.00  0.00     0.251 C 
HETATM   18  F1  UNL     1      25.387   4.415  48.948  1.00  0.00    -0.251 F 
ENDBRANCH  16  17
ENDBRANCH  12  14
ENDBRANCH  11  12
ENDBRANCH   1  11
BRANCH   7  19
HETATM   19  C9  UNL     1      28.635   1.409  54.061  1.00  0.00     0.271 C 
HETATM   20  O2  UNL     1      29.192   2.470  54.434  1.00  0.00    -0.301 OA
ENDBRANCH   7  19
TORSDOF 5
ENDMDL
MODEL 7
REMARK VINA RESULT:      -7.0      4.092      7.063
REMARK  5 active torsions:
REMARK  status: ('A' for Active; 'I' for Inactive)
REMARK    1  A    between atoms: C2_2  and  O1_3 
REMARK    2  A    between atoms: C2_2  and  C13_16 
REMARK    3  A    between atoms: O1_3  and  C3_4 
REMARK    4  A    between atoms: C8_10  and  C9_11 
REMARK    5  A    between atoms: C14_18  and  C15_19 
ROOT
HETATM    1  C3  UNL     1      24.850  -0.254  53.534  1.00  0.00     0.082 A 
HETATM    2  C4  UNL     1      25.156  -0.896  54.687  1.00  0.00     0.040 A 
HETATM    3  C5  UNL     1      24.028  -1.244  55.392  1.00  0.00     0.035 A 
HETATM    4  C6  UNL     1      22.929  -0.814  54.677  1.00  0.00     0.069 A 
HETATM    5  N1  UNL     1      21.609  -0.947  55.003  1.00  0.00    -0.259 NA
HETATM    6  C7  UNL     1      20.567  -1.136  54.140  1.00  0.00     0.131 C 
HETATM    7  C8  UNL     1      20.427  -0.421  52.964  1.00  0.00     0.019 C 
HETATM    8  C10 UNL     1      21.379   0.161  52.152  1.00  0.00     0.017 C 
HETATM    9  C11 UNL     1      22.724   0.422  52.437  1.00  0.00     0.017 C 
HETATM   10  C12 UNL     1      23.466  -0.168  53.465  1.00  0.00     0.026 A 
ENDROOT
BRANCH   1  11
HETATM   11  O1  UNL     1      25.616   0.282  52.509  1.00  0.00    -0.340 OA
BRANCH  11  12
HETATM   12  C2  UNL     1      26.326   1.468  52.728  1.00  0.00     0.169 C 
HETATM   13  C1  UNL     1      25.623   2.362  53.728  1.00  0.00     0.046 C 
BRANCH  12  14
HETATM   14  C13 UNL     1      27.740   1.200  53.164  1.00  0.00     0.039 C 
HETATM   15 CL1  UNL     1      28.768   2.530  53.714  1.00  0.00    -0.086 Cl
HETATM   16  C14 UNL     1      28.343   0.010  53.187  1.00  0.00     0.026 C 
BRANCH  16  17
HETATM   17  C15 UNL     1      29.718  -0.455  53.580  1.00  0.00     0.251 C 
HETATM   18  F1  UNL     1      29.658  -1.844  53.707  1.00  0.00    -0.251 F 
ENDBRANCH  16  17
ENDBRANCH  12  14
ENDBRANCH  11  12
ENDBRANCH   1  11
BRANCH   7  19
HETATM   19  C9  UNL     1      19.063  -0.233  52.477  1.00  0.00     0.271 C 
HETATM   20  O2  UNL     1      18.539   0.728  51.863  1.00  0.00    -0.301 OA
ENDBRANCH   7  19
TORSDOF 5
ENDMDL
MODEL 8
REMARK VINA RESULT:      -7.0      4.453      7.373
REMARK  5 active torsions:
REMARK  status: ('A' for Active; 'I' for Inactive)
REMARK    1  A    between atoms: C2_2  and  O1_3 
REMARK    2  A    between atoms: C2_2  and  C13_16 
REMARK    3  A    between atoms: O1_3  and  C3_4 
REMARK    4  A    between atoms: C8_10  and  C9_11 
REMARK    5  A    between atoms: C14_18  and  C15_19 
ROOT
HETATM    1  C3  UNL     1      24.159  -0.255  53.717  1.00  0.00     0.082 A 
HETATM    2  C4  UNL     1      23.781  -0.952  54.816  1.00  0.00     0.040 A 
HETATM    3  C5  UNL     1      22.413  -1.037  54.922  1.00  0.00     0.035 A 
HETATM    4  C6  UNL     1      21.860  -0.369  53.848  1.00  0.00     0.069 A 
HETATM    5  N1  UNL     1      20.537  -0.201  53.553  1.00  0.00    -0.259 NA
HETATM    6  C7  UNL     1      19.976  -0.148  52.308  1.00  0.00     0.131 C 
HETATM    7  C8  UNL     1      20.523   0.581  51.268  1.00  0.00     0.019 C 
HETATM    8  C10 UNL     1      21.833   0.933  51.014  1.00  0.00     0.017 C 
HETATM    9  C11 UNL     1      22.931   0.884  51.880  1.00  0.00     0.017 C 
HETATM   10  C12 UNL     1      23.000   0.141  53.063  1.00  0.00     0.026 A 
ENDROOT
BRANCH   1  11
HETATM   11  O1  UNL     1      25.392   0.095  53.187  1.00  0.00    -0.340 OA
BRANCH  11  12
HETATM   12  C2  UNL     1      26.517  -0.676  53.496  1.00  0.00     0.169 C 
HETATM   13  C1  UNL     1      26.699  -1.816  52.517  1.00  0.00     0.046 C 
BRANCH  12  14
HETATM   14  C13 UNL     1      27.765   0.160  53.568  1.00  0.00     0.039 C 
HETATM   15 CL1  UNL     1      29.354  -0.614  53.610  1.00  0.00    -0.086 Cl
HETATM   16  C14 UNL     1      27.817   1.494  53.604  1.00  0.00     0.026 C 
BRANCH  16  17
HETATM   17  C15 UNL     1      28.939   2.492  53.675  1.00  0.00     0.251 C 
HETATM   18  F1  UNL     1      29.622   2.253  54.870  1.00  0.00    -0.251 F 
ENDBRANCH  16  17
ENDBRANCH  12  14
ENDBRANCH  11  12
ENDBRANCH   1  11
BRANCH   7  19
HETATM   19  C9  UNL     1      19.588   1.072  50.259  1.00  0.00     0.271 C 
HETATM   20  O2  UNL     1      18.410   0.727  49.998  1.00  0.00    -0.301 OA
ENDBRANCH   7  19
TORSDOF 5
ENDMDL
MODEL 9
REMARK VINA RESULT:      -7.0      3.900      5.248
REMARK  5 active torsions:
REMARK  status: ('A' for Active; 'I' for Inactive)
REMARK    1  A    between atoms: C2_2  and  O1_3 
REMARK    2  A    between atoms: C2_2  and  C13_16 
REMARK    3  A    between atoms: O1_3  and  C3_4 
REMARK    4  A    between atoms: C8_10  and  C9_11 
REMARK    5  A    between atoms: C14_18  and  C15_19 
ROOT
HETATM    1  C3  UNL     1      22.876   2.400  52.527  1.00  0.00     0.082 A 
HETATM    2  C4  UNL     1      21.921   1.452  52.370  1.00  0.00     0.040 A 
HETATM    3  C5  UNL     1      22.403   0.192  52.639  1.00  0.00     0.035 A 
HETATM    4  C6  UNL     1      23.733   0.311  52.989  1.00  0.00     0.069 A 
HETATM    5  N1  UNL     1      24.603  -0.684  53.334  1.00  0.00    -0.259 NA
HETATM    6  C7  UNL     1      25.621  -0.603  54.241  1.00  0.00     0.131 C 
HETATM    7  C8  UNL     1      26.490   0.473  54.301  1.00  0.00     0.019 C 
HETATM    8  C10 UNL     1      26.302   1.795  53.951  1.00  0.00     0.017 C 
HETATM    9  C11 UNL     1      25.274   2.355  53.186  1.00  0.00     0.017 C 
HETATM   10  C12 UNL     1      24.041   1.751  52.916  1.00  0.00     0.026 A 
ENDROOT
BRANCH   1  11
HETATM   11  O1  UNL     1      22.885   3.780  52.379  1.00  0.00    -0.340 OA
BRANCH  11  12
HETATM   12  C2  UNL     1      22.668   4.336  51.114  1.00  0.00     0.169 C 
HETATM   13  C1  UNL     1      22.501   5.839  51.187  1.00  0.00     0.046 C 
BRANCH  12  14
HETATM   14  C13 UNL     1      23.762   3.974  50.148  1.00  0.00     0.039 C 
HETATM   15 CL1  UNL     1      23.417   2.935  48.760  1.00  0.00    -0.086 Cl
HETATM   16  C14 UNL     1      25.035   4.369  50.220  1.00  0.00     0.026 C 
BRANCH  16  17
HETATM   17  C15 UNL     1      26.253   4.121  49.373  1.00  0.00     0.251 C 
HETATM   18  F1  UNL     1      26.663   2.810  49.623  1.00  0.00    -0.251 F 
ENDBRANCH  16  17
ENDBRANCH  12  14
ENDBRANCH  11  12
ENDBRANCH   1  11
BRANCH   7  19
HETATM   19  C9  UNL     1      27.830   0.197  54.812  1.00  0.00     0.271 C 
HETATM   20  O2  UNL     1      28.763   0.976  55.121  1.00  0.00    -0.301 OA
ENDBRANCH   7  19
TORSDOF 5
ENDMDL
