MODEL 1
REMARK VINA RESULT:      -8.4      0.000      0.000
REMARK  5 active torsions:
REMARK  status: ('A' for Active; 'I' for Inactive)
REMARK    1  A    between atoms: O1_2  and  C2_3 
REMARK    2  A    between atoms: C5_7  and  C6_8 
REMARK    3  A    between atoms: C7_9  and  C8_10 
REMARK    4  A    between atoms: C8_10  and  N2_11 
REMARK    5  A    between atoms: C21_26  and  O3_27 
ROOT
HETATM    1  C2  UNL     1      26.740   0.151  53.781  1.00  0.00     0.069 C 
HETATM    2  C3  UNL     1      27.296   1.220  53.229  1.00  0.00     0.073 C 
HETATM    3  C4  UNL     1      27.601   2.423  52.476  1.00  0.00     0.132 C 
HETATM    4  N1  UNL     1      26.559   2.963  51.628  1.00  0.00    -0.389 N 
HETATM    5  C5  UNL     1      25.508   3.497  50.763  1.00  0.00     0.039 C 
HETATM    6  C13 UNL     1      24.375   2.878  50.759  1.00  0.00     0.029 C 
HETATM    7  C14 UNL     1      23.725   1.726  51.337  1.00  0.00    -0.006 C 
HETATM    8  C15 UNL     1      24.064   0.773  52.192  1.00  0.00     0.128 C 
HETATM    9  N3  UNL     1      24.325  -0.268  53.079  1.00  0.00    -0.270 NA
HETATM   10  C16 UNL     1      25.412  -0.517  53.722  1.00  0.00     0.148 C 
HETATM   11  C17 UNL     1      22.400   1.211  50.848  1.00  0.00     0.013 C 
HETATM   12  C18 UNL     1      21.813   1.554  49.659  1.00  0.00     0.001 C 
HETATM   13  C19 UNL     1      22.346   2.491  48.612  1.00  0.00     0.000 C 
HETATM   14  C20 UNL     1      23.120   3.595  48.773  1.00  0.00     0.028 C 
HETATM   15  C21 UNL     1      23.499   3.929  50.125  1.00  0.00     0.164 C 
HETATM   16 BR1  UNL     1      24.039   5.719  50.344  1.00  0.00    -0.044 Br
HETATM   17  H7  UNL     1      26.266   3.814  52.214  1.00  0.00     0.159 HD
ENDROOT
BRANCH   5  18
HETATM   18  C6  UNL     1      26.167   4.406  49.844  1.00  0.00     0.027 C 
HETATM   19  C7  UNL     1      27.260   4.651  49.055  1.00  0.00     0.005 C 
BRANCH  19  20
HETATM   20  C8  UNL     1      27.534   5.821  48.208  1.00  0.00     0.300 C 
BRANCH  20  21
HETATM   21  N2  UNL     1      27.074   7.059  48.642  1.00  0.00     0.096 NA
HETATM   22  C9  UNL     1      27.934   8.124  48.990  1.00  0.00     0.299 C 
HETATM   23  C10 UNL     1      27.180   8.991  50.031  1.00  0.00     0.198 C 
HETATM   24  O2  UNL     1      25.859   9.080  49.648  1.00  0.00    -0.388 OA
HETATM   25  C11 UNL     1      25.625   8.933  48.298  1.00  0.00     0.198 C 
HETATM   26  C12 UNL     1      26.058   7.566  47.770  1.00  0.00     0.299 C 
ENDBRANCH  20  21
ENDBRANCH  19  20
ENDBRANCH   5  18
BRANCH  15  27
HETATM   27  O3  UNL     1      22.270   3.827  50.958  1.00  0.00    -0.371 OA
HETATM   28  H26 UNL     1      21.686   4.541  50.618  1.00  0.00     0.212 HD
ENDBRANCH  15  27
BRANCH   1  29
HETATM   29  O1  UNL     1      27.612  -0.487  54.605  1.00  0.00    -0.358 OA
HETATM   30  C1  UNL     1      28.994  -0.255  54.619  1.00  0.00     0.209 C 
ENDBRANCH   1  29
TORSDOF 5
ENDMDL
MODEL 2
REMARK VINA RESULT:      -8.0      3.114      7.532
REMARK  5 active torsions:
REMARK  status: ('A' for Active; 'I' for Inactive)
REMARK    1  A    between atoms: O1_2  and  C2_3 
REMARK    2  A    between atoms: C5_7  and  C6_8 
REMARK    3  A    between atoms: C7_9  and  C8_10 
REMARK    4  A    between atoms: C8_10  and  N2_11 
REMARK    5  A    between atoms: C21_26  and  O3_27 
ROOT
HETATM    1  C2  UNL     1      19.148   1.545  49.790  1.00  0.00     0.069 C 
HETATM    2  C3  UNL     1      19.679   0.966  50.858  1.00  0.00     0.073 C 
HETATM    3  C4  UNL     1      20.530   0.525  51.948  1.00  0.00     0.132 C 
HETATM    4  N1  UNL     1      21.865   1.080  52.021  1.00  0.00    -0.389 N 
HETATM    5  C5  UNL     1      23.217   1.633  52.083  1.00  0.00     0.039 C 
HETATM    6  C13 UNL     1      23.542   2.499  51.183  1.00  0.00     0.029 C 
HETATM    7  C14 UNL     1      23.007   3.159  50.016  1.00  0.00    -0.006 C 
HETATM    8  C15 UNL     1      21.857   3.141  49.358  1.00  0.00     0.128 C 
HETATM    9  N3  UNL     1      20.689   3.192  48.602  1.00  0.00    -0.270 NA
HETATM   10  C16 UNL     1      19.591   2.543  48.780  1.00  0.00     0.148 C 
HETATM   11  C17 UNL     1      23.859   3.965  49.076  1.00  0.00     0.013 C 
HETATM   12  C18 UNL     1      25.227   3.931  49.030  1.00  0.00     0.001 C 
HETATM   13  C19 UNL     1      26.152   3.106  49.880  1.00  0.00     0.000 C 
HETATM   14  C20 UNL     1      25.990   2.701  51.165  1.00  0.00     0.028 C 
HETATM   15  C21 UNL     1      24.769   3.101  51.822  1.00  0.00     0.164 C 
HETATM   16 BR1  UNL     1      24.857   3.032  53.702  1.00  0.00    -0.044 Br
HETATM   17  H7  UNL     1      21.739   1.755  52.846  1.00  0.00     0.159 HD
ENDROOT
BRANCH   5  18
HETATM   18  C6  UNL     1      23.969   0.759  52.964  1.00  0.00     0.027 C 
HETATM   19  C7  UNL     1      24.344  -0.524  53.265  1.00  0.00     0.005 C 
BRANCH  19  20
HETATM   20  C8  UNL     1      25.208  -0.992  54.358  1.00  0.00     0.300 C 
BRANCH  20  21
HETATM   21  N2  UNL     1      26.582  -0.851  54.206  1.00  0.00     0.096 NA
HETATM   22  C9  UNL     1      27.224  -0.845  52.948  1.00  0.00     0.299 C 
HETATM   23  C10 UNL     1      28.665  -1.370  53.174  1.00  0.00     0.198 C 
HETATM   24  O2  UNL     1      29.142  -0.839  54.354  1.00  0.00    -0.388 OA
HETATM   25  C11 UNL     1      28.579   0.362  54.730  1.00  0.00     0.198 C 
HETATM   26  C12 UNL     1      27.073   0.258  54.968  1.00  0.00     0.299 C 
ENDBRANCH  20  21
ENDBRANCH  19  20
ENDBRANCH   5  18
BRANCH  15  27
HETATM   27  O3  UNL     1      24.572   4.546  51.531  1.00  0.00    -0.371 OA
HETATM   28  H26 UNL     1      25.081   4.699  50.704  1.00  0.00     0.212 HD
ENDBRANCH  15  27
BRANCH   1  29
HETATM   29  O1  UNL     1      17.880   1.108  49.573  1.00  0.00    -0.358 OA
HETATM   30  C1  UNL     1      16.854   1.167  50.526  1.00  0.00     0.209 C 
ENDBRANCH   1  29
TORSDOF 5
ENDMDL
MODEL 3
REMARK VINA RESULT:      -7.8      2.959      5.356
REMARK  5 active torsions:
REMARK  status: ('A' for Active; 'I' for Inactive)
REMARK    1  A    between atoms: O1_2  and  C2_3 
REMARK    2  A    between atoms: C5_7  and  C6_8 
REMARK    3  A    between atoms: C7_9  and  C8_10 
REMARK    4  A    between atoms: C8_10  and  N2_11 
REMARK    5  A    between atoms: C21_26  and  O3_27 
ROOT
HETATM    1  C2  UNL     1      19.828  -0.586  53.470  1.00  0.00     0.069 C 
HETATM    2  C3  UNL     1      20.043   0.561  52.842  1.00  0.00     0.073 C 
HETATM    3  C4  UNL     1      20.604   1.749  52.224  1.00  0.00     0.132 C 
HETATM    4  N1  UNL     1      22.040   1.924  52.295  1.00  0.00    -0.389 N 
HETATM    5  C5  UNL     1      23.488   2.104  52.381  1.00  0.00     0.039 C 
HETATM    6  C13 UNL     1      24.165   1.176  52.970  1.00  0.00     0.029 C 
HETATM    7  C14 UNL     1      23.981  -0.080  53.659  1.00  0.00    -0.006 C 
HETATM    8  C15 UNL     1      22.950  -0.850  53.973  1.00  0.00     0.128 C 
HETATM    9  N3  UNL     1      21.934  -1.724  54.347  1.00  0.00    -0.270 NA
HETATM   10  C16 UNL     1      20.667  -1.614  54.141  1.00  0.00     0.148 C 
HETATM   11  C17 UNL     1      25.081  -0.748  54.436  1.00  0.00     0.013 C 
HETATM   12  C18 UNL     1      26.245  -0.143  54.830  1.00  0.00     0.001 C 
HETATM   13  C19 UNL     1      26.668   1.278  54.582  1.00  0.00     0.000 C 
HETATM   14  C20 UNL     1      26.380   2.078  53.524  1.00  0.00     0.028 C 
HETATM   15  C21 UNL     1      25.553   1.509  52.486  1.00  0.00     0.164 C 
HETATM   16 BR1  UNL     1      25.677   2.407  50.836  1.00  0.00    -0.044 Br
HETATM   17  H7  UNL     1      22.305   1.688  51.282  1.00  0.00     0.159 HD
ENDROOT
BRANCH   5  18
HETATM   18  C6  UNL     1      23.739   3.501  52.080  1.00  0.00     0.027 C 
HETATM   19  C7  UNL     1      23.211   4.755  51.917  1.00  0.00     0.005 C 
BRANCH  19  20
HETATM   20  C8  UNL     1      23.907   6.005  51.583  1.00  0.00     0.300 C 
BRANCH  20  21
HETATM   21  N2  UNL     1      24.163   6.267  50.241  1.00  0.00     0.096 NA
HETATM   22  C9  UNL     1      25.354   5.876  49.591  1.00  0.00     0.299 C 
HETATM   23  C10 UNL     1      25.591   6.883  48.437  1.00  0.00     0.198 C 
HETATM   24  O2  UNL     1      24.376   7.164  47.849  1.00  0.00    -0.388 OA
HETATM   25  C11 UNL     1      23.421   6.176  47.967  1.00  0.00     0.198 C 
HETATM   26  C12 UNL     1      23.054   5.882  49.421  1.00  0.00     0.299 C 
ENDBRANCH  20  21
ENDBRANCH  19  20
ENDBRANCH   5  18
BRANCH  15  27
HETATM   27  O3  UNL     1      26.095   0.155  52.193  1.00  0.00    -0.371 OA
HETATM   28  H26 UNL     1      25.430  -0.461  52.572  1.00  0.00     0.212 HD
ENDBRANCH  15  27
BRANCH   1  29
HETATM   29  O1  UNL     1      18.503  -0.887  53.505  1.00  0.00    -0.358 OA
HETATM   30  C1  UNL     1      17.992  -2.192  53.458  1.00  0.00     0.209 C 
ENDBRANCH   1  29
TORSDOF 5
ENDMDL
MODEL 4
REMARK VINA RESULT:      -7.8      2.288      7.512
REMARK  5 active torsions:
REMARK  status: ('A' for Active; 'I' for Inactive)
REMARK    1  A    between atoms: O1_2  and  C2_3 
REMARK    2  A    between atoms: C5_7  and  C6_8 
REMARK    3  A    between atoms: C7_9  and  C8_10 
REMARK    4  A    between atoms: C8_10  and  N2_11 
REMARK    5  A    between atoms: C21_26  and  O3_27 
ROOT
HETATM    1  C2  UNL     1      29.290   7.823  47.573  1.00  0.00     0.069 C 
HETATM    2  C3  UNL     1      29.283   6.526  47.845  1.00  0.00     0.073 C 
HETATM    3  C4  UNL     1      28.959   5.171  48.251  1.00  0.00     0.132 C 
HETATM    4  N1  UNL     1      27.653   4.940  48.832  1.00  0.00    -0.389 N 
HETATM    5  C5  UNL     1      26.338   4.716  49.431  1.00  0.00     0.039 C 
HETATM    6  C13 UNL     1      25.549   5.733  49.521  1.00  0.00     0.029 C 
HETATM    7  C14 UNL     1      25.507   7.148  49.240  1.00  0.00    -0.006 C 
HETATM    8  C15 UNL     1      26.337   8.038  48.714  1.00  0.00     0.128 C 
HETATM    9  N3  UNL     1      27.135   9.043  48.177  1.00  0.00    -0.270 NA
HETATM   10  C16 UNL     1      28.333   8.953  47.714  1.00  0.00     0.148 C 
HETATM   11  C17 UNL     1      24.415   8.046  49.751  1.00  0.00     0.013 C 
HETATM   12  C18 UNL     1      23.533   7.723  50.748  1.00  0.00     0.001 C 
HETATM   13  C19 UNL     1      23.464   6.441  51.529  1.00  0.00     0.000 C 
HETATM   14  C20 UNL     1      23.772   5.182  51.125  1.00  0.00     0.028 C 
HETATM   15  C21 UNL     1      24.236   5.032  49.766  1.00  0.00     0.164 C 
HETATM   16 BR1  UNL     1      24.081   3.279  49.098  1.00  0.00    -0.044 Br
HETATM   17  H7  UNL     1      27.170   4.445  48.011  1.00  0.00     0.159 HD
ENDROOT
BRANCH   5  18
HETATM   18  C6  UNL     1      26.418   3.434  50.106  1.00  0.00     0.027 C 
HETATM   19  C7  UNL     1      26.756   2.755  51.247  1.00  0.00     0.005 C 
BRANCH  19  20
HETATM   20  C8  UNL     1      26.657   1.313  51.517  1.00  0.00     0.300 C 
BRANCH  20  21
HETATM   21  N2  UNL     1      27.082   0.855  52.759  1.00  0.00     0.096 NA
HETATM   22  C9  UNL     1      28.196   1.392  53.440  1.00  0.00     0.299 C 
HETATM   23  C10 UNL     1      28.766   0.262  54.336  1.00  0.00     0.198 C 
HETATM   24  O2  UNL     1      27.709  -0.431  54.887  1.00  0.00    -0.388 OA
HETATM   25  C11 UNL     1      26.539   0.285  55.020  1.00  0.00     0.198 C 
HETATM   26  C12 UNL     1      25.988   0.770  53.680  1.00  0.00     0.299 C 
ENDBRANCH  20  21
ENDBRANCH  19  20
ENDBRANCH   5  18
BRANCH  15  27
HETATM   27  O3  UNL     1      23.317   5.821  48.904  1.00  0.00    -0.371 OA
HETATM   28  H26 UNL     1      23.744   6.704  48.836  1.00  0.00     0.212 HD
ENDBRANCH  15  27
BRANCH   1  29
HETATM   29  O1  UNL     1      30.475   8.206  47.029  1.00  0.00    -0.358 OA
HETATM   30  C1  UNL     1      31.650   8.406  47.768  1.00  0.00     0.209 C 
ENDBRANCH   1  29
TORSDOF 5
ENDMDL
MODEL 5
REMARK VINA RESULT:      -7.7      4.048      5.396
REMARK  5 active torsions:
REMARK  status: ('A' for Active; 'I' for Inactive)
REMARK    1  A    between atoms: O1_2  and  C2_3 
REMARK    2  A    between atoms: C5_7  and  C6_8 
REMARK    3  A    between atoms: C7_9  and  C8_10 
REMARK    4  A    between atoms: C8_10  and  N2_11 
REMARK    5  A    between atoms: C21_26  and  O3_27 
ROOT
HETATM    1  C2  UNL     1      27.182   0.373  53.171  1.00  0.00     0.069 C 
HETATM    2  C3  UNL     1      26.563   1.068  52.228  1.00  0.00     0.073 C 
HETATM    3  C4  UNL     1      25.604   1.714  51.350  1.00  0.00     0.132 C 
HETATM    4  N1  UNL     1      24.198   1.486  51.611  1.00  0.00    -0.389 N 
HETATM    5  C5  UNL     1      22.780   1.242  51.871  1.00  0.00     0.039 C 
HETATM    6  C13 UNL     1      22.485   0.498  52.884  1.00  0.00     0.029 C 
HETATM    7  C14 UNL     1      23.114  -0.271  53.932  1.00  0.00    -0.006 C 
HETATM    8  C15 UNL     1      24.359  -0.523  54.309  1.00  0.00     0.128 C 
HETATM    9  N3  UNL     1      25.627  -0.847  54.781  1.00  0.00    -0.270 NA
HETATM   10  C16 UNL     1      26.771  -0.481  54.317  1.00  0.00     0.148 C 
HETATM   11  C17 UNL     1      22.353  -1.229  54.805  1.00  0.00     0.013 C 
HETATM   12  C18 UNL     1      21.096  -1.706  54.539  1.00  0.00     0.001 C 
HETATM   13  C19 UNL     1      20.228  -1.389  53.354  1.00  0.00     0.000 C 
HETATM   14  C20 UNL     1      20.155  -0.239  52.637  1.00  0.00     0.028 C 
HETATM   15  C21 UNL     1      21.025   0.838  53.048  1.00  0.00     0.164 C 
HETATM   16 BR1  UNL     1      20.481   2.533  52.435  1.00  0.00    -0.044 Br
HETATM   17  H7  UNL     1      23.933   2.436  52.037  1.00  0.00     0.159 HD
ENDROOT
BRANCH   5  18
HETATM   18  C6  UNL     1      22.077   1.631  50.663  1.00  0.00     0.027 C 
HETATM   19  C7  UNL     1      22.145   1.844  49.311  1.00  0.00     0.005 C 
BRANCH  19  20
HETATM   20  C8  UNL     1      21.077   2.275  48.398  1.00  0.00     0.300 C 
BRANCH  20  21
HETATM   21  N2  UNL     1      20.233   3.295  48.822  1.00  0.00     0.096 NA
HETATM   22  C9  UNL     1      20.540   4.665  48.670  1.00  0.00     0.299 C 
HETATM   23  C10 UNL     1      19.806   5.421  49.807  1.00  0.00     0.198 C 
HETATM   24  O2  UNL     1      18.556   4.861  49.966  1.00  0.00    -0.388 OA
HETATM   25  C11 UNL     1      18.037   4.249  48.845  1.00  0.00     0.198 C 
HETATM   26  C12 UNL     1      18.893   3.079  48.362  1.00  0.00     0.299 C 
ENDBRANCH  20  21
ENDBRANCH  19  20
ENDBRANCH   5  18
BRANCH  15  27
HETATM   27  O3  UNL     1      20.914   0.945  54.528  1.00  0.00    -0.371 OA
HETATM   28  H26 UNL     1      20.650   1.879  54.685  1.00  0.00     0.212 HD
ENDBRANCH  15  27
BRANCH   1  29
HETATM   29  O1  UNL     1      28.532   0.472  53.049  1.00  0.00    -0.358 OA
HETATM   30  C1  UNL     1      29.446  -0.293  53.786  1.00  0.00     0.209 C 
ENDBRANCH   1  29
TORSDOF 5
ENDMDL
MODEL 6
REMARK VINA RESULT:      -7.7      3.005      6.635
REMARK  5 active torsions:
REMARK  status: ('A' for Active; 'I' for Inactive)
REMARK    1  A    between atoms: O1_2  and  C2_3 
REMARK    2  A    between atoms: C5_7  and  C6_8 
REMARK    3  A    between atoms: C7_9  and  C8_10 
REMARK    4  A    between atoms: C8_10  and  N2_11 
REMARK    5  A    between atoms: C21_26  and  O3_27 
ROOT
HETATM    1  C2  UNL     1      27.467   0.190  53.590  1.00  0.00     0.069 C 
HETATM    2  C3  UNL     1      26.271  -0.380  53.642  1.00  0.00     0.073 C 
HETATM    3  C4  UNL     1      24.875  -0.748  53.493  1.00  0.00     0.132 C 
HETATM    4  N1  UNL     1      24.041   0.111  52.677  1.00  0.00    -0.389 N 
HETATM    5  C5  UNL     1      23.200   0.988  51.864  1.00  0.00     0.039 C 
HETATM    6  C13 UNL     1      23.769   2.005  51.311  1.00  0.00     0.029 C 
HETATM    7  C14 UNL     1      25.053   2.660  51.221  1.00  0.00    -0.006 C 
HETATM    8  C15 UNL     1      26.267   2.443  51.705  1.00  0.00     0.128 C 
HETATM    9  N3  UNL     1      27.573   2.301  52.164  1.00  0.00    -0.270 NA
HETATM   10  C16 UNL     1      28.057   1.385  52.929  1.00  0.00     0.148 C 
HETATM   11  C17 UNL     1      25.226   4.029  50.624  1.00  0.00     0.013 C 
HETATM   12  C18 UNL     1      24.210   4.915  50.382  1.00  0.00     0.001 C 
HETATM   13  C19 UNL     1      22.744   4.723  50.651  1.00  0.00     0.000 C 
HETATM   14  C20 UNL     1      22.016   3.577  50.615  1.00  0.00     0.028 C 
HETATM   15  C21 UNL     1      22.728   2.367  50.282  1.00  0.00     0.164 C 
HETATM   16 BR1  UNL     1      21.617   0.971  49.682  1.00  0.00    -0.044 Br
HETATM   17  H7  UNL     1      23.943  -0.504  51.803  1.00  0.00     0.159 HD
ENDROOT
BRANCH   5  18
HETATM   18  C6  UNL     1      21.829   0.657  52.203  1.00  0.00     0.027 C 
HETATM   19  C7  UNL     1      20.856   0.635  53.167  1.00  0.00     0.005 C 
BRANCH  19  20
HETATM   20  C8  UNL     1      19.466   0.169  53.055  1.00  0.00     0.300 C 
BRANCH  20  21
HETATM   21  N2  UNL     1      18.750   0.530  51.920  1.00  0.00     0.096 NA
HETATM   22  C9  UNL     1      17.510  -0.050  51.572  1.00  0.00     0.299 C 
HETATM   23  C10 UNL     1      17.387   0.040  50.029  1.00  0.00     0.198 C 
HETATM   24  O2  UNL     1      17.875   1.264  49.624  1.00  0.00    -0.388 OA
HETATM   25  C11 UNL     1      17.808   2.267  50.567  1.00  0.00     0.198 C 
HETATM   26  C12 UNL     1      18.625   1.954  51.820  1.00  0.00     0.299 C 
ENDBRANCH  20  21
ENDBRANCH  19  20
ENDBRANCH   5  18
BRANCH  15  27
HETATM   27  O3  UNL     1      23.578   2.675  49.100  1.00  0.00    -0.371 OA
HETATM   28  H26 UNL     1      23.807   3.624  49.206  1.00  0.00     0.212 HD
ENDBRANCH  15  27
BRANCH   1  29
HETATM   29  O1  UNL     1      28.373  -0.498  54.333  1.00  0.00    -0.358 OA
HETATM   30  C1  UNL     1      29.645  -0.868  53.876  1.00  0.00     0.209 C 
ENDBRANCH   1  29
TORSDOF 5
ENDMDL
MODEL 7
REMARK VINA RESULT:      -7.6      2.448      3.128
REMARK  5 active torsions:
REMARK  status: ('A' for Active; 'I' for Inactive)
REMARK    1  A    between atoms: O1_2  and  C2_3 
REMARK    2  A    between atoms: C5_7  and  C6_8 
REMARK    3  A    between atoms: C7_9  and  C8_10 
REMARK    4  A    between atoms: C8_10  and  N2_11 
REMARK    5  A    between atoms: C21_26  and  O3_27 
ROOT
HETATM    1  C2  UNL     1      24.931   0.724  52.515  1.00  0.00     0.069 C 
HETATM    2  C3  UNL     1      25.950   1.490  52.151  1.00  0.00     0.073 C 
HETATM    3  C4  UNL     1      26.820   2.514  51.603  1.00  0.00     0.132 C 
HETATM    4  N1  UNL     1      26.206   3.566  50.821  1.00  0.00    -0.389 N 
HETATM    5  C5  UNL     1      25.582   4.619  50.021  1.00  0.00     0.039 C 
HETATM    6  C13 UNL     1      24.299   4.580  49.890  1.00  0.00     0.029 C 
HETATM    7  C14 UNL     1      23.157   3.779  50.266  1.00  0.00    -0.006 C 
HETATM    8  C15 UNL     1      22.962   2.675  50.971  1.00  0.00     0.128 C 
HETATM    9  N3  UNL     1      22.655   1.525  51.692  1.00  0.00    -0.270 NA
HETATM   10  C16 UNL     1      23.457   0.735  52.318  1.00  0.00     0.148 C 
HETATM   11  C17 UNL     1      21.793   3.979  49.667  1.00  0.00     0.013 C 
HETATM   12  C18 UNL     1      21.530   4.696  48.530  1.00  0.00     0.001 C 
HETATM   13  C19 UNL     1      22.516   5.419  47.656  1.00  0.00     0.000 C 
HETATM   14  C20 UNL     1      23.677   6.028  48.007  1.00  0.00     0.028 C 
HETATM   15  C21 UNL     1      24.036   5.983  49.404  1.00  0.00     0.164 C 
HETATM   16 BR1  UNL     1      25.285   7.297  49.912  1.00  0.00    -0.044 Br
HETATM   17  H7  UNL     1      26.263   4.376  51.524  1.00  0.00     0.159 HD
ENDROOT
BRANCH   5  18
HETATM   18  C6  UNL     1      26.656   5.244  49.272  1.00  0.00     0.027 C 
HETATM   19  C7  UNL     1      27.832   5.075  48.589  1.00  0.00     0.005 C 
BRANCH  19  20
HETATM   20  C8  UNL     1      28.658   6.092  47.923  1.00  0.00     0.300 C 
BRANCH  20  21
HETATM   21  N2  UNL     1      29.919   6.350  48.449  1.00  0.00     0.096 NA
HETATM   22  C9  UNL     1      31.102   5.774  47.937  1.00  0.00     0.299 C 
HETATM   23  C10 UNL     1      32.113   5.701  49.110  1.00  0.00     0.198 C 
HETATM   24  O2  UNL     1      32.005   6.859  49.850  1.00  0.00    -0.388 OA
HETATM   25  C11 UNL     1      31.543   7.959  49.160  1.00  0.00     0.198 C 
HETATM   26  C12 UNL     1      30.134   7.758  48.605  1.00  0.00     0.299 C 
ENDBRANCH  20  21
ENDBRANCH  19  20
ENDBRANCH   5  18
BRANCH  15  27
HETATM   27  O3  UNL     1      22.816   6.338  50.178  1.00  0.00    -0.371 OA
HETATM   28  H26 UNL     1      23.139   6.957  50.870  1.00  0.00     0.212 HD
ENDBRANCH  15  27
BRANCH   1  29
HETATM   29  O1  UNL     1      25.353  -0.337  53.254  1.00  0.00    -0.358 OA
HETATM   30  C1  UNL     1      26.078  -0.224  54.448  1.00  0.00     0.209 C 
ENDBRANCH   1  29
TORSDOF 5
ENDMDL
MODEL 8
REMARK VINA RESULT:      -7.4      3.843      6.778
REMARK  5 active torsions:
REMARK  status: ('A' for Active; 'I' for Inactive)
REMARK    1  A    between atoms: O1_2  and  C2_3 
REMARK    2  A    between atoms: C5_7  and  C6_8 
REMARK    3  A    between atoms: C7_9  and  C8_10 
REMARK    4  A    between atoms: C8_10  and  N2_11 
REMARK    5  A    between atoms: C21_26  and  O3_27 
ROOT
HETATM    1  C2  UNL     1      23.949   3.488  49.642  1.00  0.00     0.069 C 
HETATM    2  C3  UNL     1      25.271   3.470  49.732  1.00  0.00     0.073 C 
HETATM    3  C4  UNL     1      26.694   3.753  49.676  1.00  0.00     0.132 C 
HETATM    4  N1  UNL     1      27.106   4.990  49.046  1.00  0.00    -0.389 N 
HETATM    5  C5  UNL     1      27.517   6.233  48.397  1.00  0.00     0.039 C 
HETATM    6  C13 UNL     1      26.583   7.005  47.952  1.00  0.00     0.029 C 
HETATM    7  C14 UNL     1      25.145   7.071  47.834  1.00  0.00    -0.006 C 
HETATM    8  C15 UNL     1      24.126   6.300  48.182  1.00  0.00     0.128 C 
HETATM    9  N3  UNL     1      22.993   5.561  48.508  1.00  0.00    -0.270 NA
HETATM   10  C16 UNL     1      22.924   4.420  49.101  1.00  0.00     0.148 C 
HETATM   11  C17 UNL     1      24.447   8.099  46.987  1.00  0.00     0.013 C 
HETATM   12  C18 UNL     1      25.050   8.869  46.029  1.00  0.00     0.001 C 
HETATM   13  C19 UNL     1      26.496   8.858  45.622  1.00  0.00     0.000 C 
HETATM   14  C20 UNL     1      27.592   8.600  46.381  1.00  0.00     0.028 C 
HETATM   15  C21 UNL     1      27.357   8.285  47.770  1.00  0.00     0.164 C 
HETATM   16 BR1  UNL     1      28.869   8.518  48.869  1.00  0.00    -0.044 Br
HETATM   17  H7  UNL     1      27.374   5.560  49.916  1.00  0.00     0.159 HD
ENDROOT
BRANCH   5  18
HETATM   18  C6  UNL     1      28.931   6.086  48.106  1.00  0.00     0.027 C 
HETATM   19  C7  UNL     1      29.994   5.233  47.971  1.00  0.00     0.005 C 
BRANCH  19  20
HETATM   20  C8  UNL     1      31.387   5.553  47.628  1.00  0.00     0.300 C 
BRANCH  20  21
HETATM   21  N2  UNL     1      32.297   4.504  47.564  1.00  0.00     0.096 NA
HETATM   22  C9  UNL     1      32.344   3.586  46.492  1.00  0.00     0.299 C 
HETATM   23  C10 UNL     1      32.913   2.259  47.059  1.00  0.00     0.198 C 
HETATM   24  O2  UNL     1      33.929   2.562  47.939  1.00  0.00    -0.388 OA
HETATM   25  C11 UNL     1      34.569   3.762  47.711  1.00  0.00     0.198 C 
HETATM   26  C12 UNL     1      33.630   4.962  47.824  1.00  0.00     0.299 C 
ENDBRANCH  20  21
ENDBRANCH  19  20
ENDBRANCH   5  18
BRANCH  15  27
HETATM   27  O3  UNL     1      26.389   9.290  48.285  1.00  0.00    -0.371 OA
HETATM   28  H26 UNL     1      25.725   8.758  48.778  1.00  0.00     0.212 HD
ENDBRANCH  15  27
BRANCH   1  29
HETATM   29  O1  UNL     1      23.403   2.366  50.182  1.00  0.00    -0.358 OA
HETATM   30  C1  UNL     1      23.824   1.791  51.389  1.00  0.00     0.209 C 
ENDBRANCH   1  29
TORSDOF 5
ENDMDL
MODEL 9
REMARK VINA RESULT:      -7.2      1.890      2.308
REMARK  5 active torsions:
REMARK  status: ('A' for Active; 'I' for Inactive)
REMARK    1  A    between atoms: O1_2  and  C2_3 
REMARK    2  A    between atoms: C5_7  and  C6_8 
REMARK    3  A    between atoms: C7_9  and  C8_10 
REMARK    4  A    between atoms: C8_10  and  N2_11 
REMARK    5  A    between atoms: C21_26  and  O3_27 
ROOT
HETATM    1  C2  UNL     1      24.962   0.797  52.424  1.00  0.00     0.069 C 
HETATM    2  C3  UNL     1      25.884   1.603  51.916  1.00  0.00     0.073 C 
HETATM    3  C4  UNL     1      26.625   2.689  51.302  1.00  0.00     0.132 C 
HETATM    4  N1  UNL     1      25.872   3.836  50.839  1.00  0.00    -0.389 N 
HETATM    5  C5  UNL     1      25.105   4.985  50.361  1.00  0.00     0.039 C 
HETATM    6  C13 UNL     1      23.829   4.965  50.552  1.00  0.00     0.029 C 
HETATM    7  C14 UNL     1      22.790   4.123  51.097  1.00  0.00    -0.006 C 
HETATM    8  C15 UNL     1      22.739   2.936  51.683  1.00  0.00     0.128 C 
HETATM    9  N3  UNL     1      22.582   1.702  52.306  1.00  0.00    -0.270 NA
HETATM   10  C16 UNL     1      23.487   0.835  52.606  1.00  0.00     0.148 C 
HETATM   11  C17 UNL     1      21.328   4.401  50.889  1.00  0.00     0.013 C 
HETATM   12  C18 UNL     1      20.816   5.262  49.955  1.00  0.00     0.001 C 
HETATM   13  C19 UNL     1      21.577   6.092  48.960  1.00  0.00     0.000 C 
HETATM   14  C20 UNL     1      22.809   6.649  49.083  1.00  0.00     0.028 C 
HETATM   15  C21 UNL     1      23.502   6.420  50.329  1.00  0.00     0.164 C 
HETATM   16 BR1  UNL     1      24.882   7.654  50.670  1.00  0.00    -0.044 Br
HETATM   17  H7  UNL     1      26.130   4.546  51.602  1.00  0.00     0.159 HD
ENDROOT
BRANCH   5  18
HETATM   18  C6  UNL     1      25.980   5.702  49.452  1.00  0.00     0.027 C 
HETATM   19  C7  UNL     1      27.084   5.655  48.642  1.00  0.00     0.005 C 
BRANCH  19  20
HETATM   20  C8  UNL     1      27.666   6.729  47.823  1.00  0.00     0.300 C 
BRANCH  20  21
HETATM   21  N2  UNL     1      27.674   8.015  48.351  1.00  0.00     0.096 NA
HETATM   22  C9  UNL     1      28.857   8.694  48.714  1.00  0.00     0.299 C 
HETATM   23  C10 UNL     1      28.480   9.690  49.840  1.00  0.00     0.198 C 
HETATM   24  O2  UNL     1      27.259  10.253  49.532  1.00  0.00    -0.388 OA
HETATM   25  C11 UNL     1      26.950  10.291  48.189  1.00  0.00     0.198 C 
HETATM   26  C12 UNL     1      26.870   8.900  47.562  1.00  0.00     0.299 C 
ENDBRANCH  20  21
ENDBRANCH  19  20
ENDBRANCH   5  18
BRANCH  15  27
HETATM   27  O3  UNL     1      22.525   6.672  51.422  1.00  0.00    -0.371 OA
HETATM   28  H26 UNL     1      23.030   7.194  52.084  1.00  0.00     0.212 HD
ENDBRANCH  15  27
BRANCH   1  29
HETATM   29  O1  UNL     1      25.518  -0.352  52.893  1.00  0.00    -0.358 OA
HETATM   30  C1  UNL     1      26.563  -0.396  53.826  1.00  0.00     0.209 C 
ENDBRANCH   1  29
TORSDOF 5
ENDMDL
