MODEL 1
REMARK VINA RESULT:      -6.7      0.000      0.000
REMARK  8 active torsions:
REMARK  status: ('A' for Active; 'I' for Inactive)
REMARK    1  A    between atoms: C2_2  and  N1_3 
REMARK    2  A    between atoms: C4_6  and  N3_7 
REMARK    3  A    between atoms: N3_7  and  C5_8 
REMARK    4  A    between atoms: C5_8  and  C6_9 
REMARK    5  A    between atoms: C6_9  and  O1_10 
REMARK    6  A    between atoms: C10_15  and  N4_16 
REMARK    7  A    between atoms: C12_18  and  N5_19 
REMARK    8  A    between atoms: C12_18  and  N6_20 
ROOT
HETATM    1  N1  UNL     1      21.833  -0.318  53.476  1.00  0.00    -0.271 NA
HETATM    2  C3  UNL     1      22.972   0.217  53.217  1.00  0.00     0.161 A 
HETATM    3  N2  UNL     1      23.185   1.140  52.178  1.00  0.00    -0.210 NA
HETATM    4  C4  UNL     1      24.346   1.638  51.971  1.00  0.00     0.139 A 
HETATM    5  C7  UNL     1      25.555   1.350  52.728  1.00  0.00     0.049 A 
HETATM    6  C8  UNL     1      25.432   0.460  53.757  1.00  0.00     0.004 A 
HETATM    7  C9  UNL     1      26.591   0.170  54.498  1.00  0.00     0.065 A 
HETATM    8  S1  UNL     1      27.883   1.182  53.717  1.00  0.00    -0.088 SA
HETATM    9  C10 UNL     1      26.805   1.893  52.498  1.00  0.00     0.062 A 
HETATM   10  C11 UNL     1      24.130  -0.130  54.027  1.00  0.00     0.061 A 
HETATM   11  C12 UNL     1      23.957  -0.997  55.009  1.00  0.00     0.086 C 
ENDROOT
BRANCH  11  12
HETATM   12  N5  UNL     1      24.780  -1.590  56.002  1.00  0.00    -0.389 N 
HETATM   13  H15 UNL     1      25.159  -2.468  55.571  1.00  0.00     0.157 HD
HETATM   14  H16 UNL     1      24.871  -1.105  56.925  1.00  0.00     0.157 HD
ENDBRANCH  11  12
BRANCH  11  15
HETATM   15  N6  UNL     1      22.679  -1.562  55.252  1.00  0.00    -0.288 NA
HETATM   16  H17 UNL     1      22.318  -2.161  56.024  1.00  0.00     0.125 HD
HETATM   17  H18 UNL     1      22.314  -2.161  56.023  1.00  0.00     0.125 HD
ENDBRANCH  11  15
BRANCH   1  18
HETATM   18  C2  UNL     1      20.628  -0.056  52.753  1.00  0.00     0.147 C 
HETATM   19  C1  UNL     1      19.436  -0.730  53.407  1.00  0.00     0.028 C 
ENDBRANCH   1  18
BRANCH   4  20
HETATM   20  N3  UNL     1      24.352   2.551  50.875  1.00  0.00    -0.372 N 
HETATM   21  H6  UNL     1      24.719   2.212  49.942  1.00  0.00     0.161 HD
BRANCH  20  22
HETATM   22  C5  UNL     1      23.873   3.919  51.007  1.00  0.00     0.147 C 
BRANCH  22  23
HETATM   23  C6  UNL     1      24.600   4.767  49.987  1.00  0.00     0.183 C 
BRANCH  23  24
HETATM   24  O1  UNL     1      25.857   5.145  50.442  1.00  0.00    -0.399 OA
HETATM   25  H11 UNL     1      26.322   4.405  50.899  1.00  0.00     0.209 HD
ENDBRANCH  23  24
ENDBRANCH  22  23
ENDBRANCH  20  22
ENDBRANCH   4  20
BRANCH   9  26
HETATM   26  N4  UNL     1      27.296   2.815  51.555  1.00  0.00    -0.296 NA
HETATM   27  H13 UNL     1      27.462   3.836  51.650  1.00  0.00     0.124 HD
HETATM   28  H14 UNL     1      27.447   3.841  51.699  1.00  0.00     0.124 HD
ENDBRANCH   9  26
TORSDOF 8
ENDMDL
MODEL 2
REMARK VINA RESULT:      -6.6      3.029      5.983
REMARK  8 active torsions:
REMARK  status: ('A' for Active; 'I' for Inactive)
REMARK    1  A    between atoms: C2_2  and  N1_3 
REMARK    2  A    between atoms: C4_6  and  N3_7 
REMARK    3  A    between atoms: N3_7  and  C5_8 
REMARK    4  A    between atoms: C5_8  and  C6_9 
REMARK    5  A    between atoms: C6_9  and  O1_10 
REMARK    6  A    between atoms: C10_15  and  N4_16 
REMARK    7  A    between atoms: C12_18  and  N5_19 
REMARK    8  A    between atoms: C12_18  and  N6_20 
ROOT
HETATM    1  N1  UNL     1      27.018   0.954  53.455  1.00  0.00    -0.271 NA
HETATM    2  C3  UNL     1      25.837   0.934  52.950  1.00  0.00     0.161 A 
HETATM    3  N2  UNL     1      24.832   0.035  53.345  1.00  0.00    -0.210 NA
HETATM    4  C4  UNL     1      23.672   0.067  52.802  1.00  0.00     0.139 A 
HETATM    5  C7  UNL     1      23.235   0.981  51.758  1.00  0.00     0.049 A 
HETATM    6  C8  UNL     1      24.156   1.889  51.317  1.00  0.00     0.004 A 
HETATM    7  C9  UNL     1      23.749   2.780  50.309  1.00  0.00     0.065 A 
HETATM    8  S1  UNL     1      22.023   2.317  49.977  1.00  0.00    -0.088 SA
HETATM    9  C10 UNL     1      21.981   1.009  51.178  1.00  0.00     0.062 A 
HETATM   10  C11 UNL     1      25.486   1.887  51.907  1.00  0.00     0.061 A 
HETATM   11  C12 UNL     1      26.414   2.743  51.518  1.00  0.00     0.086 C 
ENDROOT
BRANCH  11  12
HETATM   12  N5  UNL     1      26.494   3.798  50.571  1.00  0.00    -0.389 N 
HETATM   13  H15 UNL     1      27.208   3.493  49.864  1.00  0.00     0.157 HD
HETATM   14  H16 UNL     1      25.887   4.638  50.713  1.00  0.00     0.157 HD
ENDBRANCH  11  12
BRANCH  11  15
HETATM   15  N6  UNL     1      27.704   2.720  52.104  1.00  0.00    -0.288 NA
HETATM   16  H17 UNL     1      28.088   3.175  52.960  1.00  0.00     0.125 HD
HETATM   17  H18 UNL     1      28.092   3.174  52.960  1.00  0.00     0.125 HD
ENDBRANCH  11  15
BRANCH   1  18
HETATM   18  C2  UNL     1      27.479   0.070  54.481  1.00  0.00     0.147 C 
HETATM   19  C1  UNL     1      28.918  -0.348  54.241  1.00  0.00     0.028 C 
ENDBRANCH   1  18
BRANCH   4  20
HETATM   20  N3  UNL     1      22.799  -0.924  53.340  1.00  0.00    -0.372 N 
HETATM   21  H6  UNL     1      22.437  -1.678  52.692  1.00  0.00     0.161 HD
BRANCH  20  22
HETATM   22  C5  UNL     1      22.399  -0.923  54.740  1.00  0.00     0.147 C 
BRANCH  22  23
HETATM   23  C6  UNL     1      21.183  -0.032  54.874  1.00  0.00     0.183 C 
BRANCH  23  24
HETATM   24  O1  UNL     1      20.084  -0.569  54.216  1.00  0.00    -0.399 OA
HETATM   25  H11 UNL     1      20.345  -1.276  53.579  1.00  0.00     0.209 HD
ENDBRANCH  23  24
ENDBRANCH  22  23
ENDBRANCH  20  22
ENDBRANCH   4  20
BRANCH   9  26
HETATM   26  N4  UNL     1      20.813   0.249  51.371  1.00  0.00    -0.296 NA
HETATM   27  H13 UNL     1      20.501  -0.289  52.203  1.00  0.00     0.124 HD
HETATM   28  H14 UNL     1      20.541  -0.278  52.233  1.00  0.00     0.124 HD
ENDBRANCH   9  26
TORSDOF 8
ENDMDL
MODEL 3
REMARK VINA RESULT:      -6.6      2.458      5.428
REMARK  8 active torsions:
REMARK  status: ('A' for Active; 'I' for Inactive)
REMARK    1  A    between atoms: C2_2  and  N1_3 
REMARK    2  A    between atoms: C4_6  and  N3_7 
REMARK    3  A    between atoms: N3_7  and  C5_8 
REMARK    4  A    between atoms: C5_8  and  C6_9 
REMARK    5  A    between atoms: C6_9  and  O1_10 
REMARK    6  A    between atoms: C10_15  and  N4_16 
REMARK    7  A    between atoms: C12_18  and  N5_19 
REMARK    8  A    between atoms: C12_18  and  N6_20 
ROOT
HETATM    1  N1  UNL     1      25.225   2.557  50.823  1.00  0.00    -0.271 NA
HETATM    2  C3  UNL     1      25.004   1.745  51.794  1.00  0.00     0.161 A 
HETATM    3  N2  UNL     1      25.970   1.385  52.749  1.00  0.00    -0.210 NA
HETATM    4  C4  UNL     1      25.685   0.570  53.695  1.00  0.00     0.139 A 
HETATM    5  C7  UNL     1      24.399  -0.073  53.920  1.00  0.00     0.049 A 
HETATM    6  C8  UNL     1      23.405   0.225  53.033  1.00  0.00     0.004 A 
HETATM    7  C9  UNL     1      22.156  -0.388  53.237  1.00  0.00     0.065 A 
HETATM    8  S1  UNL     1      22.400  -1.411  54.719  1.00  0.00    -0.088 SA
HETATM    9  C10 UNL     1      24.101  -0.952  54.945  1.00  0.00     0.062 A 
HETATM   10  C11 UNL     1      23.685   1.147  51.943  1.00  0.00     0.061 A 
HETATM   11  C12 UNL     1      22.760   1.469  51.057  1.00  0.00     0.086 C 
ENDROOT
BRANCH  11  12
HETATM   12  N5  UNL     1      21.398   1.132  50.838  1.00  0.00    -0.389 N 
HETATM   13  H15 UNL     1      21.296   0.136  51.153  1.00  0.00     0.157 HD
HETATM   14  H16 UNL     1      20.766   1.861  50.431  1.00  0.00     0.157 HD
ENDBRANCH  11  12
BRANCH  11  15
HETATM   15  N6  UNL     1      23.057   2.367  50.001  1.00  0.00    -0.288 NA
HETATM   16  H17 UNL     1      23.946   2.823  49.704  1.00  0.00     0.125 HD
HETATM   17  H18 UNL     1      23.945   2.825  49.701  1.00  0.00     0.125 HD
ENDBRANCH  11  15
BRANCH   1  18
HETATM   18  C2  UNL     1      26.476   3.204  50.574  1.00  0.00     0.147 C 
HETATM   19  C1  UNL     1      26.385   4.134  49.378  1.00  0.00     0.028 C 
ENDBRANCH   1  18
BRANCH   4  20
HETATM   20  N3  UNL     1      26.798   0.334  54.556  1.00  0.00    -0.372 N 
HETATM   21  H6  UNL     1      26.634   0.342  55.601  1.00  0.00     0.161 HD
BRANCH  20  22
HETATM   22  C5  UNL     1      28.136   0.088  54.037  1.00  0.00     0.147 C 
BRANCH  22  23
HETATM   23  C6  UNL     1      29.047   1.172  54.572  1.00  0.00     0.183 C 
BRANCH  23  24
HETATM   24  O1  UNL     1      28.549   2.439  54.294  1.00  0.00    -0.399 OA
HETATM   25  H11 UNL     1      29.267   3.074  54.065  1.00  0.00     0.209 HD
ENDBRANCH  23  24
ENDBRANCH  22  23
ENDBRANCH  20  22
ENDBRANCH   4  20
BRANCH   9  26
HETATM   26  N4  UNL     1      24.850  -1.477  56.013  1.00  0.00    -0.296 NA
HETATM   27  H13 UNL     1      25.880  -1.526  56.140  1.00  0.00     0.124 HD
HETATM   28  H14 UNL     1      25.893  -1.504  56.097  1.00  0.00     0.124 HD
ENDBRANCH   9  26
TORSDOF 8
ENDMDL
MODEL 4
REMARK VINA RESULT:      -6.5      2.405      4.475
REMARK  8 active torsions:
REMARK  status: ('A' for Active; 'I' for Inactive)
REMARK    1  A    between atoms: C2_2  and  N1_3 
REMARK    2  A    between atoms: C4_6  and  N3_7 
REMARK    3  A    between atoms: N3_7  and  C5_8 
REMARK    4  A    between atoms: C5_8  and  C6_9 
REMARK    5  A    between atoms: C6_9  and  O1_10 
REMARK    6  A    between atoms: C10_15  and  N4_16 
REMARK    7  A    between atoms: C12_18  and  N5_19 
REMARK    8  A    between atoms: C12_18  and  N6_20 
ROOT
HETATM    1  N1  UNL     1      27.499   0.472  53.569  1.00  0.00    -0.271 NA
HETATM    2  C3  UNL     1      26.574   1.122  52.958  1.00  0.00     0.161 A 
HETATM    3  N2  UNL     1      26.816   2.203  52.094  1.00  0.00    -0.210 NA
HETATM    4  C4  UNL     1      25.848   2.809  51.514  1.00  0.00     0.139 A 
HETATM    5  C7  UNL     1      24.434   2.497  51.646  1.00  0.00     0.049 A 
HETATM    6  C8  UNL     1      24.113   1.456  52.471  1.00  0.00     0.004 A 
HETATM    7  C9  UNL     1      22.750   1.141  52.610  1.00  0.00     0.065 A 
HETATM    8  S1  UNL     1      21.905   2.350  51.548  1.00  0.00    -0.088 SA
HETATM    9  C10 UNL     1      23.396   3.157  51.016  1.00  0.00     0.062 A 
HETATM   10  C11 UNL     1      25.183   0.740  53.150  1.00  0.00     0.061 A 
HETATM   11  C12 UNL     1      24.928  -0.274  53.959  1.00  0.00     0.086 C 
ENDROOT
BRANCH  11  12
HETATM   12  N5  UNL     1      23.764  -0.950  54.410  1.00  0.00    -0.389 N 
HETATM   13  H15 UNL     1      23.890  -1.953  54.129  1.00  0.00     0.157 HD
HETATM   14  H16 UNL     1      23.029  -0.394  54.905  1.00  0.00     0.157 HD
ENDBRANCH  11  12
BRANCH  11  15
HETATM   15  N6  UNL     1      25.986  -0.955  54.612  1.00  0.00    -0.288 NA
HETATM   16  H17 UNL     1      26.958  -0.664  54.852  1.00  0.00     0.125 HD
HETATM   17  H18 UNL     1      26.959  -0.668  54.854  1.00  0.00     0.125 HD
ENDBRANCH  11  15
BRANCH   1  18
HETATM   18  C2  UNL     1      28.898   0.754  53.460  1.00  0.00     0.147 C 
HETATM   19  C1  UNL     1      29.729  -0.496  53.689  1.00  0.00     0.028 C 
ENDBRANCH   1  18
BRANCH   4  20
HETATM   20  N3  UNL     1      26.303   3.875  50.682  1.00  0.00    -0.372 N 
HETATM   21  H6  UNL     1      26.289   4.858  51.073  1.00  0.00     0.161 HD
BRANCH  20  22
HETATM   22  C5  UNL     1      26.779   3.645  49.326  1.00  0.00     0.147 C 
BRANCH  22  23
HETATM   23  C6  UNL     1      27.284   4.963  48.782  1.00  0.00     0.183 C 
BRANCH  23  24
HETATM   24  O1  UNL     1      28.609   5.186  49.137  1.00  0.00    -0.399 OA
HETATM   25  H11 UNL     1      28.972   5.999  48.713  1.00  0.00     0.209 HD
ENDBRANCH  23  24
ENDBRANCH  22  23
ENDBRANCH  20  22
ENDBRANCH   4  20
BRANCH   9  26
HETATM   26  N4  UNL     1      23.345   4.242  50.123  1.00  0.00    -0.296 NA
HETATM   27  H13 UNL     1      24.093   4.647  49.528  1.00  0.00     0.124 HD
HETATM   28  H14 UNL     1      24.131   4.616  49.541  1.00  0.00     0.124 HD
ENDBRANCH   9  26
TORSDOF 8
ENDMDL
MODEL 5
REMARK VINA RESULT:      -6.2      2.610      4.618
REMARK  8 active torsions:
REMARK  status: ('A' for Active; 'I' for Inactive)
REMARK    1  A    between atoms: C2_2  and  N1_3 
REMARK    2  A    between atoms: C4_6  and  N3_7 
REMARK    3  A    between atoms: N3_7  and  C5_8 
REMARK    4  A    between atoms: C5_8  and  C6_9 
REMARK    5  A    between atoms: C6_9  and  O1_10 
REMARK    6  A    between atoms: C10_15  and  N4_16 
REMARK    7  A    between atoms: C12_18  and  N5_19 
REMARK    8  A    between atoms: C12_18  and  N6_20 
ROOT
HETATM    1  N1  UNL     1      26.590   0.967  53.373  1.00  0.00    -0.271 NA
HETATM    2  C3  UNL     1      25.341   0.770  53.146  1.00  0.00     0.161 A 
HETATM    3  N2  UNL     1      24.637   1.360  52.082  1.00  0.00    -0.210 NA
HETATM    4  C4  UNL     1      23.390   1.122  51.909  1.00  0.00     0.139 A 
HETATM    5  C7  UNL     1      22.556   0.258  52.730  1.00  0.00     0.049 A 
HETATM    6  C8  UNL     1      23.167  -0.354  53.788  1.00  0.00     0.004 A 
HETATM    7  C9  UNL     1      22.374  -1.192  54.591  1.00  0.00     0.065 A 
HETATM    8  S1  UNL     1      20.726  -1.107  53.831  1.00  0.00    -0.088 SA
HETATM    9  C10 UNL     1      21.211   0.007  52.535  1.00  0.00     0.062 A 
HETATM   10  C11 UNL     1      24.582  -0.111  54.021  1.00  0.00     0.061 A 
HETATM   11  C12 UNL     1      25.222  -0.677  55.029  1.00  0.00     0.086 C 
ENDROOT
BRANCH  11  12
HETATM   12  N5  UNL     1      24.880  -1.568  56.081  1.00  0.00    -0.389 N 
HETATM   13  H15 UNL     1      23.844  -1.471  56.212  1.00  0.00     0.157 HD
HETATM   14  H16 UNL     1      25.645  -2.130  56.522  1.00  0.00     0.157 HD
ENDBRANCH  11  12
BRANCH  11  15
HETATM   15  N6  UNL     1      26.601  -0.423  55.239  1.00  0.00    -0.288 NA
HETATM   16  H17 UNL     1      27.138   0.464  55.340  1.00  0.00     0.125 HD
HETATM   17  H18 UNL     1      27.142   0.462  55.340  1.00  0.00     0.125 HD
ENDBRANCH  11  15
BRANCH   1  18
HETATM   18  C2  UNL     1      27.438   1.809  52.586  1.00  0.00     0.147 C 
HETATM   19  C1  UNL     1      28.532   2.433  53.433  1.00  0.00     0.028 C 
ENDBRANCH   1  18
BRANCH   4  20
HETATM   20  N3  UNL     1      22.863   1.814  50.778  1.00  0.00    -0.372 N 
HETATM   21  H6  UNL     1      22.584   1.248  49.930  1.00  0.00     0.161 HD
BRANCH  20  22
HETATM   22  C5  UNL     1      22.701   3.261  50.766  1.00  0.00     0.147 C 
BRANCH  22  23
HETATM   23  C6  UNL     1      21.548   3.591  49.844  1.00  0.00     0.183 C 
BRANCH  23  24
HETATM   24  O1  UNL     1      20.337   3.151  50.365  1.00  0.00    -0.399 OA
HETATM   25  H11 UNL     1      19.576   3.669  50.012  1.00  0.00     0.209 HD
ENDBRANCH  23  24
ENDBRANCH  22  23
ENDBRANCH  20  22
ENDBRANCH   4  20
BRANCH   9  26
HETATM   26  N4  UNL     1      20.277   0.448  51.580  1.00  0.00    -0.296 NA
HETATM   27  H13 UNL     1      20.226   1.351  51.070  1.00  0.00     0.124 HD
HETATM   28  H14 UNL     1      20.267   1.372  51.090  1.00  0.00     0.124 HD
ENDBRANCH   9  26
TORSDOF 8
ENDMDL
MODEL 6
REMARK VINA RESULT:      -6.2      2.322      5.006
REMARK  8 active torsions:
REMARK  status: ('A' for Active; 'I' for Inactive)
REMARK    1  A    between atoms: C2_2  and  N1_3 
REMARK    2  A    between atoms: C4_6  and  N3_7 
REMARK    3  A    between atoms: N3_7  and  C5_8 
REMARK    4  A    between atoms: C5_8  and  C6_9 
REMARK    5  A    between atoms: C6_9  and  O1_10 
REMARK    6  A    between atoms: C10_15  and  N4_16 
REMARK    7  A    between atoms: C12_18  and  N5_19 
REMARK    8  A    between atoms: C12_18  and  N6_20 
ROOT
HETATM    1  N1  UNL     1      26.312   2.973  51.012  1.00  0.00    -0.271 NA
HETATM    2  C3  UNL     1      25.596   2.140  51.678  1.00  0.00     0.161 A 
HETATM    3  N2  UNL     1      24.278   1.792  51.337  1.00  0.00    -0.210 NA
HETATM    4  C4  UNL     1      23.617   0.953  52.044  1.00  0.00     0.139 A 
HETATM    5  C7  UNL     1      24.093   0.268  53.236  1.00  0.00     0.049 A 
HETATM    6  C8  UNL     1      25.367   0.553  53.636  1.00  0.00     0.004 A 
HETATM    7  C9  UNL     1      25.842  -0.101  54.787  1.00  0.00     0.065 A 
HETATM    8  S1  UNL     1      24.447  -1.141  55.314  1.00  0.00    -0.088 SA
HETATM    9  C10 UNL     1      23.372  -0.637  53.993  1.00  0.00     0.062 A 
HETATM   10  C11 UNL     1      26.154   1.500  52.861  1.00  0.00     0.061 A 
HETATM   11  C12 UNL     1      27.391   1.812  53.204  1.00  0.00     0.086 C 
ENDROOT
BRANCH  11  12
HETATM   12  N5  UNL     1      28.286   1.438  54.241  1.00  0.00    -0.389 N 
HETATM   13  H15 UNL     1      29.130   1.041  53.760  1.00  0.00     0.157 HD
HETATM   14  H16 UNL     1      27.991   1.599  55.232  1.00  0.00     0.157 HD
ENDBRANCH  11  12
BRANCH  11  15
HETATM   15  N6  UNL     1      28.138   2.741  52.436  1.00  0.00    -0.288 NA
HETATM   16  H17 UNL     1      28.759   3.531  52.711  1.00  0.00     0.125 HD
HETATM   17  H18 UNL     1      28.760   3.532  52.707  1.00  0.00     0.125 HD
ENDBRANCH  11  15
BRANCH   1  18
HETATM   18  C2  UNL     1      25.876   3.662  49.837  1.00  0.00     0.147 C 
HETATM   19  C1  UNL     1      27.039   4.328  49.126  1.00  0.00     0.028 C 
ENDBRANCH   1  18
BRANCH   4  20
HETATM   20  N3  UNL     1      22.303   0.736  51.532  1.00  0.00    -0.372 N 
HETATM   21  H6  UNL     1      22.008  -0.257  51.316  1.00  0.00     0.161 HD
BRANCH  20  22
HETATM   22  C5  UNL     1      21.374   1.832  51.303  1.00  0.00     0.147 C 
BRANCH  22  23
HETATM   23  C6  UNL     1      20.478   1.942  52.518  1.00  0.00     0.183 C 
BRANCH  23  24
HETATM   24  O1  UNL     1      20.167   3.266  52.803  1.00  0.00    -0.399 OA
HETATM   25  H11 UNL     1      20.973   3.832  52.848  1.00  0.00     0.209 HD
ENDBRANCH  23  24
ENDBRANCH  22  23
ENDBRANCH  20  22
ENDBRANCH   4  20
BRANCH   9  26
HETATM   26  N4  UNL     1      22.069  -1.158  53.890  1.00  0.00    -0.296 NA
HETATM   27  H13 UNL     1      21.182  -0.814  54.306  1.00  0.00     0.124 HD
HETATM   28  H14 UNL     1      21.201  -0.773  54.330  1.00  0.00     0.124 HD
ENDBRANCH   9  26
TORSDOF 8
ENDMDL
MODEL 7
REMARK VINA RESULT:      -6.2      2.340      4.207
REMARK  8 active torsions:
REMARK  status: ('A' for Active; 'I' for Inactive)
REMARK    1  A    between atoms: C2_2  and  N1_3 
REMARK    2  A    between atoms: C4_6  and  N3_7 
REMARK    3  A    between atoms: N3_7  and  C5_8 
REMARK    4  A    between atoms: C5_8  and  C6_9 
REMARK    5  A    between atoms: C6_9  and  O1_10 
REMARK    6  A    between atoms: C10_15  and  N4_16 
REMARK    7  A    between atoms: C12_18  and  N5_19 
REMARK    8  A    between atoms: C12_18  and  N6_20 
ROOT
HETATM    1  N1  UNL     1      26.414  -0.040  53.891  1.00  0.00    -0.271 NA
HETATM    2  C3  UNL     1      25.324   0.325  53.317  1.00  0.00     0.161 A 
HETATM    3  N2  UNL     1      25.275   1.160  52.188  1.00  0.00    -0.210 NA
HETATM    4  C4  UNL     1      24.154   1.487  51.663  1.00  0.00     0.139 A 
HETATM    5  C7  UNL     1      22.835   1.074  52.118  1.00  0.00     0.049 A 
HETATM    6  C8  UNL     1      22.796   0.259  53.214  1.00  0.00     0.004 A 
HETATM    7  C9  UNL     1      21.530  -0.149  53.667  1.00  0.00     0.065 A 
HETATM    8  S1  UNL     1      20.369   0.642  52.514  1.00  0.00    -0.088 SA
HETATM    9  C10 UNL     1      21.630   1.432  51.544  1.00  0.00     0.062 A 
HETATM   10  C11 UNL     1      24.047  -0.137  53.842  1.00  0.00     0.061 A 
HETATM   11  C12 UNL     1      24.066  -0.923  54.905  1.00  0.00     0.086 C 
ENDROOT
BRANCH  11  12
HETATM   12  N5  UNL     1      23.094  -1.575  55.708  1.00  0.00    -0.389 N 
HETATM   13  H15 UNL     1      23.563  -1.764  56.627  1.00  0.00     0.157 HD
HETATM   14  H16 UNL     1      22.148  -1.750  55.296  1.00  0.00     0.157 HD
ENDBRANCH  11  12
BRANCH  11  15
HETATM   15  N6  UNL     1      25.297  -1.293  55.502  1.00  0.00    -0.288 NA
HETATM   16  H17 UNL     1      25.592  -1.372  56.499  1.00  0.00     0.125 HD
HETATM   17  H18 UNL     1      25.595  -1.373  56.499  1.00  0.00     0.125 HD
ENDBRANCH  11  15
BRANCH   1  18
HETATM   18  C2  UNL     1      27.725   0.348  53.468  1.00  0.00     0.147 C 
HETATM   19  C1  UNL     1      28.675  -0.835  53.470  1.00  0.00     0.028 C 
ENDBRANCH   1  18
BRANCH   4  20
HETATM   20  N3  UNL     1      24.319   2.338  50.529  1.00  0.00    -0.372 N 
HETATM   21  H6  UNL     1      24.046   1.964  49.578  1.00  0.00     0.161 HD
BRANCH  20  22
HETATM   22  C5  UNL     1      24.846   3.689  50.650  1.00  0.00     0.147 C 
BRANCH  22  23
HETATM   23  C6  UNL     1      26.260   3.685  50.109  1.00  0.00     0.183 C 
BRANCH  23  24
HETATM   24  O1  UNL     1      27.166   3.228  51.058  1.00  0.00    -0.399 OA
HETATM   25  H11 UNL     1      26.713   2.874  51.859  1.00  0.00     0.209 HD
ENDBRANCH  23  24
ENDBRANCH  22  23
ENDBRANCH  20  22
ENDBRANCH   4  20
BRANCH   9  26
HETATM   26  N4  UNL     1      21.289   2.233  50.439  1.00  0.00    -0.296 NA
HETATM   27  H13 UNL     1      21.883   2.571  49.657  1.00  0.00     0.124 HD
HETATM   28  H14 UNL     1      21.926   2.549  49.671  1.00  0.00     0.124 HD
ENDBRANCH   9  26
TORSDOF 8
ENDMDL
MODEL 8
REMARK VINA RESULT:      -6.1      2.381      4.309
REMARK  8 active torsions:
REMARK  status: ('A' for Active; 'I' for Inactive)
REMARK    1  A    between atoms: C2_2  and  N1_3 
REMARK    2  A    between atoms: C4_6  and  N3_7 
REMARK    3  A    between atoms: N3_7  and  C5_8 
REMARK    4  A    between atoms: C5_8  and  C6_9 
REMARK    5  A    between atoms: C6_9  and  O1_10 
REMARK    6  A    between atoms: C10_15  and  N4_16 
REMARK    7  A    between atoms: C12_18  and  N5_19 
REMARK    8  A    between atoms: C12_18  and  N6_20 
ROOT
HETATM    1  N1  UNL     1      22.325   2.023  50.298  1.00  0.00    -0.271 NA
HETATM    2  C3  UNL     1      22.944   1.419  51.249  1.00  0.00     0.161 A 
HETATM    3  N2  UNL     1      24.342   1.407  51.389  1.00  0.00    -0.210 NA
HETATM    4  C4  UNL     1      24.899   0.785  52.360  1.00  0.00     0.139 A 
HETATM    5  C7  UNL     1      24.218   0.040  53.409  1.00  0.00     0.049 A 
HETATM    6  C8  UNL     1      22.855   0.003  53.344  1.00  0.00     0.004 A 
HETATM    7  C9  UNL     1      22.182  -0.714  54.349  1.00  0.00     0.065 A 
HETATM    8  S1  UNL     1      23.515  -1.349  55.409  1.00  0.00    -0.088 SA
HETATM    9  C10 UNL     1      24.828  -0.628  54.454  1.00  0.00     0.062 A 
HETATM   10  C11 UNL     1      22.182   0.696  52.256  1.00  0.00     0.061 A 
HETATM   11  C12 UNL     1      20.865   0.691  52.146  1.00  0.00     0.086 C 
ENDROOT
BRANCH  11  12
HETATM   12  N5  UNL     1      19.783   0.135  52.878  1.00  0.00    -0.389 N 
HETATM   13  H15 UNL     1      20.220  -0.454  53.629  1.00  0.00     0.157 HD
HETATM   14  H16 UNL     1      18.809   0.375  52.581  1.00  0.00     0.157 HD
ENDBRANCH  11  12
BRANCH  11  15
HETATM   15  N6  UNL     1      20.231   1.371  51.075  1.00  0.00    -0.288 NA
HETATM   16  H17 UNL     1      20.612   1.859  50.237  1.00  0.00     0.125 HD
HETATM   17  H18 UNL     1      20.609   1.860  50.235  1.00  0.00     0.125 HD
ENDBRANCH  11  15
BRANCH   1  18
HETATM   18  C2  UNL     1      22.963   2.764  49.254  1.00  0.00     0.147 C 
HETATM   19  C1  UNL     1      22.548   2.253  47.886  1.00  0.00     0.028 C 
ENDBRANCH   1  18
BRANCH   4  20
HETATM   20  N3  UNL     1      26.321   0.894  52.324  1.00  0.00    -0.372 N 
HETATM   21  H6  UNL     1      26.891   0.003  52.317  1.00  0.00     0.161 HD
BRANCH  20  22
HETATM   22  C5  UNL     1      26.995   2.183  52.296  1.00  0.00     0.147 C 
BRANCH  22  23
HETATM   23  C6  UNL     1      28.052   2.177  53.379  1.00  0.00     0.183 C 
BRANCH  23  24
HETATM   24  O1  UNL     1      29.152   2.948  53.022  1.00  0.00    -0.399 OA
HETATM   25  H11 UNL     1      28.905   3.678  52.406  1.00  0.00     0.209 HD
ENDBRANCH  23  24
ENDBRANCH  22  23
ENDBRANCH  20  22
ENDBRANCH   4  20
BRANCH   9  26
HETATM   26  N4  UNL     1      26.171  -0.803  54.833  1.00  0.00    -0.296 NA
HETATM   27  H13 UNL     1      26.761  -0.233  55.470  1.00  0.00     0.124 HD
HETATM   28  H14 UNL     1      26.726  -0.198  55.482  1.00  0.00     0.124 HD
ENDBRANCH   9  26
TORSDOF 8
ENDMDL
MODEL 9
REMARK VINA RESULT:      -6.0      1.771      2.172
REMARK  8 active torsions:
REMARK  status: ('A' for Active; 'I' for Inactive)
REMARK    1  A    between atoms: C2_2  and  N1_3 
REMARK    2  A    between atoms: C4_6  and  N3_7 
REMARK    3  A    between atoms: N3_7  and  C5_8 
REMARK    4  A    between atoms: C5_8  and  C6_9 
REMARK    5  A    between atoms: C6_9  and  O1_10 
REMARK    6  A    between atoms: C10_15  and  N4_16 
REMARK    7  A    between atoms: C12_18  and  N5_19 
REMARK    8  A    between atoms: C12_18  and  N6_20 
ROOT
HETATM    1  N1  UNL     1      20.994   2.150  52.596  1.00  0.00    -0.271 NA
HETATM    2  C3  UNL     1      22.276   2.134  52.516  1.00  0.00     0.161 A 
HETATM    3  N2  UNL     1      23.035   3.146  51.905  1.00  0.00    -0.210 NA
HETATM    4  C4  UNL     1      24.313   3.071  51.858  1.00  0.00     0.139 A 
HETATM    5  C7  UNL     1      25.133   1.995  52.395  1.00  0.00     0.049 A 
HETATM    6  C8  UNL     1      24.469   0.969  53.006  1.00  0.00     0.004 A 
HETATM    7  C9  UNL     1      25.247  -0.078  53.530  1.00  0.00     0.065 A 
HETATM    8  S1  UNL     1      26.957   0.403  53.146  1.00  0.00    -0.088 SA
HETATM    9  C10 UNL     1      26.512   1.923  52.340  1.00  0.00     0.062 A 
HETATM   10  C11 UNL     1      23.017   1.015  53.081  1.00  0.00     0.061 A 
HETATM   11  C12 UNL     1      22.326   0.049  53.660  1.00  0.00     0.086 C 
ENDROOT
BRANCH  11  12
HETATM   12  N5  UNL     1      22.634  -1.173  54.313  1.00  0.00    -0.389 N 
HETATM   13  H15 UNL     1      21.821  -1.371  54.946  1.00  0.00     0.157 HD
HETATM   14  H16 UNL     1      23.541  -1.642  54.085  1.00  0.00     0.157 HD
ENDBRANCH  11  12
BRANCH  11  15
HETATM   15  N6  UNL     1      20.911   0.114  53.719  1.00  0.00    -0.288 NA
HETATM   16  H17 UNL     1      20.183  -0.627  53.813  1.00  0.00     0.125 HD
HETATM   17  H18 UNL     1      20.180  -0.624  53.813  1.00  0.00     0.125 HD
ENDBRANCH  11  15
BRANCH   1  18
HETATM   18  C2  UNL     1      20.160   3.191  52.080  1.00  0.00     0.147 C 
HETATM   19  C1  UNL     1      18.850   2.635  51.553  1.00  0.00     0.028 C 
ENDBRANCH   1  18
BRANCH   4  20
HETATM   20  N3  UNL     1      24.895   4.195  51.199  1.00  0.00    -0.372 N 
HETATM   21  H6  UNL     1      25.950   4.260  51.158  1.00  0.00     0.161 HD
BRANCH  20  22
HETATM   22  C5  UNL     1      24.082   5.237  50.590  1.00  0.00     0.147 C 
BRANCH  22  23
HETATM   23  C6  UNL     1      24.788   6.559  50.802  1.00  0.00     0.183 C 
BRANCH  23  24
HETATM   24  O1  UNL     1      24.434   7.137  52.015  1.00  0.00    -0.399 OA
HETATM   25  H11 UNL     1      23.642   6.704  52.412  1.00  0.00     0.209 HD
ENDBRANCH  23  24
ENDBRANCH  22  23
ENDBRANCH  20  22
ENDBRANCH   4  20
BRANCH   9  26
HETATM   26  N4  UNL     1      27.501   2.768  51.806  1.00  0.00    -0.296 NA
HETATM   27  H13 UNL     1      28.185   3.379  52.294  1.00  0.00     0.124 HD
HETATM   28  H14 UNL     1      28.172   3.368  52.341  1.00  0.00     0.124 HD
ENDBRANCH   9  26
TORSDOF 8
ENDMDL
