MODEL 1
REMARK VINA RESULT:      -9.8      0.000      0.000
REMARK  5 active torsions:
REMARK  status: ('A' for Active; 'I' for Inactive)
REMARK    1  A    between atoms: O1_2  and  N1_3 
REMARK    2  A    between atoms: C5_7  and  C6_8 
REMARK    3  A    between atoms: C6_8  and  C7_10 
REMARK    4  A    between atoms: C12_17  and  N4_18 
REMARK    5  A    between atoms: C14_20  and  N5_21 
ROOT
HETATM    1  C7  UNL     1      23.026   3.573  52.035  1.00  0.00     0.011 A 
HETATM    2  C8  UNL     1      21.653   3.387  51.915  1.00  0.00     0.017 A 
HETATM    3  C9  UNL     1      21.024   2.198  52.219  1.00  0.00     0.033 A 
HETATM    4  C10 UNL     1      21.757   1.117  52.668  1.00  0.00     0.072 A 
HETATM    5  N2  UNL     1      21.237  -0.077  52.980  1.00  0.00    -0.241 NA
HETATM    6  C11 UNL     1      22.040  -1.070  53.403  1.00  0.00     0.236 A 
HETATM    7  N3  UNL     1      23.388  -0.878  53.519  1.00  0.00    -0.223 NA
HETATM    8  C12 UNL     1      23.960   0.316  53.213  1.00  0.00     0.143 A 
HETATM    9  C18 UNL     1      23.117   1.312  52.783  1.00  0.00     0.040 A 
HETATM   10  C19 UNL     1      23.752   2.495  52.482  1.00  0.00     0.032 A 
ENDROOT
BRANCH   1  11
HETATM   11  C6  UNL     1      23.698   4.828  51.710  1.00  0.00     0.164 C 
HETATM   12  O2  UNL     1      23.862   5.687  52.641  1.00  0.00    -0.292 OA
BRANCH  11  13
HETATM   13  C5  UNL     1      24.196   5.124  50.316  1.00  0.00     0.066 C 
HETATM   14  C4  UNL     1      24.588   3.832  49.708  1.00  0.00     0.041 C 
HETATM   15  C3  UNL     1      26.053   3.624  49.544  1.00  0.00    -0.007 C 
HETATM   16  C2  UNL     1      27.069   4.407  49.136  1.00  0.00     0.114 C 
HETATM   17  N1  UNL     1      26.931   5.783  48.720  1.00  0.00    -0.261 N 
HETATM   18  C21 UNL     1      25.836   6.667  49.160  1.00  0.00     0.052 C 
HETATM   19  C20 UNL     1      25.240   6.172  50.432  1.00  0.00     0.045 C 
HETATM   20  C22 UNL     1      24.861   6.853  48.038  1.00  0.00     0.041 C 
HETATM   21  C23 UNL     1      26.523   8.005  49.427  1.00  0.00     0.041 C 
BRANCH  17  22
HETATM   22  O1  UNL     1      27.896   6.201  47.887  1.00  0.00    -0.283 OA
HETATM   23  C1  UNL     1      29.080   5.536  48.225  1.00  0.00     0.238 C 
ENDBRANCH  17  22
ENDBRANCH  11  13
ENDBRANCH   1  11
BRANCH   8  24
HETATM   24  N4  UNL     1      25.361   0.306  53.429  1.00  0.00    -0.335 N 
HETATM   25  C13 UNL     1      25.846  -1.009  53.081  1.00  0.00     0.123 A 
HETATM   26  C14 UNL     1      27.133  -1.395  53.146  1.00  0.00     0.063 A 
HETATM   27  C15 UNL     1      28.147  -0.433  53.604  1.00  0.00     0.059 A 
HETATM   28 CL1  UNL     1      29.852  -0.732  53.756  1.00  0.00    -0.082 Cl
HETATM   29  C16 UNL     1      27.646   0.751  53.912  1.00  0.00     0.019 A 
HETATM   30  C17 UNL     1      26.278   1.325  53.897  1.00  0.00     0.159 A 
BRANCH  26  31
HETATM   31  N5  UNL     1      27.653  -2.673  52.815  1.00  0.00    -0.397 N 
HETATM   32  H13 UNL     1      27.898  -2.887  51.821  1.00  0.00     0.156 HD
HETATM   33  H14 UNL     1      27.736  -3.295  53.667  1.00  0.00     0.156 HD
ENDBRANCH  26  31
ENDBRANCH   8  24
TORSDOF 5
ENDMDL
MODEL 2
REMARK VINA RESULT:      -9.7      3.455      7.665
REMARK  5 active torsions:
REMARK  status: ('A' for Active; 'I' for Inactive)
REMARK    1  A    between atoms: O1_2  and  N1_3 
REMARK    2  A    between atoms: C5_7  and  C6_8 
REMARK    3  A    between atoms: C6_8  and  C7_10 
REMARK    4  A    between atoms: C12_17  and  N4_18 
REMARK    5  A    between atoms: C14_20  and  N5_21 
ROOT
HETATM    1  C7  UNL     1      24.523   3.592  51.210  1.00  0.00     0.011 A 
HETATM    2  C8  UNL     1      23.287   3.341  51.795  1.00  0.00     0.017 A 
HETATM    3  C9  UNL     1      22.250   4.251  51.786  1.00  0.00     0.033 A 
HETATM    4  C10 UNL     1      22.408   5.480  51.175  1.00  0.00     0.072 A 
HETATM    5  N2  UNL     1      21.463   6.428  51.121  1.00  0.00    -0.241 NA
HETATM    6  C11 UNL     1      21.719   7.597  50.507  1.00  0.00     0.236 A 
HETATM    7  N3  UNL     1      22.937   7.834  49.934  1.00  0.00    -0.223 NA
HETATM    8  C12 UNL     1      23.925   6.901  49.964  1.00  0.00     0.143 A 
HETATM    9  C18 UNL     1      23.637   5.718  50.598  1.00  0.00     0.040 A 
HETATM   10  C19 UNL     1      24.676   4.816  50.603  1.00  0.00     0.032 A 
ENDROOT
BRANCH   1  11
HETATM   11  C6  UNL     1      25.626   2.634  51.222  1.00  0.00     0.164 C 
HETATM   12  O2  UNL     1      26.377   2.561  50.192  1.00  0.00    -0.292 OA
BRANCH  11  13
HETATM   13  C5  UNL     1      25.891   1.743  52.411  1.00  0.00     0.066 C 
HETATM   14  C4  UNL     1      26.704   2.525  53.371  1.00  0.00     0.041 C 
HETATM   15  C3  UNL     1      28.127   2.104  53.491  1.00  0.00    -0.007 C 
HETATM   16  C2  UNL     1      28.746   0.911  53.558  1.00  0.00     0.114 C 
HETATM   17  N1  UNL     1      28.076  -0.367  53.522  1.00  0.00    -0.261 N 
HETATM   18  C21 UNL     1      26.757  -0.584  52.900  1.00  0.00     0.052 C 
HETATM   19  C20 UNL     1      26.469   0.477  51.896  1.00  0.00     0.045 C 
HETATM   20  C22 UNL     1      25.719  -0.740  53.969  1.00  0.00     0.041 C 
HETATM   21  C23 UNL     1      26.904  -1.921  52.175  1.00  0.00     0.041 C 
BRANCH  17  22
HETATM   22  O1  UNL     1      28.760  -1.360  54.111  1.00  0.00    -0.283 OA
HETATM   23  C1  UNL     1      30.114  -1.204  53.790  1.00  0.00     0.238 C 
ENDBRANCH  17  22
ENDBRANCH  11  13
ENDBRANCH   1  11
BRANCH   8  24
HETATM   24  N4  UNL     1      25.092   7.341  49.290  1.00  0.00    -0.335 N 
HETATM   25  C13 UNL     1      25.874   8.112  50.228  1.00  0.00     0.123 A 
HETATM   26  C14 UNL     1      27.059   8.684  49.951  1.00  0.00     0.063 A 
HETATM   27  C15 UNL     1      27.629   8.537  48.603  1.00  0.00     0.059 A 
HETATM   28 CL1  UNL     1      29.140   9.193  48.049  1.00  0.00    -0.082 Cl
HETATM   29  C16 UNL     1      26.871   7.826  47.787  1.00  0.00     0.019 A 
HETATM   30  C17 UNL     1      25.562   7.140  47.934  1.00  0.00     0.159 A 
BRANCH  26  31
HETATM   31  N5  UNL     1      27.860   9.448  50.839  1.00  0.00    -0.397 N 
HETATM   32  H13 UNL     1      28.715   9.930  50.477  1.00  0.00     0.156 HD
HETATM   33  H14 UNL     1      27.472   9.440  51.824  1.00  0.00     0.156 HD
ENDBRANCH  26  31
ENDBRANCH   8  24
TORSDOF 5
ENDMDL
MODEL 3
REMARK VINA RESULT:      -9.6      3.265      6.249
REMARK  5 active torsions:
REMARK  status: ('A' for Active; 'I' for Inactive)
REMARK    1  A    between atoms: O1_2  and  N1_3 
REMARK    2  A    between atoms: C5_7  and  C6_8 
REMARK    3  A    between atoms: C6_8  and  C7_10 
REMARK    4  A    between atoms: C12_17  and  N4_18 
REMARK    5  A    between atoms: C14_20  and  N5_21 
ROOT
HETATM    1  C7  UNL     1      22.614   0.621  53.247  1.00  0.00     0.011 A 
HETATM    2  C8  UNL     1      21.383   0.197  53.734  1.00  0.00     0.017 A 
HETATM    3  C9  UNL     1      20.194   0.825  53.426  1.00  0.00     0.033 A 
HETATM    4  C10 UNL     1      20.185   1.931  52.598  1.00  0.00     0.072 A 
HETATM    5  N2  UNL     1      19.084   2.609  52.249  1.00  0.00    -0.241 NA
HETATM    6  C11 UNL     1      19.183   3.680  51.440  1.00  0.00     0.236 A 
HETATM    7  N3  UNL     1      20.398   4.088  50.966  1.00  0.00    -0.223 NA
HETATM    8  C12 UNL     1      21.541   3.430  51.294  1.00  0.00     0.143 A 
HETATM    9  C18 UNL     1      21.411   2.342  52.121  1.00  0.00     0.040 A 
HETATM   10  C19 UNL     1      22.601   1.721  52.423  1.00  0.00     0.032 A 
ENDROOT
BRANCH   1  11
HETATM   11  C6  UNL     1      23.876  -0.037  53.574  1.00  0.00     0.164 C 
HETATM   12  O2  UNL     1      23.887  -0.893  54.522  1.00  0.00    -0.292 OA
BRANCH  11  13
HETATM   13  C5  UNL     1      25.150   0.268  52.822  1.00  0.00     0.066 C 
HETATM   14  C4  UNL     1      25.613  -1.000  52.213  1.00  0.00     0.041 C 
HETATM   15  C3  UNL     1      26.826  -1.598  52.833  1.00  0.00    -0.007 C 
HETATM   16  C2  UNL     1      27.994  -1.097  53.276  1.00  0.00     0.114 C 
HETATM   17  N1  UNL     1      28.357   0.300  53.237  1.00  0.00    -0.261 N 
HETATM   18  C21 UNL     1      27.378   1.401  53.219  1.00  0.00     0.052 C 
HETATM   19  C20 UNL     1      26.069   0.950  53.766  1.00  0.00     0.045 C 
HETATM   20  C22 UNL     1      27.315   1.993  51.843  1.00  0.00     0.041 C 
HETATM   21  C23 UNL     1      27.973   2.445  54.163  1.00  0.00     0.041 C 
BRANCH  17  22
HETATM   22  O1  UNL     1      29.681   0.520  53.218  1.00  0.00    -0.283 OA
HETATM   23  C1  UNL     1      30.320  -0.639  53.675  1.00  0.00     0.238 C 
ENDBRANCH  17  22
ENDBRANCH  11  13
ENDBRANCH   1  11
BRANCH   8  24
HETATM   24  N4  UNL     1      22.680   4.003  50.674  1.00  0.00    -0.335 N 
HETATM   25  C13 UNL     1      23.052   5.171  51.438  1.00  0.00     0.123 A 
HETATM   26  C14 UNL     1      24.097   5.969  51.160  1.00  0.00     0.063 A 
HETATM   27  C15 UNL     1      24.943   5.664  49.996  1.00  0.00     0.059 A 
HETATM   28 CL1  UNL     1      26.334   6.565  49.471  1.00  0.00    -0.082 Cl
HETATM   29  C16 UNL     1      24.555   4.588  49.333  1.00  0.00     0.019 A 
HETATM   30  C17 UNL     1      23.445   3.618  49.505  1.00  0.00     0.159 A 
BRANCH  26  31
HETATM   31  N5  UNL     1      24.499   7.123  51.882  1.00  0.00    -0.397 N 
HETATM   32  H13 UNL     1      24.388   8.068  51.446  1.00  0.00     0.156 HD
HETATM   33  H14 UNL     1      24.887   6.875  52.835  1.00  0.00     0.156 HD
ENDBRANCH  26  31
ENDBRANCH   8  24
TORSDOF 5
ENDMDL
MODEL 4
REMARK VINA RESULT:      -9.5      1.842      2.545
REMARK  5 active torsions:
REMARK  status: ('A' for Active; 'I' for Inactive)
REMARK    1  A    between atoms: O1_2  and  N1_3 
REMARK    2  A    between atoms: C5_7  and  C6_8 
REMARK    3  A    between atoms: C6_8  and  C7_10 
REMARK    4  A    between atoms: C12_17  and  N4_18 
REMARK    5  A    between atoms: C14_20  and  N5_21 
ROOT
HETATM    1  C7  UNL     1      22.190   1.563  50.608  1.00  0.00     0.011 A 
HETATM    2  C8  UNL     1      20.879   1.119  50.735  1.00  0.00     0.017 A 
HETATM    3  C9  UNL     1      20.461   0.289  51.754  1.00  0.00     0.033 A 
HETATM    4  C10 UNL     1      21.356  -0.142  52.714  1.00  0.00     0.072 A 
HETATM    5  N2  UNL     1      21.045  -0.953  53.733  1.00  0.00    -0.241 NA
HETATM    6  C11 UNL     1      21.994  -1.321  54.613  1.00  0.00     0.236 A 
HETATM    7  N3  UNL     1      23.280  -0.878  54.479  1.00  0.00    -0.223 NA
HETATM    8  C12 UNL     1      23.642  -0.055  53.460  1.00  0.00     0.143 A 
HETATM    9  C18 UNL     1      22.653   0.304  52.578  1.00  0.00     0.040 A 
HETATM   10  C19 UNL     1      23.079   1.132  51.564  1.00  0.00     0.032 A 
ENDROOT
BRANCH   1  11
HETATM   11  C6  UNL     1      22.640   2.438  49.528  1.00  0.00     0.164 C 
HETATM   12  O2  UNL     1      22.663   1.971  48.339  1.00  0.00    -0.292 OA
BRANCH  11  13
HETATM   13  C5  UNL     1      23.071   3.861  49.786  1.00  0.00     0.066 C 
HETATM   14  C4  UNL     1      21.956   4.740  49.361  1.00  0.00     0.041 C 
HETATM   15  C3  UNL     1      22.199   5.521  48.118  1.00  0.00    -0.007 C 
HETATM   16  C2  UNL     1      23.251   6.208  47.636  1.00  0.00     0.114 C 
HETATM   17  N1  UNL     1      24.521   6.346  48.309  1.00  0.00    -0.261 N 
HETATM   18  C21 UNL     1      25.035   5.382  49.298  1.00  0.00     0.052 C 
HETATM   19  C20 UNL     1      24.385   4.053  49.124  1.00  0.00     0.045 C 
HETATM   20  C22 UNL     1      24.917   5.965  50.674  1.00  0.00     0.041 C 
HETATM   21  C23 UNL     1      26.518   5.253  48.957  1.00  0.00     0.041 C 
BRANCH  17  22
HETATM   22  O1  UNL     1      25.209   7.443  47.956  1.00  0.00    -0.283 OA
HETATM   23  C1  UNL     1      24.332   8.533  47.979  1.00  0.00     0.238 C 
ENDBRANCH  17  22
ENDBRANCH  11  13
ENDBRANCH   1  11
BRANCH   8  24
HETATM   24  N4  UNL     1      25.012   0.303  53.526  1.00  0.00    -0.335 N 
HETATM   25  C13 UNL     1      25.787  -0.896  53.310  1.00  0.00     0.123 A 
HETATM   26  C14 UNL     1      27.131  -0.948  53.290  1.00  0.00     0.063 A 
HETATM   27  C15 UNL     1      27.899   0.287  53.504  1.00  0.00     0.059 A 
HETATM   28 CL1  UNL     1      29.631   0.431  53.513  1.00  0.00    -0.082 Cl
HETATM   29  C16 UNL     1      27.139   1.351  53.699  1.00  0.00     0.019 A 
HETATM   30  C17 UNL     1      25.673   1.573  53.752  1.00  0.00     0.159 A 
BRANCH  26  31
HETATM   31  N5  UNL     1      27.932  -2.101  53.082  1.00  0.00    -0.397 N 
HETATM   32  H13 UNL     1      27.487  -3.048  53.103  1.00  0.00     0.156 HD
HETATM   33  H14 UNL     1      28.947  -1.850  52.922  1.00  0.00     0.156 HD
ENDBRANCH  26  31
ENDBRANCH   8  24
TORSDOF 5
ENDMDL
MODEL 5
REMARK VINA RESULT:      -9.4      2.002      2.832
REMARK  5 active torsions:
REMARK  status: ('A' for Active; 'I' for Inactive)
REMARK    1  A    between atoms: O1_2  and  N1_3 
REMARK    2  A    between atoms: C5_7  and  C6_8 
REMARK    3  A    between atoms: C6_8  and  C7_10 
REMARK    4  A    between atoms: C12_17  and  N4_18 
REMARK    5  A    between atoms: C14_20  and  N5_21 
ROOT
HETATM    1  C7  UNL     1      22.646   1.987  51.011  1.00  0.00     0.011 A 
HETATM    2  C8  UNL     1      21.288   1.721  51.151  1.00  0.00     0.017 A 
HETATM    3  C9  UNL     1      20.785   0.850  52.094  1.00  0.00     0.033 A 
HETATM    4  C10 UNL     1      21.636   0.192  52.960  1.00  0.00     0.072 A 
HETATM    5  N2  UNL     1      21.241  -0.675  53.901  1.00  0.00    -0.241 NA
HETATM    6  C11 UNL     1      22.153  -1.270  54.692  1.00  0.00     0.236 A 
HETATM    7  N3  UNL     1      23.485  -1.001  54.548  1.00  0.00    -0.223 NA
HETATM    8  C12 UNL     1      23.931  -0.129  53.606  1.00  0.00     0.143 A 
HETATM    9  C18 UNL     1      22.979   0.463  52.813  1.00  0.00     0.040 A 
HETATM   10  C19 UNL     1      23.490   1.331  51.875  1.00  0.00     0.032 A 
ENDROOT
BRANCH   1  11
HETATM   11  C6  UNL     1      23.185   2.904  50.011  1.00  0.00     0.164 C 
HETATM   12  O2  UNL     1      23.220   2.522  48.793  1.00  0.00    -0.292 OA
BRANCH  11  13
HETATM   13  C5  UNL     1      23.694   4.276  50.384  1.00  0.00     0.066 C 
HETATM   14  C4  UNL     1      22.860   4.762  51.507  1.00  0.00     0.041 C 
HETATM   15  C3  UNL     1      21.913   5.859  51.168  1.00  0.00    -0.007 C 
HETATM   16  C2  UNL     1      22.006   6.979  50.428  1.00  0.00     0.114 C 
HETATM   17  N1  UNL     1      23.191   7.401  49.720  1.00  0.00    -0.261 N 
HETATM   18  C21 UNL     1      24.248   6.478  49.266  1.00  0.00     0.052 C 
HETATM   19  C20 UNL     1      23.718   5.092  49.145  1.00  0.00     0.045 C 
HETATM   20  C22 UNL     1      25.449   6.619  50.151  1.00  0.00     0.041 C 
HETATM   21  C23 UNL     1      24.615   6.988  47.873  1.00  0.00     0.041 C 
BRANCH  17  22
HETATM   22  O1  UNL     1      23.256   8.723  49.503  1.00  0.00    -0.283 OA
HETATM   23  C1  UNL     1      21.978   9.169  49.144  1.00  0.00     0.238 C 
ENDBRANCH  17  22
ENDBRANCH  11  13
ENDBRANCH   1  11
BRANCH   8  24
HETATM   24  N4  UNL     1      25.340   0.023  53.647  1.00  0.00    -0.335 N 
HETATM   25  C13 UNL     1      25.926  -1.247  53.286  1.00  0.00     0.123 A 
HETATM   26  C14 UNL     1      27.247  -1.487  53.204  1.00  0.00     0.063 A 
HETATM   27  C15 UNL     1      28.193  -0.401  53.500  1.00  0.00     0.059 A 
HETATM   28 CL1  UNL     1      29.927  -0.506  53.449  1.00  0.00    -0.082 Cl
HETATM   29  C16 UNL     1      27.602   0.735  53.827  1.00  0.00     0.019 A 
HETATM   30  C17 UNL     1      26.186   1.157  53.963  1.00  0.00     0.159 A 
BRANCH  26  31
HETATM   31  N5  UNL     1      27.865  -2.716  52.855  1.00  0.00    -0.397 N 
HETATM   32  H13 UNL     1      28.546  -3.156  53.515  1.00  0.00     0.156 HD
HETATM   33  H14 UNL     1      27.544  -3.062  51.907  1.00  0.00     0.156 HD
ENDBRANCH  26  31
ENDBRANCH   8  24
TORSDOF 5
ENDMDL
MODEL 6
REMARK VINA RESULT:      -9.4      3.789      7.181
REMARK  5 active torsions:
REMARK  status: ('A' for Active; 'I' for Inactive)
REMARK    1  A    between atoms: O1_2  and  N1_3 
REMARK    2  A    between atoms: C5_7  and  C6_8 
REMARK    3  A    between atoms: C6_8  and  C7_10 
REMARK    4  A    between atoms: C12_17  and  N4_18 
REMARK    5  A    between atoms: C14_20  and  N5_21 
ROOT
HETATM    1  C7  UNL     1      24.147  -0.154  53.734  1.00  0.00     0.011 A 
HETATM    2  C8  UNL     1      24.864  -0.712  54.787  1.00  0.00     0.017 A 
HETATM    3  C9  UNL     1      26.166  -0.362  55.080  1.00  0.00     0.033 A 
HETATM    4  C10 UNL     1      26.822   0.583  54.317  1.00  0.00     0.072 A 
HETATM    5  N2  UNL     1      28.085   0.980  54.521  1.00  0.00    -0.241 NA
HETATM    6  C11 UNL     1      28.637   1.905  53.715  1.00  0.00     0.236 A 
HETATM    7  N3  UNL     1      27.924   2.448  52.683  1.00  0.00    -0.223 NA
HETATM    8  C12 UNL     1      26.641   2.075  52.438  1.00  0.00     0.143 A 
HETATM    9  C18 UNL     1      26.103   1.129  53.276  1.00  0.00     0.040 A 
HETATM   10  C19 UNL     1      24.804   0.786  52.976  1.00  0.00     0.032 A 
ENDROOT
BRANCH   1  11
HETATM   11  C6  UNL     1      22.771  -0.524  53.415  1.00  0.00     0.164 C 
HETATM   12  O2  UNL     1      22.407  -1.733  53.610  1.00  0.00    -0.292 OA
BRANCH  11  13
HETATM   13  C5  UNL     1      21.785   0.480  52.869  1.00  0.00     0.066 C 
HETATM   14  C4  UNL     1      20.557   0.381  53.693  1.00  0.00     0.041 C 
HETATM   15  C3  UNL     1      19.387  -0.244  53.018  1.00  0.00    -0.007 C 
HETATM   16  C2  UNL     1      18.850  -0.138  51.788  1.00  0.00     0.114 C 
HETATM   17  N1  UNL     1      19.363   0.709  50.737  1.00  0.00    -0.261 N 
HETATM   18  C21 UNL     1      20.768   1.148  50.649  1.00  0.00     0.052 C 
HETATM   19  C20 UNL     1      21.655   0.227  51.413  1.00  0.00     0.045 C 
HETATM   20  C22 UNL     1      20.867   2.590  51.044  1.00  0.00     0.041 C 
HETATM   21  C23 UNL     1      21.102   1.033  49.163  1.00  0.00     0.041 C 
BRANCH  17  22
HETATM   22  O1  UNL     1      18.444   1.071  49.830  1.00  0.00    -0.283 OA
HETATM   23  C1  UNL     1      17.334   0.230  49.976  1.00  0.00     0.238 C 
ENDBRANCH  17  22
ENDBRANCH  11  13
ENDBRANCH   1  11
BRANCH   8  24
HETATM   24  N4  UNL     1      26.082   2.779  51.342  1.00  0.00    -0.335 N 
HETATM   25  C13 UNL     1      25.001   3.591  51.851  1.00  0.00     0.123 A 
HETATM   26  C14 UNL     1      24.240   4.411  51.105  1.00  0.00     0.063 A 
HETATM   27  C15 UNL     1      24.496   4.510  49.660  1.00  0.00     0.059 A 
HETATM   28 CL1  UNL     1      23.632   5.506  48.528  1.00  0.00    -0.082 Cl
HETATM   29  C16 UNL     1      25.493   3.744  49.250  1.00  0.00     0.019 A 
HETATM   30  C17 UNL     1      26.413   2.800  49.931  1.00  0.00     0.159 A 
BRANCH  26  31
HETATM   31  N5  UNL     1      23.170   5.224  51.561  1.00  0.00    -0.397 N 
HETATM   32  H13 UNL     1      23.294   5.801  52.423  1.00  0.00     0.156 HD
HETATM   33  H14 UNL     1      22.321   5.144  50.934  1.00  0.00     0.156 HD
ENDBRANCH  26  31
ENDBRANCH   8  24
TORSDOF 5
ENDMDL
MODEL 7
REMARK VINA RESULT:      -9.3      3.074      5.294
REMARK  5 active torsions:
REMARK  status: ('A' for Active; 'I' for Inactive)
REMARK    1  A    between atoms: O1_2  and  N1_3 
REMARK    2  A    between atoms: C5_7  and  C6_8 
REMARK    3  A    between atoms: C6_8  and  C7_10 
REMARK    4  A    between atoms: C12_17  and  N4_18 
REMARK    5  A    between atoms: C14_20  and  N5_21 
ROOT
HETATM    1  C7  UNL     1      25.921   1.425  52.669  1.00  0.00     0.011 A 
HETATM    2  C8  UNL     1      26.860   1.013  53.608  1.00  0.00     0.017 A 
HETATM    3  C9  UNL     1      26.569   0.126  54.624  1.00  0.00     0.033 A 
HETATM    4  C10 UNL     1      25.297  -0.400  54.748  1.00  0.00     0.072 A 
HETATM    5  N2  UNL     1      24.921  -1.259  55.703  1.00  0.00    -0.241 NA
HETATM    6  C11 UNL     1      23.653  -1.709  55.740  1.00  0.00     0.236 A 
HETATM    7  N3  UNL     1      22.738  -1.298  54.812  1.00  0.00    -0.223 NA
HETATM    8  C12 UNL     1      23.076  -0.427  53.825  1.00  0.00     0.143 A 
HETATM    9  C18 UNL     1      24.375   0.016  53.812  1.00  0.00     0.040 A 
HETATM   10  C19 UNL     1      24.657   0.900  52.795  1.00  0.00     0.032 A 
ENDROOT
BRANCH   1  11
HETATM   11  C6  UNL     1      26.221   2.368  51.594  1.00  0.00     0.164 C 
HETATM   12  O2  UNL     1      27.438   2.708  51.409  1.00  0.00    -0.292 OA
BRANCH  11  13
HETATM   13  C5  UNL     1      25.138   2.937  50.711  1.00  0.00     0.066 C 
HETATM   14  C4  UNL     1      25.801   3.494  49.509  1.00  0.00     0.041 C 
HETATM   15  C3  UNL     1      25.823   4.979  49.425  1.00  0.00    -0.007 C 
HETATM   16  C2  UNL     1      24.920   5.944  49.676  1.00  0.00     0.114 C 
HETATM   17  N1  UNL     1      23.572   5.709  50.138  1.00  0.00    -0.261 N 
HETATM   18  C21 UNL     1      23.159   4.506  50.884  1.00  0.00     0.052 C 
HETATM   19  C20 UNL     1      24.333   3.867  51.541  1.00  0.00     0.045 C 
HETATM   20  C22 UNL     1      22.372   3.604  49.983  1.00  0.00     0.041 C 
HETATM   21  C23 UNL     1      22.221   5.042  51.964  1.00  0.00     0.041 C 
BRANCH  17  22
HETATM   22  O1  UNL     1      22.710   6.689  49.828  1.00  0.00    -0.283 OA
HETATM   23  C1  UNL     1      23.351   7.915  50.041  1.00  0.00     0.238 C 
ENDBRANCH  17  22
ENDBRANCH  11  13
ENDBRANCH   1  11
BRANCH   8  24
HETATM   24  N4  UNL     1      21.986  -0.157  52.959  1.00  0.00    -0.335 N 
HETATM   25  C13 UNL     1      20.790  -0.661  53.592  1.00  0.00     0.123 A 
HETATM   26  C14 UNL     1      19.553  -0.576  53.073  1.00  0.00     0.063 A 
HETATM   27  C15 UNL     1      19.367   0.068  51.764  1.00  0.00     0.059 A 
HETATM   28 CL1  UNL     1      17.859   0.280  50.927  1.00  0.00    -0.082 Cl
HETATM   29  C16 UNL     1      20.494   0.507  51.230  1.00  0.00     0.019 A 
HETATM   30  C17 UNL     1      21.913   0.490  51.664  1.00  0.00     0.159 A 
BRANCH  26  31
HETATM   31  N5  UNL     1      18.352  -1.055  53.658  1.00  0.00    -0.397 N 
HETATM   32  H13 UNL     1      17.462  -1.021  53.110  1.00  0.00     0.156 HD
HETATM   33  H14 UNL     1      18.511  -1.413  54.642  1.00  0.00     0.156 HD
ENDBRANCH  26  31
ENDBRANCH   8  24
TORSDOF 5
ENDMDL
MODEL 8
REMARK VINA RESULT:      -9.2      3.143      5.248
REMARK  5 active torsions:
REMARK  status: ('A' for Active; 'I' for Inactive)
REMARK    1  A    between atoms: O1_2  and  N1_3 
REMARK    2  A    between atoms: C5_7  and  C6_8 
REMARK    3  A    between atoms: C6_8  and  C7_10 
REMARK    4  A    between atoms: C12_17  and  N4_18 
REMARK    5  A    between atoms: C14_20  and  N5_21 
ROOT
HETATM    1  C7  UNL     1      25.205   1.393  52.212  1.00  0.00     0.011 A 
HETATM    2  C8  UNL     1      25.764   0.369  52.969  1.00  0.00     0.017 A 
HETATM    3  C9  UNL     1      25.014  -0.482  53.753  1.00  0.00     0.033 A 
HETATM    4  C10 UNL     1      23.641  -0.345  53.815  1.00  0.00     0.072 A 
HETATM    5  N2  UNL     1      22.834  -1.118  54.553  1.00  0.00    -0.241 NA
HETATM    6  C11 UNL     1      21.506  -0.898  54.549  1.00  0.00     0.236 A 
HETATM    7  N3  UNL     1      20.967   0.110  53.801  1.00  0.00    -0.223 NA
HETATM    8  C12 UNL     1      21.748   0.920  53.039  1.00  0.00     0.143 A 
HETATM    9  C18 UNL     1      23.099   0.672  53.061  1.00  0.00     0.040 A 
HETATM   10  C19 UNL     1      23.839   1.527  52.276  1.00  0.00     0.032 A 
ENDROOT
BRANCH   1  11
HETATM   11  C6  UNL     1      25.994   2.301  51.384  1.00  0.00     0.164 C 
HETATM   12  O2  UNL     1      27.240   2.425  51.637  1.00  0.00    -0.292 OA
BRANCH  11  13
HETATM   13  C5  UNL     1      25.375   3.084  50.251  1.00  0.00     0.066 C 
HETATM   14  C4  UNL     1      26.437   3.306  49.241  1.00  0.00     0.041 C 
HETATM   15  C3  UNL     1      26.938   4.704  49.142  1.00  0.00    -0.007 C 
HETATM   16  C2  UNL     1      26.345   5.912  49.147  1.00  0.00     0.114 C 
HETATM   17  N1  UNL     1      24.923   6.130  49.264  1.00  0.00    -0.261 N 
HETATM   18  C21 UNL     1      23.997   5.178  49.903  1.00  0.00     0.052 C 
HETATM   19  C20 UNL     1      24.729   4.282  50.841  1.00  0.00     0.045 C 
HETATM   20  C22 UNL     1      23.199   4.471  48.850  1.00  0.00     0.041 C 
HETATM   21  C23 UNL     1      23.049   6.065  50.709  1.00  0.00     0.041 C 
BRANCH  17  22
HETATM   22  O1  UNL     1      24.503   7.290  48.735  1.00  0.00    -0.283 OA
HETATM   23  C1  UNL     1      25.144   7.463  47.503  1.00  0.00     0.238 C 
ENDBRANCH  17  22
ENDBRANCH  11  13
ENDBRANCH   1  11
BRANCH   8  24
HETATM   24  N4  UNL     1      20.984   1.878  52.326  1.00  0.00    -0.335 N 
HETATM   25  C13 UNL     1      20.239   1.173  51.309  1.00  0.00     0.123 A 
HETATM   26  C14 UNL     1      19.391   1.750  50.440  1.00  0.00     0.063 A 
HETATM   27  C15 UNL     1      19.184   3.205  50.499  1.00  0.00     0.059 A 
HETATM   28 CL1  UNL     1      18.135   4.136  49.473  1.00  0.00    -0.082 Cl
HETATM   29  C16 UNL     1      19.892   3.798  51.444  1.00  0.00     0.019 A 
HETATM   30  C17 UNL     1      20.856   3.315  52.464  1.00  0.00     0.159 A 
BRANCH  26  31
HETATM   31  N5  UNL     1      18.640   1.098  49.427  1.00  0.00    -0.397 N 
HETATM   32  H13 UNL     1      18.987   1.111  48.441  1.00  0.00     0.156 HD
HETATM   33  H14 UNL     1      17.764   0.648  49.815  1.00  0.00     0.156 HD
ENDBRANCH  26  31
ENDBRANCH   8  24
TORSDOF 5
ENDMDL
MODEL 9
REMARK VINA RESULT:      -9.2      2.445      3.390
REMARK  5 active torsions:
REMARK  status: ('A' for Active; 'I' for Inactive)
REMARK    1  A    between atoms: O1_2  and  N1_3 
REMARK    2  A    between atoms: C5_7  and  C6_8 
REMARK    3  A    between atoms: C6_8  and  C7_10 
REMARK    4  A    between atoms: C12_17  and  N4_18 
REMARK    5  A    between atoms: C14_20  and  N5_21 
ROOT
HETATM    1  C7  UNL     1      21.522   1.353  49.904  1.00  0.00     0.011 A 
HETATM    2  C8  UNL     1      20.189   0.989  50.059  1.00  0.00     0.017 A 
HETATM    3  C9  UNL     1      19.690   0.439  51.221  1.00  0.00     0.033 A 
HETATM    4  C10 UNL     1      20.520   0.226  52.305  1.00  0.00     0.072 A 
HETATM    5  N2  UNL     1      20.127  -0.308  53.469  1.00  0.00    -0.241 NA
HETATM    6  C11 UNL     1      21.017  -0.480  54.463  1.00  0.00     0.236 A 
HETATM    7  N3  UNL     1      22.325  -0.118  54.301  1.00  0.00    -0.223 NA
HETATM    8  C12 UNL     1      22.768   0.426  53.137  1.00  0.00     0.143 A 
HETATM    9  C18 UNL     1      21.838   0.591  52.140  1.00  0.00     0.040 A 
HETATM   10  C19 UNL     1      22.345   1.140  50.984  1.00  0.00     0.032 A 
ENDROOT
BRANCH   1  11
HETATM   11  C6  UNL     1      22.059   1.931  48.675  1.00  0.00     0.164 C 
HETATM   12  O2  UNL     1      22.202   1.169  47.659  1.00  0.00    -0.292 OA
BRANCH  11  13
HETATM   13  C5  UNL     1      22.439   3.388  48.582  1.00  0.00     0.066 C 
HETATM   14  C4  UNL     1      23.855   3.499  49.005  1.00  0.00     0.041 C 
HETATM   15  C3  UNL     1      24.075   4.140  50.330  1.00  0.00    -0.007 C 
HETATM   16  C2  UNL     1      23.549   5.213  50.948  1.00  0.00     0.114 C 
HETATM   17  N1  UNL     1      22.535   6.072  50.384  1.00  0.00    -0.261 N 
HETATM   18  C21 UNL     1      21.578   5.642  49.349  1.00  0.00     0.052 C 
HETATM   19  C20 UNL     1      21.432   4.159  49.351  1.00  0.00     0.045 C 
HETATM   20  C22 UNL     1      21.969   6.233  48.028  1.00  0.00     0.041 C 
HETATM   21  C23 UNL     1      20.253   6.267  49.782  1.00  0.00     0.041 C 
BRANCH  17  22
HETATM   22  O1  UNL     1      22.532   7.317  50.886  1.00  0.00    -0.283 OA
HETATM   23  C1  UNL     1      23.838   7.817  50.815  1.00  0.00     0.238 C 
ENDBRANCH  17  22
ENDBRANCH  11  13
ENDBRANCH   1  11
BRANCH   8  24
HETATM   24  N4  UNL     1      24.146   0.752  53.194  1.00  0.00    -0.335 N 
HETATM   25  C13 UNL     1      24.888  -0.487  53.192  1.00  0.00     0.123 A 
HETATM   26  C14 UNL     1      26.229  -0.579  53.226  1.00  0.00     0.063 A 
HETATM   27  C15 UNL     1      27.031   0.653  53.271  1.00  0.00     0.059 A 
HETATM   28 CL1  UNL     1      28.766   0.748  53.317  1.00  0.00    -0.082 Cl
HETATM   29  C16 UNL     1      26.301   1.755  53.274  1.00  0.00     0.019 A 
HETATM   30  C17 UNL     1      24.842   2.023  53.242  1.00  0.00     0.159 A 
BRANCH  26  31
HETATM   31  N5  UNL     1      26.998  -1.772  53.226  1.00  0.00    -0.397 N 
HETATM   32  H13 UNL     1      26.513  -2.697  53.273  1.00  0.00     0.156 HD
HETATM   33  H14 UNL     1      28.036  -1.571  53.175  1.00  0.00     0.156 HD
ENDBRANCH  26  31
ENDBRANCH   8  24
TORSDOF 5
ENDMDL
