MODEL 1
REMARK VINA RESULT:      -9.2      0.000      0.000
REMARK  1 active torsions:
REMARK  status: ('A' for Active; 'I' for Inactive)
REMARK    1  A    between atoms: O1_2  and  C2_3 
ROOT
HETATM    1  C2  UNL     1      23.958   2.920  50.349  1.00  0.00     0.066 C 
HETATM    2  C3  UNL     1      23.254   1.892  50.737  1.00  0.00     0.012 C 
HETATM    3  C4  UNL     1      22.790   2.053  52.105  1.00  0.00     0.069 C 
HETATM    4  C5  UNL     1      22.753   0.921  53.012  1.00  0.00    -0.042 A 
HETATM    5  C6  UNL     1      21.402   0.726  53.402  1.00  0.00     0.008 A 
HETATM    6  C7  UNL     1      20.670  -0.159  54.283  1.00  0.00     0.001 A 
HETATM    7  C8  UNL     1      21.663  -1.030  54.866  1.00  0.00     0.001 A 
HETATM    8  C9  UNL     1      23.080  -1.024  54.615  1.00  0.00     0.014 A 
HETATM    9  C10 UNL     1      23.298  -0.066  53.759  1.00  0.00    -0.001 A 
HETATM   10  C11 UNL     1      24.726  -0.357  53.537  1.00  0.00     0.074 A 
HETATM   11  C12 UNL     1      25.756   0.456  52.949  1.00  0.00     0.064 A 
HETATM   12  C13 UNL     1      26.835   1.066  52.423  1.00  0.00     0.065 A 
HETATM   13  N1  UNL     1      27.487  -0.067  52.646  1.00  0.00    -0.207 NA
HETATM   14  C14 UNL     1      26.948  -1.163  53.196  1.00  0.00     0.269 A 
HETATM   15  O2  UNL     1      28.008  -1.956  53.167  1.00  0.00    -0.324 OA
HETATM   16  C15 UNL     1      28.990  -2.770  53.168  1.00  0.00     0.213 C 
HETATM   17  N2  UNL     1      25.673  -1.334  53.625  1.00  0.00    -0.206 NA
HETATM   18  C16 UNL     1      26.771   2.417  52.053  1.00  0.00     0.056 C 
HETATM   19  C17 UNL     1      26.405   3.044  51.019  1.00  0.00     0.137 C 
HETATM   20  O3  UNL     1      26.047   3.831  49.990  1.00  0.00    -0.357 OA
HETATM   21  C18 UNL     1      24.779   3.620  49.322  1.00  0.00     0.238 C 
ENDROOT
BRANCH   1  22
HETATM   22  O1  UNL     1      24.001   3.861  51.405  1.00  0.00    -0.358 OA
HETATM   23  C1  UNL     1      23.381   5.116  51.282  1.00  0.00     0.209 C 
ENDBRANCH   1  22
TORSDOF 1
ENDMDL
MODEL 2
REMARK VINA RESULT:      -9.0      2.159      5.087
REMARK  1 active torsions:
REMARK  status: ('A' for Active; 'I' for Inactive)
REMARK    1  A    between atoms: O1_2  and  C2_3 
ROOT
HETATM    1  C2  UNL     1      27.065   0.634  54.187  1.00  0.00     0.066 C 
HETATM    2  C3  UNL     1      25.881   0.509  54.720  1.00  0.00     0.012 C 
HETATM    3  C4  UNL     1      25.078  -0.470  54.005  1.00  0.00     0.069 C 
HETATM    4  C5  UNL     1      23.659  -0.251  53.794  1.00  0.00    -0.042 A 
HETATM    5  C6  UNL     1      22.960  -1.305  54.441  1.00  0.00     0.008 A 
HETATM    6  C7  UNL     1      21.585  -1.725  54.599  1.00  0.00     0.001 A 
HETATM    7  C8  UNL     1      20.800  -0.753  53.874  1.00  0.00     0.001 A 
HETATM    8  C9  UNL     1      21.285   0.395  53.155  1.00  0.00     0.014 A 
HETATM    9  C10 UNL     1      22.583   0.385  53.278  1.00  0.00    -0.001 A 
HETATM   10  C11 UNL     1      22.826   1.689  52.636  1.00  0.00     0.074 A 
HETATM   11  C12 UNL     1      24.042   2.251  52.113  1.00  0.00     0.064 A 
HETATM   12  C13 UNL     1      25.076   2.934  51.586  1.00  0.00     0.065 A 
HETATM   13  N1  UNL     1      24.225   3.938  51.417  1.00  0.00    -0.207 NA
HETATM   14  C14 UNL     1      22.930   3.907  51.757  1.00  0.00     0.269 A 
HETATM   15  O2  UNL     1      22.587   5.132  51.388  1.00  0.00    -0.324 OA
HETATM   16  C15 UNL     1      22.192   6.297  51.055  1.00  0.00     0.213 C 
HETATM   17  N2  UNL     1      22.246   2.882  52.321  1.00  0.00    -0.206 NA
HETATM   18  C16 UNL     1      26.318   2.308  51.411  1.00  0.00     0.056 C 
HETATM   19  C17 UNL     1      27.331   2.113  52.139  1.00  0.00     0.137 C 
HETATM   20  O3  UNL     1      28.467   1.837  52.805  1.00  0.00    -0.357 OA
HETATM   21  C18 UNL     1      28.408   1.278  54.139  1.00  0.00     0.238 C 
ENDROOT
BRANCH   1  22
HETATM   22  O1  UNL     1      27.166  -0.264  53.098  1.00  0.00    -0.358 OA
HETATM   23  C1  UNL     1      28.109  -1.305  53.102  1.00  0.00     0.209 C 
ENDBRANCH   1  22
TORSDOF 1
ENDMDL
MODEL 3
REMARK VINA RESULT:      -8.5      1.474      1.583
REMARK  1 active torsions:
REMARK  status: ('A' for Active; 'I' for Inactive)
REMARK    1  A    between atoms: O1_2  and  C2_3 
ROOT
HETATM    1  C2  UNL     1      22.432   2.370  49.495  1.00  0.00     0.066 C 
HETATM    2  C3  UNL     1      22.048   1.232  50.006  1.00  0.00     0.012 C 
HETATM    3  C4  UNL     1      21.456   1.415  51.322  1.00  0.00     0.069 C 
HETATM    4  C5  UNL     1      21.699   0.454  52.382  1.00  0.00    -0.042 A 
HETATM    5  C6  UNL     1      20.446  -0.101  52.754  1.00  0.00     0.008 A 
HETATM    6  C7  UNL     1      19.955  -1.048  53.731  1.00  0.00     0.001 A 
HETATM    7  C8  UNL     1      21.120  -1.484  54.465  1.00  0.00     0.001 A 
HETATM    8  C9  UNL     1      22.483  -1.069  54.260  1.00  0.00     0.014 A 
HETATM    9  C10 UNL     1      22.462  -0.209  53.280  1.00  0.00    -0.001 A 
HETATM   10  C11 UNL     1      23.922  -0.066  53.147  1.00  0.00     0.074 A 
HETATM   11  C12 UNL     1      24.696   0.945  52.479  1.00  0.00     0.064 A 
HETATM   12  C13 UNL     1      25.575   1.788  51.904  1.00  0.00     0.065 A 
HETATM   13  N1  UNL     1      26.522   0.953  52.309  1.00  0.00    -0.207 NA
HETATM   14  C14 UNL     1      26.303  -0.176  52.995  1.00  0.00     0.269 A 
HETATM   15  O2  UNL     1      27.553  -0.595  53.114  1.00  0.00    -0.324 OA
HETATM   16  C15 UNL     1      28.734  -1.055  53.263  1.00  0.00     0.213 C 
HETATM   17  N2  UNL     1      25.113  -0.679  53.404  1.00  0.00    -0.206 NA
HETATM   18  C16 UNL     1      25.130   2.992  51.339  1.00  0.00     0.056 C 
HETATM   19  C17 UNL     1      24.668   3.336  50.215  1.00  0.00     0.137 C 
HETATM   20  O3  UNL     1      24.165   3.833  49.072  1.00  0.00    -0.357 OA
HETATM   21  C18 UNL     1      23.075   3.153  48.403  1.00  0.00     0.238 C 
ENDROOT
BRANCH   1  22
HETATM   22  O1  UNL     1      22.107   3.405  50.404  1.00  0.00    -0.358 OA
HETATM   23  C1  UNL     1      21.153   4.382  50.078  1.00  0.00     0.209 C 
ENDBRANCH   1  22
TORSDOF 1
ENDMDL
MODEL 4
REMARK VINA RESULT:      -8.3      2.494      6.247
REMARK  1 active torsions:
REMARK  status: ('A' for Active; 'I' for Inactive)
REMARK    1  A    between atoms: O1_2  and  C2_3 
ROOT
HETATM    1  C2  UNL     1      26.890  -0.095  52.349  1.00  0.00     0.066 C 
HETATM    2  C3  UNL     1      26.723   0.565  51.236  1.00  0.00     0.012 C 
HETATM    3  C4  UNL     1      26.682   1.999  51.472  1.00  0.00     0.069 C 
HETATM    4  C5  UNL     1      25.770   2.846  50.727  1.00  0.00    -0.042 A 
HETATM    5  C6  UNL     1      26.550   3.777  49.991  1.00  0.00     0.008 A 
HETATM    6  C7  UNL     1      26.309   4.894  49.104  1.00  0.00     0.001 A 
HETATM    7  C8  UNL     1      24.873   5.007  49.007  1.00  0.00     0.001 A 
HETATM    8  C9  UNL     1      23.890   4.175  49.650  1.00  0.00     0.014 A 
HETATM    9  C10 UNL     1      24.552   3.299  50.352  1.00  0.00    -0.001 A 
HETATM   10  C11 UNL     1      23.387   2.492  50.759  1.00  0.00     0.074 A 
HETATM   11  C12 UNL     1      23.260   1.513  51.805  1.00  0.00     0.064 A 
HETATM   12  C13 UNL     1      22.962   0.571  52.721  1.00  0.00     0.065 A 
HETATM   13  N1  UNL     1      21.767   0.506  52.149  1.00  0.00    -0.207 NA
HETATM   14  C14 UNL     1      21.380   1.245  51.100  1.00  0.00     0.269 A 
HETATM   15  O2  UNL     1      20.151   0.773  50.954  1.00  0.00    -0.324 OA
HETATM   16  C15 UNL     1      18.959   0.363  50.759  1.00  0.00     0.213 C 
HETATM   17  N2  UNL     1      22.102   2.177  50.432  1.00  0.00    -0.206 NA
HETATM   18  C16 UNL     1      23.883   0.251  53.728  1.00  0.00     0.056 C 
HETATM   19  C17 UNL     1      24.868  -0.534  53.822  1.00  0.00     0.137 C 
HETATM   20  O3  UNL     1      25.933  -1.320  54.055  1.00  0.00    -0.357 OA
HETATM   21  C18 UNL     1      27.013  -1.382  53.091  1.00  0.00     0.238 C 
ENDROOT
BRANCH   1  22
HETATM   22  O1  UNL     1      27.004   0.832  53.411  1.00  0.00    -0.358 OA
HETATM   23  C1  UNL     1      28.205   0.971  54.127  1.00  0.00     0.209 C 
ENDBRANCH   1  22
TORSDOF 1
ENDMDL
MODEL 5
REMARK VINA RESULT:      -8.1      3.252      6.142
REMARK  1 active torsions:
REMARK  status: ('A' for Active; 'I' for Inactive)
REMARK    1  A    between atoms: O1_2  and  C2_3 
ROOT
HETATM    1  C2  UNL     1      20.202   0.408  51.217  1.00  0.00     0.066 C 
HETATM    2  C3  UNL     1      21.495   0.232  51.208  1.00  0.00     0.012 C 
HETATM    3  C4  UNL     1      22.028   0.143  52.558  1.00  0.00     0.069 C 
HETATM    4  C5  UNL     1      23.304   0.747  52.890  1.00  0.00    -0.042 A 
HETATM    5  C6  UNL     1      24.174  -0.292  53.316  1.00  0.00     0.008 A 
HETATM    6  C7  UNL     1      25.528  -0.403  53.813  1.00  0.00     0.001 A 
HETATM    7  C8  UNL     1      26.039   0.948  53.846  1.00  0.00     0.001 A 
HETATM    8  C9  UNL     1      25.347   2.149  53.457  1.00  0.00     0.014 A 
HETATM    9  C10 UNL     1      24.157   1.780  53.074  1.00  0.00    -0.001 A 
HETATM   10  C11 UNL     1      23.721   3.100  52.583  1.00  0.00     0.074 A 
HETATM   11  C12 UNL     1      22.400   3.585  52.283  1.00  0.00     0.064 A 
HETATM   12  C13 UNL     1      21.251   4.201  51.946  1.00  0.00     0.065 A 
HETATM   13  N1  UNL     1      22.002   5.233  51.585  1.00  0.00    -0.207 NA
HETATM   14  C14 UNL     1      23.338   5.274  51.673  1.00  0.00     0.269 A 
HETATM   15  O2  UNL     1      23.543   6.487  51.183  1.00  0.00    -0.324 OA
HETATM   16  C15 UNL     1      23.809   7.645  50.721  1.00  0.00     0.213 C 
HETATM   17  N2  UNL     1      24.168   4.306  52.133  1.00  0.00    -0.206 NA
HETATM   18  C16 UNL     1      20.019   3.581  52.199  1.00  0.00     0.056 C 
HETATM   19  C17 UNL     1      19.292   2.751  51.584  1.00  0.00     0.137 C 
HETATM   20  O3  UNL     1      18.430   1.875  51.040  1.00  0.00    -0.357 OA
HETATM   21  C18 UNL     1      18.914   0.622  50.499  1.00  0.00     0.238 C 
ENDROOT
BRANCH   1  22
HETATM   22  O1  UNL     1      19.759   0.422  52.561  1.00  0.00    -0.358 OA
HETATM   23  C1  UNL     1      18.919  -0.589  53.058  1.00  0.00     0.209 C 
ENDBRANCH   1  22
TORSDOF 1
ENDMDL
MODEL 6
REMARK VINA RESULT:      -7.9      2.804      4.779
REMARK  1 active torsions:
REMARK  status: ('A' for Active; 'I' for Inactive)
REMARK    1  A    between atoms: O1_2  and  C2_3 
ROOT
HETATM    1  C2  UNL     1      21.307   2.216  50.139  1.00  0.00     0.066 C 
HETATM    2  C3  UNL     1      22.210   1.315  50.414  1.00  0.00     0.012 C 
HETATM    3  C4  UNL     1      22.626   1.390  51.806  1.00  0.00     0.069 C 
HETATM    4  C5  UNL     1      24.014   1.183  52.175  1.00  0.00    -0.042 A 
HETATM    5  C6  UNL     1      24.067   0.052  53.032  1.00  0.00     0.008 A 
HETATM    6  C7  UNL     1      25.078  -0.667  53.777  1.00  0.00     0.001 A 
HETATM    7  C8  UNL     1      26.317   0.025  53.510  1.00  0.00     0.001 A 
HETATM    8  C9  UNL     1      26.506   1.180  52.672  1.00  0.00     0.014 A 
HETATM    9  C10 UNL     1      25.331   1.490  52.203  1.00  0.00    -0.001 A 
HETATM   10  C11 UNL     1      25.788   2.545  51.281  1.00  0.00     0.074 A 
HETATM   11  C12 UNL     1      25.044   3.583  50.620  1.00  0.00     0.064 A 
HETATM   12  C13 UNL     1      24.513   4.602  49.917  1.00  0.00     0.065 A 
HETATM   13  N1  UNL     1      25.727   4.784  49.415  1.00  0.00    -0.207 NA
HETATM   14  C14 UNL     1      26.802   4.048  49.727  1.00  0.00     0.269 A 
HETATM   15  O2  UNL     1      27.696   4.644  48.953  1.00  0.00    -0.324 OA
HETATM   16  C15 UNL     1      28.605   5.173  48.232  1.00  0.00     0.213 C 
HETATM   17  N2  UNL     1      26.869   3.005  50.590  1.00  0.00    -0.206 NA
HETATM   18  C16 UNL     1      23.174   4.970  50.111  1.00  0.00     0.056 C 
HETATM   19  C17 UNL     1      22.065   4.589  49.641  1.00  0.00     0.137 C 
HETATM   20  O3  UNL     1      20.824   4.280  49.227  1.00  0.00    -0.357 OA
HETATM   21  C18 UNL     1      20.403   2.896  49.169  1.00  0.00     0.238 C 
ENDROOT
BRANCH   1  22
HETATM   22  O1  UNL     1      21.023   2.945  51.317  1.00  0.00    -0.358 OA
HETATM   23  C1  UNL     1      19.760   2.874  51.927  1.00  0.00     0.209 C 
ENDBRANCH   1  22
TORSDOF 1
ENDMDL
MODEL 7
REMARK VINA RESULT:      -7.9      2.587      5.600
REMARK  1 active torsions:
REMARK  status: ('A' for Active; 'I' for Inactive)
REMARK    1  A    between atoms: O1_2  and  C2_3 
ROOT
HETATM    1  C2  UNL     1      26.112   0.528  52.320  1.00  0.00     0.066 C 
HETATM    2  C3  UNL     1      25.334   1.274  51.586  1.00  0.00     0.012 C 
HETATM    3  C4  UNL     1      24.981   2.507  52.271  1.00  0.00     0.069 C 
HETATM    4  C5  UNL     1      23.647   3.064  52.153  1.00  0.00    -0.042 A 
HETATM    5  C6  UNL     1      23.766   4.347  51.555  1.00  0.00     0.008 A 
HETATM    6  C7  UNL     1      22.883   5.433  51.192  1.00  0.00     0.001 A 
HETATM    7  C8  UNL     1      21.560   5.000  51.578  1.00  0.00     0.001 A 
HETATM    8  C9  UNL     1      21.199   3.747  52.188  1.00  0.00     0.014 A 
HETATM    9  C10 UNL     1      22.306   3.076  52.333  1.00  0.00    -0.001 A 
HETATM   10  C11 UNL     1      21.685   1.821  52.794  1.00  0.00     0.074 A 
HETATM   11  C12 UNL     1      22.272   0.687  53.455  1.00  0.00     0.064 A 
HETATM   12  C13 UNL     1      22.647  -0.455  54.064  1.00  0.00     0.065 A 
HETATM   13  N1  UNL     1      21.397  -0.863  53.895  1.00  0.00    -0.207 NA
HETATM   14  C14 UNL     1      20.430  -0.143  53.309  1.00  0.00     0.269 A 
HETATM   15  O2  UNL     1      19.436  -1.014  53.401  1.00  0.00    -0.324 OA
HETATM   16  C15 UNL     1      18.437  -1.805  53.458  1.00  0.00     0.213 C 
HETATM   17  N2  UNL     1      20.526   1.105  52.790  1.00  0.00    -0.206 NA
HETATM   18  C16 UNL     1      23.943  -0.583  54.584  1.00  0.00     0.056 C 
HETATM   19  C17 UNL     1      25.063  -0.931  54.116  1.00  0.00     0.137 C 
HETATM   20  O3  UNL     1      26.309  -1.275  53.747  1.00  0.00    -0.357 OA
HETATM   21  C18 UNL     1      26.884  -0.729  52.534  1.00  0.00     0.238 C 
ENDROOT
BRANCH   1  22
HETATM   22  O1  UNL     1      26.369   1.204  53.536  1.00  0.00    -0.358 OA
HETATM   23  C1  UNL     1      27.650   1.699  53.834  1.00  0.00     0.209 C 
ENDBRANCH   1  22
TORSDOF 1
ENDMDL
MODEL 8
REMARK VINA RESULT:      -7.8      3.234      5.397
REMARK  1 active torsions:
REMARK  status: ('A' for Active; 'I' for Inactive)
REMARK    1  A    between atoms: O1_2  and  C2_3 
ROOT
HETATM    1  C2  UNL     1      24.289   3.369  51.567  1.00  0.00     0.066 C 
HETATM    2  C3  UNL     1      23.693   2.810  52.585  1.00  0.00     0.012 C 
HETATM    3  C4  UNL     1      23.998   1.391  52.663  1.00  0.00     0.069 C 
HETATM    4  C5  UNL     1      22.978   0.436  53.056  1.00  0.00    -0.042 A 
HETATM    5  C6  UNL     1      23.420  -0.199  54.247  1.00  0.00     0.008 A 
HETATM    6  C7  UNL     1      22.944  -1.240  55.133  1.00  0.00     0.001 A 
HETATM    7  C8  UNL     1      21.689  -1.679  54.571  1.00  0.00     0.001 A 
HETATM    8  C9  UNL     1      21.043  -1.179  53.386  1.00  0.00     0.014 A 
HETATM    9  C10 UNL     1      21.822  -0.250  52.907  1.00  0.00    -0.001 A 
HETATM   10  C11 UNL     1      20.909   0.209  51.846  1.00  0.00     0.074 A 
HETATM   11  C12 UNL     1      21.171   1.012  50.682  1.00  0.00     0.064 A 
HETATM   12  C13 UNL     1      21.228   1.753  49.559  1.00  0.00     0.065 A 
HETATM   13  N1  UNL     1      19.914   1.593  49.480  1.00  0.00    -0.207 NA
HETATM   14  C14 UNL     1      19.175   0.901  50.357  1.00  0.00     0.269 A 
HETATM   15  O2  UNL     1      17.981   1.080  49.812  1.00  0.00    -0.324 OA
HETATM   16  C15 UNL     1      16.804   1.213  49.339  1.00  0.00     0.213 C 
HETATM   17  N2  UNL     1      19.601   0.243  51.463  1.00  0.00    -0.206 NA
HETATM   18  C16 UNL     1      22.467   2.173  49.054  1.00  0.00     0.056 C 
HETATM   19  C17 UNL     1      23.233   3.155  49.267  1.00  0.00     0.137 C 
HETATM   20  O3  UNL     1      24.136   4.142  49.399  1.00  0.00    -0.357 OA
HETATM   21  C18 UNL     1      24.566   4.561  50.717  1.00  0.00     0.238 C 
ENDROOT
BRANCH   1  22
HETATM   22  O1  UNL     1      25.060   2.387  50.901  1.00  0.00    -0.358 OA
HETATM   23  C1  UNL     1      26.463   2.449  50.894  1.00  0.00     0.209 C 
ENDBRANCH   1  22
TORSDOF 1
ENDMDL
MODEL 9
REMARK VINA RESULT:      -7.8      2.939      5.136
REMARK  1 active torsions:
REMARK  status: ('A' for Active; 'I' for Inactive)
REMARK    1  A    between atoms: O1_2  and  C2_3 
ROOT
HETATM    1  C2  UNL     1      22.934   4.826  51.705  1.00  0.00     0.066 C 
HETATM    2  C3  UNL     1      23.394   4.155  52.725  1.00  0.00     0.012 C 
HETATM    3  C4  UNL     1      24.356   3.148  52.306  1.00  0.00     0.069 C 
HETATM    4  C5  UNL     1      24.390   1.846  52.944  1.00  0.00    -0.042 A 
HETATM    5  C6  UNL     1      25.667   1.694  53.545  1.00  0.00     0.008 A 
HETATM    6  C7  UNL     1      26.377   0.671  54.283  1.00  0.00     0.001 A 
HETATM    7  C8  UNL     1      25.460  -0.441  54.379  1.00  0.00     0.001 A 
HETATM    8  C9  UNL     1      24.120  -0.511  53.858  1.00  0.00     0.014 A 
HETATM    9  C10 UNL     1      23.894   0.630  53.269  1.00  0.00    -0.001 A 
HETATM   10  C11 UNL     1      22.469   0.393  52.981  1.00  0.00     0.074 A 
HETATM   11  C12 UNL     1      21.584   1.071  52.071  1.00  0.00     0.064 A 
HETATM   12  C13 UNL     1      20.618   1.589  51.288  1.00  0.00     0.065 A 
HETATM   13  N1  UNL     1      19.792   0.733  51.875  1.00  0.00    -0.207 NA
HETATM   14  C14 UNL     1      20.147  -0.144  52.824  1.00  0.00     0.269 A 
HETATM   15  O2  UNL     1      18.968  -0.706  53.041  1.00  0.00    -0.324 OA
HETATM   16  C15 UNL     1      17.863  -1.289  53.299  1.00  0.00     0.213 C 
HETATM   17  N2  UNL     1      21.378  -0.333  53.358  1.00  0.00    -0.206 NA
HETATM   18  C16 UNL     1      20.937   2.553  50.322  1.00  0.00     0.056 C 
HETATM   19  C17 UNL     1      21.062   3.810  50.320  1.00  0.00     0.137 C 
HETATM   20  O3  UNL     1      21.229   5.137  50.182  1.00  0.00    -0.357 OA
HETATM   21  C18 UNL     1      22.036   5.870  51.134  1.00  0.00     0.238 C 
ENDROOT
BRANCH   1  22
HETATM   22  O1  UNL     1      23.564   4.352  50.531  1.00  0.00    -0.358 OA
HETATM   23  C1  UNL     1      24.445   5.167  49.801  1.00  0.00     0.209 C 
ENDBRANCH   1  22
TORSDOF 1
ENDMDL
