MODEL 1
REMARK VINA RESULT:      -8.3      0.000      0.000
REMARK  4 active torsions:
REMARK  status: ('A' for Active; 'I' for Inactive)
REMARK    1  A    between atoms: C4_4  and  C5_5 
REMARK    2  A    between atoms: C6_8  and  S1_9 
REMARK    3  A    between atoms: S1_9  and  C7_10 
REMARK    4  A    between atoms: C7_10  and  C8_11 
ROOT
HETATM    1  C5  UNL     1      25.587  -0.497  53.792  1.00  0.00     0.184 A 
HETATM    2  N1  UNL     1      25.829  -0.876  55.076  1.00  0.00    -0.125 NA
HETATM    3  N2  UNL     1      24.664  -1.215  55.605  1.00  0.00    -0.114 NA
HETATM    4  C6  UNL     1      23.714  -1.053  54.679  1.00  0.00     0.231 A 
HETATM    5  O1  UNL     1      24.279  -0.615  53.572  1.00  0.00    -0.267 OA
ENDROOT
BRANCH   1   6
HETATM    6  C4  UNL     1      26.605  -0.027  52.788  1.00  0.00     0.149 C 
HETATM    7  C3  UNL     1      27.814  -0.850  53.038  1.00  0.00    -0.004 C 
HETATM    8  C2  UNL     1      28.940  -0.286  53.505  1.00  0.00    -0.083 C 
HETATM    9  C1  UNL     1      30.154  -1.120  53.754  1.00  0.00     0.043 C 
HETATM   10  C16 UNL     1      29.105   1.156  53.812  1.00  0.00     0.063 C 
HETATM   11  C15 UNL     1      27.983   1.994  53.337  1.00  0.00     0.016 C 
HETATM   12  C14 UNL     1      26.868   1.421  52.881  1.00  0.00     0.106 C 
HETATM   13  F1  UNL     1      25.893   2.271  52.467  1.00  0.00    -0.210 F 
ENDBRANCH   1   6
BRANCH   4  14
HETATM   14  S1  UNL     1      21.936  -1.268  54.552  1.00  0.00    -0.078 SA
BRANCH  14  15
HETATM   15  C7  UNL     1      21.135   0.296  54.161  1.00  0.00     0.121 C 
BRANCH  15  16
HETATM   16  C8  UNL     1      21.556   0.848  52.857  1.00  0.00    -0.049 A 
HETATM   17  C9  UNL     1      20.995   0.162  51.789  1.00  0.00     0.008 A 
HETATM   18  C10 UNL     1      21.256   0.512  50.480  1.00  0.00     0.001 A 
HETATM   19  C11 UNL     1      22.111   1.590  50.277  1.00  0.00     0.000 A 
HETATM   20  C12 UNL     1      22.698   2.309  51.324  1.00  0.00     0.001 A 
HETATM   21  C13 UNL     1      22.393   1.906  52.606  1.00  0.00     0.008 A 
ENDBRANCH  15  16
ENDBRANCH  14  15
ENDBRANCH   4  14
TORSDOF 4
ENDMDL
MODEL 2
REMARK VINA RESULT:      -8.1      1.604      2.357
REMARK  4 active torsions:
REMARK  status: ('A' for Active; 'I' for Inactive)
REMARK    1  A    between atoms: C4_4  and  C5_5 
REMARK    2  A    between atoms: C6_8  and  S1_9 
REMARK    3  A    between atoms: S1_9  and  C7_10 
REMARK    4  A    between atoms: C7_10  and  C8_11 
ROOT
HETATM    1  C5  UNL     1      25.456  -0.495  53.663  1.00  0.00     0.184 A 
HETATM    2  N1  UNL     1      25.679  -0.992  54.910  1.00  0.00    -0.125 NA
HETATM    3  N2  UNL     1      24.493  -1.236  55.446  1.00  0.00    -0.114 NA
HETATM    4  C6  UNL     1      23.549  -0.901  54.560  1.00  0.00     0.231 A 
HETATM    5  O1  UNL     1      24.139  -0.449  53.472  1.00  0.00    -0.267 OA
ENDROOT
BRANCH   1   6
HETATM    6  C4  UNL     1      26.501  -0.069  52.667  1.00  0.00     0.149 C 
HETATM    7  C3  UNL     1      27.696  -0.895  52.972  1.00  0.00    -0.004 C 
HETATM    8  C2  UNL     1      28.817  -0.327  53.445  1.00  0.00    -0.083 C 
HETATM    9  C1  UNL     1      30.016  -1.163  53.749  1.00  0.00     0.043 C 
HETATM   10  C16 UNL     1      28.990   1.123  53.707  1.00  0.00     0.063 C 
HETATM   11  C15 UNL     1      27.887   1.955  53.178  1.00  0.00     0.016 C 
HETATM   12  C14 UNL     1      26.777   1.378  52.717  1.00  0.00     0.106 C 
HETATM   13  F1  UNL     1      25.820   2.223  52.252  1.00  0.00    -0.210 F 
ENDBRANCH   1   6
BRANCH   4  14
HETATM   14  S1  UNL     1      21.757  -0.905  54.468  1.00  0.00    -0.078 SA
BRANCH  14  15
HETATM   15  C7  UNL     1      21.191   0.102  53.088  1.00  0.00     0.121 C 
BRANCH  15  16
HETATM   16  C8  UNL     1      19.810  -0.218  52.671  1.00  0.00    -0.049 A 
HETATM   17  C9  UNL     1      19.180  -1.082  53.556  1.00  0.00     0.008 A 
HETATM   18  C10 UNL     1      17.884  -1.511  53.356  1.00  0.00     0.001 A 
HETATM   19  C11 UNL     1      17.232  -1.035  52.223  1.00  0.00     0.000 A 
HETATM   20  C12 UNL     1      17.829  -0.164  51.307  1.00  0.00     0.001 A 
HETATM   21  C13 UNL     1      19.125   0.225  51.567  1.00  0.00     0.008 A 
ENDBRANCH  15  16
ENDBRANCH  14  15
ENDBRANCH   4  14
TORSDOF 4
ENDMDL
MODEL 3
REMARK VINA RESULT:      -8.0      2.285      3.333
REMARK  4 active torsions:
REMARK  status: ('A' for Active; 'I' for Inactive)
REMARK    1  A    between atoms: C4_4  and  C5_5 
REMARK    2  A    between atoms: C6_8  and  S1_9 
REMARK    3  A    between atoms: S1_9  and  C7_10 
REMARK    4  A    between atoms: C7_10  and  C8_11 
ROOT
HETATM    1  C5  UNL     1      25.738   2.149  52.382  1.00  0.00     0.184 A 
HETATM    2  N1  UNL     1      25.415   2.804  53.529  1.00  0.00    -0.125 NA
HETATM    3  N2  UNL     1      24.163   3.215  53.401  1.00  0.00    -0.114 NA
HETATM    4  C6  UNL     1      23.711   2.828  52.203  1.00  0.00     0.231 A 
HETATM    5  O1  UNL     1      24.673   2.177  51.583  1.00  0.00    -0.267 OA
ENDROOT
BRANCH   1   6
HETATM    6  C4  UNL     1      27.059   1.503  52.059  1.00  0.00     0.149 C 
HETATM    7  C3  UNL     1      26.753   0.067  51.843  1.00  0.00    -0.004 C 
HETATM    8  C2  UNL     1      27.217  -0.866  52.690  1.00  0.00    -0.083 C 
HETATM    9  C1  UNL     1      26.906  -2.309  52.467  1.00  0.00     0.043 C 
HETATM   10  C16 UNL     1      28.052  -0.589  53.885  1.00  0.00     0.063 C 
HETATM   11  C15 UNL     1      28.545   0.804  53.952  1.00  0.00     0.016 C 
HETATM   12  C14 UNL     1      28.070   1.721  53.109  1.00  0.00     0.106 C 
HETATM   13  F1  UNL     1      28.582   2.972  53.248  1.00  0.00    -0.210 F 
ENDBRANCH   1   6
BRANCH   4  14
HETATM   14  S1  UNL     1      22.192   2.957  51.255  1.00  0.00    -0.078 SA
BRANCH  14  15
HETATM   15  C7  UNL     1      21.344   1.371  51.197  1.00  0.00     0.121 C 
BRANCH  15  16
HETATM   16  C8  UNL     1      21.565   0.555  52.409  1.00  0.00    -0.049 A 
HETATM   17  C9  UNL     1      20.704   0.901  53.441  1.00  0.00     0.008 A 
HETATM   18  C10 UNL     1      20.740   0.264  54.664  1.00  0.00     0.001 A 
HETATM   19  C11 UNL     1      21.682  -0.747  54.818  1.00  0.00     0.000 A 
HETATM   20  C12 UNL     1      22.569  -1.127  53.805  1.00  0.00     0.001 A 
HETATM   21  C13 UNL     1      22.478  -0.450  52.608  1.00  0.00     0.008 A 
ENDBRANCH  15  16
ENDBRANCH  14  15
ENDBRANCH   4  14
TORSDOF 4
ENDMDL
MODEL 4
REMARK VINA RESULT:      -7.7      2.693      7.007
REMARK  4 active torsions:
REMARK  status: ('A' for Active; 'I' for Inactive)
REMARK    1  A    between atoms: C4_4  and  C5_5 
REMARK    2  A    between atoms: C6_8  and  S1_9 
REMARK    3  A    between atoms: S1_9  and  C7_10 
REMARK    4  A    between atoms: C7_10  and  C8_11 
ROOT
HETATM    1  C5  UNL     1      23.153   1.063  52.253  1.00  0.00     0.184 A 
HETATM    2  N1  UNL     1      22.870   2.343  52.616  1.00  0.00    -0.125 NA
HETATM    3  N2  UNL     1      23.998   3.029  52.529  1.00  0.00    -0.114 NA
HETATM    4  C6  UNL     1      24.967   2.201  52.122  1.00  0.00     0.231 A 
HETATM    5  O1  UNL     1      24.449   1.002  51.953  1.00  0.00    -0.267 OA
ENDROOT
BRANCH   1   6
HETATM    6  C4  UNL     1      22.186  -0.089  52.196  1.00  0.00     0.149 C 
HETATM    7  C3  UNL     1      21.258   0.230  51.083  1.00  0.00    -0.004 C 
HETATM    8  C2  UNL     1      19.963   0.488  51.325  1.00  0.00    -0.083 C 
HETATM    9  C1  UNL     1      19.034   0.808  50.200  1.00  0.00     0.043 C 
HETATM   10  C16 UNL     1      19.332   0.484  52.668  1.00  0.00     0.063 C 
HETATM   11  C15 UNL     1      20.203  -0.065  53.729  1.00  0.00     0.016 C 
HETATM   12  C14 UNL     1      21.490  -0.311  53.476  1.00  0.00     0.106 C 
HETATM   13  F1  UNL     1      22.210  -0.813  54.512  1.00  0.00    -0.210 F 
ENDBRANCH   1   6
BRANCH   4  14
HETATM   14  S1  UNL     1      26.722   2.294  51.757  1.00  0.00    -0.078 SA
BRANCH  14  15
HETATM   15  C7  UNL     1      27.694   2.035  53.250  1.00  0.00     0.121 C 
BRANCH  15  16
HETATM   16  C8  UNL     1      28.308   0.692  53.311  1.00  0.00    -0.049 A 
HETATM   17  C9  UNL     1      27.431  -0.306  52.911  1.00  0.00     0.008 A 
HETATM   18  C10 UNL     1      27.801  -1.635  52.892  1.00  0.00     0.001 A 
HETATM   19  C11 UNL     1      29.099  -1.932  53.292  1.00  0.00     0.000 A 
HETATM   20  C12 UNL     1      30.015  -0.957  53.702  1.00  0.00     0.001 A 
HETATM   21  C13 UNL     1      29.580   0.350  53.696  1.00  0.00     0.008 A 
ENDBRANCH  15  16
ENDBRANCH  14  15
ENDBRANCH   4  14
TORSDOF 4
ENDMDL
MODEL 5
REMARK VINA RESULT:      -7.6      3.890      5.184
REMARK  4 active torsions:
REMARK  status: ('A' for Active; 'I' for Inactive)
REMARK    1  A    between atoms: C4_4  and  C5_5 
REMARK    2  A    between atoms: C6_8  and  S1_9 
REMARK    3  A    between atoms: S1_9  and  C7_10 
REMARK    4  A    between atoms: C7_10  and  C8_11 
ROOT
HETATM    1  C5  UNL     1      23.854   2.071  53.035  1.00  0.00     0.184 A 
HETATM    2  N1  UNL     1      22.558   1.781  52.738  1.00  0.00    -0.125 NA
HETATM    3  N2  UNL     1      22.050   2.849  52.143  1.00  0.00    -0.114 NA
HETATM    4  C6  UNL     1      23.001   3.786  52.069  1.00  0.00     0.231 A 
HETATM    5  O1  UNL     1      24.102   3.309  52.613  1.00  0.00    -0.267 OA
ENDROOT
BRANCH   1   6
HETATM    6  C4  UNL     1      24.842   1.164  53.719  1.00  0.00     0.149 C 
HETATM    7  C3  UNL     1      26.072   1.977  53.888  1.00  0.00    -0.004 C 
HETATM    8  C2  UNL     1      27.196   1.663  53.224  1.00  0.00    -0.083 C 
HETATM    9  C1  UNL     1      28.430   2.485  53.399  1.00  0.00     0.043 C 
HETATM   10  C16 UNL     1      27.340   0.521  52.288  1.00  0.00     0.063 C 
HETATM   11  C15 UNL     1      26.192  -0.412  52.313  1.00  0.00     0.016 C 
HETATM   12  C14 UNL     1      25.079  -0.084  52.971  1.00  0.00     0.106 C 
HETATM   13  F1  UNL     1      24.080  -1.004  52.937  1.00  0.00    -0.210 F 
ENDBRANCH   1   6
BRANCH   4  14
HETATM   14  S1  UNL     1      23.166   5.461  51.445  1.00  0.00    -0.078 SA
BRANCH  14  15
HETATM   15  C7  UNL     1      23.550   5.447  49.686  1.00  0.00     0.121 C 
BRANCH  15  16
HETATM   16  C8  UNL     1      24.954   5.083  49.407  1.00  0.00    -0.049 A 
HETATM   17  C9  UNL     1      25.669   6.132  48.846  1.00  0.00     0.008 A 
HETATM   18  C10 UNL     1      27.000   6.007  48.506  1.00  0.00     0.001 A 
HETATM   19  C11 UNL     1      27.598   4.776  48.753  1.00  0.00     0.000 A 
HETATM   20  C12 UNL     1      26.916   3.693  49.316  1.00  0.00     0.001 A 
HETATM   21  C13 UNL     1      25.589   3.887  49.633  1.00  0.00     0.008 A 
ENDBRANCH  15  16
ENDBRANCH  14  15
ENDBRANCH   4  14
TORSDOF 4
ENDMDL
MODEL 6
REMARK VINA RESULT:      -7.5      4.939      6.331
REMARK  4 active torsions:
REMARK  status: ('A' for Active; 'I' for Inactive)
REMARK    1  A    between atoms: C4_4  and  C5_5 
REMARK    2  A    between atoms: C6_8  and  S1_9 
REMARK    3  A    between atoms: S1_9  and  C7_10 
REMARK    4  A    between atoms: C7_10  and  C8_11 
ROOT
HETATM    1  C5  UNL     1      24.561   1.904  52.092  1.00  0.00     0.184 A 
HETATM    2  N1  UNL     1      23.405   1.662  51.417  1.00  0.00    -0.125 NA
HETATM    3  N2  UNL     1      23.370   2.505  50.397  1.00  0.00    -0.114 NA
HETATM    4  C6  UNL     1      24.474   3.258  50.430  1.00  0.00     0.231 A 
HETATM    5  O1  UNL     1      25.201   2.890  51.466  1.00  0.00    -0.267 OA
ENDROOT
BRANCH   1   6
HETATM    6  C4  UNL     1      25.044   1.193  53.328  1.00  0.00     0.149 C 
HETATM    7  C3  UNL     1      26.343   1.827  53.665  1.00  0.00    -0.004 C 
HETATM    8  C2  UNL     1      27.487   1.128  53.579  1.00  0.00    -0.083 C 
HETATM    9  C1  UNL     1      28.791   1.771  53.919  1.00  0.00     0.043 C 
HETATM   10  C16 UNL     1      27.587  -0.291  53.158  1.00  0.00     0.063 C 
HETATM   11  C15 UNL     1      26.278  -0.972  53.060  1.00  0.00     0.016 C 
HETATM   12  C14 UNL     1      25.150  -0.265  53.140  1.00  0.00     0.106 C 
HETATM   13  F1  UNL     1      23.998  -0.977  53.038  1.00  0.00    -0.210 F 
ENDBRANCH   1   6
BRANCH   4  14
HETATM   14  S1  UNL     1      25.200   4.590  49.470  1.00  0.00    -0.078 SA
BRANCH  14  15
HETATM   15  C7  UNL     1      26.943   4.270  49.158  1.00  0.00     0.121 C 
BRANCH  15  16
HETATM   16  C8  UNL     1      27.636   5.416  48.535  1.00  0.00    -0.049 A 
HETATM   17  C9  UNL     1      26.775   6.473  48.273  1.00  0.00     0.008 A 
HETATM   18  C10 UNL     1      27.215   7.644  47.692  1.00  0.00     0.001 A 
HETATM   19  C11 UNL     1      28.568   7.721  47.381  1.00  0.00     0.000 A 
HETATM   20  C12 UNL     1      29.470   6.681  47.628  1.00  0.00     0.001 A 
HETATM   21  C13 UNL     1      28.964   5.539  48.210  1.00  0.00     0.008 A 
ENDBRANCH  15  16
ENDBRANCH  14  15
ENDBRANCH   4  14
TORSDOF 4
ENDMDL
MODEL 7
REMARK VINA RESULT:      -7.4      3.495      6.497
REMARK  4 active torsions:
REMARK  status: ('A' for Active; 'I' for Inactive)
REMARK    1  A    between atoms: C4_4  and  C5_5 
REMARK    2  A    between atoms: C6_8  and  S1_9 
REMARK    3  A    between atoms: S1_9  and  C7_10 
REMARK    4  A    between atoms: C7_10  and  C8_11 
ROOT
HETATM    1  C5  UNL     1      24.526   2.889  50.916  1.00  0.00     0.184 A 
HETATM    2  N1  UNL     1      24.198   3.747  51.920  1.00  0.00    -0.125 NA
HETATM    3  N2  UNL     1      24.235   3.054  53.047  1.00  0.00    -0.114 NA
HETATM    4  C6  UNL     1      24.576   1.793  52.759  1.00  0.00     0.231 A 
HETATM    5  O1  UNL     1      24.754   1.695  51.457  1.00  0.00    -0.267 OA
ENDROOT
BRANCH   1   6
HETATM    6  C4  UNL     1      24.618   3.218  49.449  1.00  0.00     0.149 C 
HETATM    7  C3  UNL     1      25.819   4.079  49.313  1.00  0.00    -0.004 C 
HETATM    8  C2  UNL     1      25.700   5.367  48.951  1.00  0.00    -0.083 C 
HETATM    9  C1  UNL     1      26.912   6.228  48.816  1.00  0.00     0.043 C 
HETATM   10  C16 UNL     1      24.417   6.052  48.657  1.00  0.00     0.063 C 
HETATM   11  C15 UNL     1      23.263   5.131  48.563  1.00  0.00     0.016 C 
HETATM   12  C14 UNL     1      23.394   3.856  48.932  1.00  0.00     0.106 C 
HETATM   13  F1  UNL     1      22.280   3.089  48.811  1.00  0.00    -0.210 F 
ENDBRANCH   1   6
BRANCH   4  14
HETATM   14  S1  UNL     1      24.846   0.258  53.648  1.00  0.00    -0.078 SA
BRANCH  14  15
HETATM   15  C7  UNL     1      25.922  -0.838  52.710  1.00  0.00     0.121 C 
BRANCH  15  16
HETATM   16  C8  UNL     1      27.351  -0.668  53.046  1.00  0.00    -0.049 A 
HETATM   17  C9  UNL     1      28.045  -1.869  53.018  1.00  0.00     0.008 A 
HETATM   18  C10 UNL     1      29.393  -1.938  53.301  1.00  0.00     0.001 A 
HETATM   19  C11 UNL     1      30.030  -0.744  53.618  1.00  0.00     0.000 A 
HETATM   20  C12 UNL     1      29.370   0.488  53.659  1.00  0.00     0.001 A 
HETATM   21  C13 UNL     1      28.024   0.485  53.364  1.00  0.00     0.008 A 
ENDBRANCH  15  16
ENDBRANCH  14  15
ENDBRANCH   4  14
TORSDOF 4
ENDMDL
MODEL 8
REMARK VINA RESULT:      -7.4      3.705      6.231
REMARK  4 active torsions:
REMARK  status: ('A' for Active; 'I' for Inactive)
REMARK    1  A    between atoms: C4_4  and  C5_5 
REMARK    2  A    between atoms: C6_8  and  S1_9 
REMARK    3  A    between atoms: S1_9  and  C7_10 
REMARK    4  A    between atoms: C7_10  and  C8_11 
ROOT
HETATM    1  C5  UNL     1      23.760   1.149  52.974  1.00  0.00     0.184 A 
HETATM    2  N1  UNL     1      25.007   1.396  53.458  1.00  0.00    -0.125 NA
HETATM    3  N2  UNL     1      25.211   2.701  53.355  1.00  0.00    -0.114 NA
HETATM    4  C6  UNL     1      24.120   3.259  52.819  1.00  0.00     0.231 A 
HETATM    5  O1  UNL     1      23.235   2.310  52.588  1.00  0.00    -0.267 OA
ENDROOT
BRANCH   1   6
HETATM    6  C4  UNL     1      23.082  -0.192  52.884  1.00  0.00     0.149 C 
HETATM    7  C3  UNL     1      21.876   0.032  52.049  1.00  0.00    -0.004 C 
HETATM    8  C2  UNL     1      20.647  -0.084  52.577  1.00  0.00    -0.083 C 
HETATM    9  C1  UNL     1      19.437   0.141  51.731  1.00  0.00     0.043 C 
HETATM   10  C16 UNL     1      20.358  -0.434  53.990  1.00  0.00     0.063 C 
HETATM   11  C15 UNL     1      21.549  -0.885  54.742  1.00  0.00     0.016 C 
HETATM   12  C14 UNL     1      22.764  -0.757  54.208  1.00  0.00     0.106 C 
HETATM   13  F1  UNL     1      23.795  -1.198  54.974  1.00  0.00    -0.210 F 
ENDBRANCH   1   6
BRANCH   4  14
HETATM   14  S1  UNL     1      23.565   4.900  52.351  1.00  0.00    -0.078 SA
BRANCH  14  15
HETATM   15  C7  UNL     1      23.558   5.080  50.560  1.00  0.00     0.121 C 
BRANCH  15  16
HETATM   16  C8  UNL     1      24.889   4.866  49.955  1.00  0.00    -0.049 A 
HETATM   17  C9  UNL     1      25.429   6.037  49.442  1.00  0.00     0.008 A 
HETATM   18  C10 UNL     1      26.666   6.062  48.832  1.00  0.00     0.001 A 
HETATM   19  C11 UNL     1      27.352   4.855  48.753  1.00  0.00     0.000 A 
HETATM   20  C12 UNL     1      26.845   3.653  49.257  1.00  0.00     0.001 A 
HETATM   21  C13 UNL     1      25.605   3.699  49.855  1.00  0.00     0.008 A 
ENDBRANCH  15  16
ENDBRANCH  14  15
ENDBRANCH   4  14
TORSDOF 4
ENDMDL
MODEL 9
REMARK VINA RESULT:      -7.4      3.158      5.772
REMARK  4 active torsions:
REMARK  status: ('A' for Active; 'I' for Inactive)
REMARK    1  A    between atoms: C4_4  and  C5_5 
REMARK    2  A    between atoms: C6_8  and  S1_9 
REMARK    3  A    between atoms: S1_9  and  C7_10 
REMARK    4  A    between atoms: C7_10  and  C8_11 
ROOT
HETATM    1  C5  UNL     1      24.488  -0.414  53.671  1.00  0.00     0.184 A 
HETATM    2  N1  UNL     1      25.368  -0.683  54.673  1.00  0.00    -0.125 NA
HETATM    3  N2  UNL     1      26.411   0.114  54.496  1.00  0.00    -0.114 NA
HETATM    4  C6  UNL     1      26.191   0.864  53.410  1.00  0.00     0.231 A 
HETATM    5  O1  UNL     1      25.017   0.541  52.908  1.00  0.00    -0.267 OA
ENDROOT
BRANCH   1   6
HETATM    6  C4  UNL     1      23.151  -1.071  53.452  1.00  0.00     0.149 C 
HETATM    7  C3  UNL     1      22.508  -0.299  52.359  1.00  0.00    -0.004 C 
HETATM    8  C2  UNL     1      21.406   0.431  52.594  1.00  0.00    -0.083 C 
HETATM    9  C1  UNL     1      20.764   1.205  51.490  1.00  0.00     0.043 C 
HETATM   10  C16 UNL     1      20.729   0.550  53.910  1.00  0.00     0.063 C 
HETATM   11  C15 UNL     1      21.234  -0.404  54.921  1.00  0.00     0.016 C 
HETATM   12  C14 UNL     1      22.333  -1.118  54.677  1.00  0.00     0.106 C 
HETATM   13  F1  UNL     1      22.719  -1.965  55.666  1.00  0.00    -0.210 F 
ENDBRANCH   1   6
BRANCH   4  14
HETATM   14  S1  UNL     1      27.046   2.148  52.492  1.00  0.00    -0.078 SA
BRANCH  14  15
HETATM   15  C7  UNL     1      26.582   2.099  50.754  1.00  0.00     0.121 C 
BRANCH  15  16
HETATM   16  C8  UNL     1      26.272   3.435  50.203  1.00  0.00    -0.049 A 
HETATM   17  C9  UNL     1      25.100   3.961  50.727  1.00  0.00     0.008 A 
HETATM   18  C10 UNL     1      24.624   5.199  50.349  1.00  0.00     0.001 A 
HETATM   19  C11 UNL     1      25.377   5.903  49.415  1.00  0.00     0.000 A 
HETATM   20  C12 UNL     1      26.564   5.410  48.862  1.00  0.00     0.001 A 
HETATM   21  C13 UNL     1      26.981   4.167  49.284  1.00  0.00     0.008 A 
ENDBRANCH  15  16
ENDBRANCH  14  15
ENDBRANCH   4  14
TORSDOF 4
ENDMDL
