MODEL 1
REMARK VINA RESULT:      -8.9      0.000      0.000
REMARK  4 active torsions:
REMARK  status: ('A' for Active; 'I' for Inactive)
REMARK    1  A    between atoms: O1_2  and  C2_3 
REMARK    2  A    between atoms: C8_11  and  N3_12 
REMARK    3  A    between atoms: N3_12  and  C9_13 
REMARK    4  A    between atoms: C12_16  and  C13_17 
ROOT
HETATM    1  C2  UNL     1      23.024   2.927  49.358  1.00  0.00     0.087 A 
HETATM    2  C3  UNL     1      22.029   2.060  49.760  1.00  0.00     0.070 A 
HETATM    3  C4  UNL     1      22.171   1.316  50.915  1.00  0.00     0.071 A 
HETATM    4  N1  UNL     1      21.155   0.515  51.211  1.00  0.00    -0.259 NA
HETATM    5  C5  UNL     1      21.240  -0.235  52.326  1.00  0.00     0.142 A 
HETATM    6  C6  UNL     1      22.326  -0.218  53.183  1.00  0.00     0.089 A 
HETATM    7  C7  UNL     1      22.390  -1.031  54.369  1.00  0.00     0.103 C 
HETATM    8  N2  UNL     1      22.428  -1.674  55.330  1.00  0.00    -0.191 NA
HETATM    9  C8  UNL     1      23.375   0.634  52.844  1.00  0.00     0.067 A 
HETATM   10  C16 UNL     1      23.308   1.418  51.697  1.00  0.00     0.022 A 
HETATM   11  C17 UNL     1      24.311   2.272  51.317  1.00  0.00     0.037 A 
HETATM   12  C18 UNL     1      24.148   3.012  50.150  1.00  0.00     0.040 A 
HETATM   13  I1  UNL     1      25.773   4.288  49.686  1.00  0.00    -0.042 I 
ENDROOT
BRANCH   9  14
HETATM   14  N3  UNL     1      24.506   0.698  53.671  1.00  0.00    -0.354 N 
HETATM   15  H6  UNL     1      24.076   1.189  54.488  1.00  0.00     0.166 HD
BRANCH  14  16
HETATM   16  C9  UNL     1      25.841   0.297  53.598  1.00  0.00     0.034 A 
HETATM   17  C10 UNL     1      26.110  -0.951  53.068  1.00  0.00     0.030 A 
HETATM   18  C11 UNL     1      27.435  -1.328  53.004  1.00  0.00     0.013 A 
HETATM   19  C12 UNL     1      28.435  -0.477  53.458  1.00  0.00    -0.008 A 
HETATM   20  C14 UNL     1      28.156   0.763  53.984  1.00  0.00     0.044 A 
HETATM   21 CL1  UNL     1      29.445   1.803  54.546  1.00  0.00    -0.084 Cl
HETATM   22  C15 UNL     1      26.829   1.136  54.046  1.00  0.00     0.054 A 
BRANCH  19  23
HETATM   23  C13 UNL     1      29.856  -0.881  53.391  1.00  0.00     0.262 C 
HETATM   24  F1  UNL     1      30.047  -2.200  53.777  1.00  0.00    -0.251 F 
ENDBRANCH  19  23
ENDBRANCH  14  16
ENDBRANCH   9  14
BRANCH   1  25
HETATM   25  O1  UNL     1      23.053   3.741  48.243  1.00  0.00    -0.355 OA
HETATM   26  C1  UNL     1      22.081   3.721  47.223  1.00  0.00     0.210 C 
ENDBRANCH   1  25
TORSDOF 4
ENDMDL
MODEL 2
REMARK VINA RESULT:      -8.6      2.935      4.382
REMARK  4 active torsions:
REMARK  status: ('A' for Active; 'I' for Inactive)
REMARK    1  A    between atoms: O1_2  and  C2_3 
REMARK    2  A    between atoms: C8_11  and  N3_12 
REMARK    3  A    between atoms: N3_12  and  C9_13 
REMARK    4  A    between atoms: C12_16  and  C13_17 
ROOT
HETATM    1  C2  UNL     1      20.836   0.454  51.547  1.00  0.00     0.087 A 
HETATM    2  C3  UNL     1      21.156   1.132  50.389  1.00  0.00     0.070 A 
HETATM    3  C4  UNL     1      22.381   1.756  50.257  1.00  0.00     0.071 A 
HETATM    4  N1  UNL     1      22.587   2.379  49.103  1.00  0.00    -0.259 NA
HETATM    5  C5  UNL     1      23.765   3.005  48.921  1.00  0.00     0.142 A 
HETATM    6  C6  UNL     1      24.774   3.037  49.866  1.00  0.00     0.089 A 
HETATM    7  C7  UNL     1      26.024   3.716  49.643  1.00  0.00     0.103 C 
HETATM    8  N2  UNL     1      27.033   4.249  49.452  1.00  0.00    -0.191 NA
HETATM    9  C8  UNL     1      24.526   2.375  51.066  1.00  0.00     0.067 A 
HETATM   10  C16 UNL     1      23.316   1.720  51.277  1.00  0.00     0.022 A 
HETATM   11  C17 UNL     1      23.020   1.053  52.437  1.00  0.00     0.037 A 
HETATM   12  C18 UNL     1      21.781   0.431  52.549  1.00  0.00     0.040 A 
HETATM   13  I1  UNL     1      21.460  -0.560  54.393  1.00  0.00    -0.042 I 
ENDROOT
BRANCH   9  14
HETATM   14  N3  UNL     1      25.508   2.370  52.068  1.00  0.00    -0.354 N 
HETATM   15  H6  UNL     1      25.305   3.304  52.492  1.00  0.00     0.166 HD
BRANCH  14  16
HETATM   16  C9  UNL     1      26.509   1.501  52.504  1.00  0.00     0.034 A 
HETATM   17  C10 UNL     1      27.606   2.051  53.139  1.00  0.00     0.030 A 
HETATM   18  C11 UNL     1      28.585   1.176  53.562  1.00  0.00     0.013 A 
HETATM   19  C12 UNL     1      28.451  -0.190  53.348  1.00  0.00    -0.008 A 
HETATM   20  C14 UNL     1      27.356  -0.727  52.714  1.00  0.00     0.044 A 
HETATM   21 CL1  UNL     1      27.228  -2.453  52.464  1.00  0.00    -0.084 Cl
HETATM   22  C15 UNL     1      26.380   0.152  52.293  1.00  0.00     0.054 A 
BRANCH  19  23
HETATM   23  C13 UNL     1      29.501  -1.129  53.801  1.00  0.00     0.262 C 
HETATM   24  F1  UNL     1      30.779  -0.646  53.562  1.00  0.00    -0.251 F 
ENDBRANCH  19  23
ENDBRANCH  14  16
ENDBRANCH   9  14
BRANCH   1  25
HETATM   25  O1  UNL     1      19.670  -0.222  51.851  1.00  0.00    -0.355 OA
HETATM   26  C1  UNL     1      18.388   0.186  51.433  1.00  0.00     0.210 C 
ENDBRANCH   1  25
TORSDOF 4
ENDMDL
MODEL 3
REMARK VINA RESULT:      -8.2      4.064      6.164
REMARK  4 active torsions:
REMARK  status: ('A' for Active; 'I' for Inactive)
REMARK    1  A    between atoms: O1_2  and  C2_3 
REMARK    2  A    between atoms: C8_11  and  N3_12 
REMARK    3  A    between atoms: N3_12  and  C9_13 
REMARK    4  A    between atoms: C12_16  and  C13_17 
ROOT
HETATM    1  C2  UNL     1      19.676  -0.949  53.498  1.00  0.00     0.087 A 
HETATM    2  C3  UNL     1      20.545  -1.486  54.426  1.00  0.00     0.070 A 
HETATM    3  C4  UNL     1      21.887  -1.156  54.403  1.00  0.00     0.071 A 
HETATM    4  N1  UNL     1      22.635  -1.727  55.339  1.00  0.00    -0.259 NA
HETATM    5  C5  UNL     1      23.950  -1.442  55.362  1.00  0.00     0.142 A 
HETATM    6  C6  UNL     1      24.568  -0.587  54.468  1.00  0.00     0.089 A 
HETATM    7  C7  UNL     1      25.978  -0.300  54.517  1.00  0.00     0.103 C 
HETATM    8  N2  UNL     1      27.109  -0.061  54.572  1.00  0.00    -0.191 NA
HETATM    9  C8  UNL     1      23.756  -0.004  53.499  1.00  0.00     0.067 A 
HETATM   10  C16 UNL     1      22.393  -0.284  53.455  1.00  0.00     0.022 A 
HETATM   11  C17 UNL     1      21.548   0.261  52.523  1.00  0.00     0.037 A 
HETATM   12  C18 UNL     1      20.201  -0.084  52.564  1.00  0.00     0.040 A 
HETATM   13  I1  UNL     1      19.015   0.831  51.068  1.00  0.00    -0.042 I 
ENDROOT
BRANCH   9  14
HETATM   14  N3  UNL     1      24.320   0.872  52.560  1.00  0.00    -0.354 N 
HETATM   15  H6  UNL     1      25.038   0.228  52.156  1.00  0.00     0.166 HD
BRANCH  14  16
HETATM   16  C9  UNL     1      24.123   2.194  52.158  1.00  0.00     0.034 A 
HETATM   17  C10 UNL     1      24.024   3.158  53.144  1.00  0.00     0.030 A 
HETATM   18  C11 UNL     1      23.829   4.458  52.726  1.00  0.00     0.013 A 
HETATM   19  C12 UNL     1      23.740   4.760  51.373  1.00  0.00    -0.008 A 
HETATM   20  C14 UNL     1      23.840   3.793  50.400  1.00  0.00     0.044 A 
HETATM   21 CL1  UNL     1      23.720   4.216  48.708  1.00  0.00    -0.084 Cl
HETATM   22  C15 UNL     1      24.034   2.494  50.823  1.00  0.00     0.054 A 
BRANCH  19  23
HETATM   23  C13 UNL     1      23.530   6.154  50.925  1.00  0.00     0.262 C 
HETATM   24  F1  UNL     1      24.336   7.054  51.607  1.00  0.00    -0.251 F 
ENDBRANCH  19  23
ENDBRANCH  14  16
ENDBRANCH   9  14
BRANCH   1  25
HETATM   25  O1  UNL     1      18.317  -1.164  53.373  1.00  0.00    -0.355 OA
HETATM   26  C1  UNL     1      17.701  -2.425  53.496  1.00  0.00     0.210 C 
ENDBRANCH   1  25
TORSDOF 4
ENDMDL
MODEL 4
REMARK VINA RESULT:      -7.9      4.033      6.361
REMARK  4 active torsions:
REMARK  status: ('A' for Active; 'I' for Inactive)
REMARK    1  A    between atoms: O1_2  and  C2_3 
REMARK    2  A    between atoms: C8_11  and  N3_12 
REMARK    3  A    between atoms: N3_12  and  C9_13 
REMARK    4  A    between atoms: C12_16  and  C13_17 
ROOT
HETATM    1  C2  UNL     1      26.511  -0.284  53.735  1.00  0.00     0.087 A 
HETATM    2  C3  UNL     1      25.246  -0.834  53.702  1.00  0.00     0.070 A 
HETATM    3  C4  UNL     1      24.147  -0.051  53.409  1.00  0.00     0.071 A 
HETATM    4  N1  UNL     1      22.978  -0.680  53.403  1.00  0.00    -0.259 NA
HETATM    5  C5  UNL     1      21.873   0.037  53.124  1.00  0.00     0.142 A 
HETATM    6  C6  UNL     1      21.884   1.391  52.842  1.00  0.00     0.089 A 
HETATM    7  C7  UNL     1      20.685   2.131  52.547  1.00  0.00     0.103 C 
HETATM    8  N2  UNL     1      19.720   2.718  52.294  1.00  0.00    -0.191 NA
HETATM    9  C8  UNL     1      23.126   2.021  52.855  1.00  0.00     0.067 A 
HETATM   10  C16 UNL     1      24.282   1.300  53.141  1.00  0.00     0.022 A 
HETATM   11  C17 UNL     1      25.529   1.869  53.168  1.00  0.00     0.037 A 
HETATM   12  C18 UNL     1      26.622   1.062  53.465  1.00  0.00     0.040 A 
HETATM   13  I1  UNL     1      28.483   2.073  53.472  1.00  0.00    -0.042 I 
ENDROOT
BRANCH   9  14
HETATM   14  N3  UNL     1      23.208   3.393  52.578  1.00  0.00    -0.354 N 
HETATM   15  H6  UNL     1      22.924   3.760  53.515  1.00  0.00     0.166 HD
BRANCH  14  16
HETATM   16  C9  UNL     1      23.537   4.190  51.480  1.00  0.00     0.034 A 
HETATM   17  C10 UNL     1      23.722   3.562  50.263  1.00  0.00     0.030 A 
HETATM   18  C11 UNL     1      24.047   4.367  49.191  1.00  0.00     0.013 A 
HETATM   19  C12 UNL     1      24.177   5.740  49.352  1.00  0.00    -0.008 A 
HETATM   20  C14 UNL     1      23.991   6.355  50.568  1.00  0.00     0.044 A 
HETATM   21 CL1  UNL     1      24.166   8.088  50.728  1.00  0.00    -0.084 Cl
HETATM   22  C15 UNL     1      23.666   5.546  51.638  1.00  0.00     0.054 A 
BRANCH  19  23
HETATM   23  C13 UNL     1      24.526   6.603  48.203  1.00  0.00     0.262 C 
HETATM   24  F1  UNL     1      25.895   6.655  47.979  1.00  0.00    -0.251 F 
ENDBRANCH  19  23
ENDBRANCH  14  16
ENDBRANCH   9  14
BRANCH   1  25
HETATM   25  O1  UNL     1      27.711  -0.910  54.007  1.00  0.00    -0.355 OA
HETATM   26  C1  UNL     1      28.352  -1.808  53.130  1.00  0.00     0.210 C 
ENDBRANCH   1  25
TORSDOF 4
ENDMDL
MODEL 5
REMARK VINA RESULT:      -7.8      2.563      3.129
REMARK  4 active torsions:
REMARK  status: ('A' for Active; 'I' for Inactive)
REMARK    1  A    between atoms: O1_2  and  C2_3 
REMARK    2  A    between atoms: C8_11  and  N3_12 
REMARK    3  A    between atoms: N3_12  and  C9_13 
REMARK    4  A    between atoms: C12_16  and  C13_17 
ROOT
HETATM    1  C2  UNL     1      19.696   1.129  50.730  1.00  0.00     0.087 A 
HETATM    2  C3  UNL     1      19.487   0.647  52.006  1.00  0.00     0.070 A 
HETATM    3  C4  UNL     1      20.546   0.187  52.765  1.00  0.00     0.071 A 
HETATM    4  N1  UNL     1      20.235  -0.254  53.977  1.00  0.00    -0.259 NA
HETATM    5  C5  UNL     1      21.229  -0.715  54.759  1.00  0.00     0.142 A 
HETATM    6  C6  UNL     1      22.556  -0.756  54.373  1.00  0.00     0.089 A 
HETATM    7  C7  UNL     1      23.599  -1.255  55.232  1.00  0.00     0.103 C 
HETATM    8  N2  UNL     1      24.434  -1.642  55.933  1.00  0.00    -0.191 NA
HETATM    9  C8  UNL     1      22.849  -0.286  53.095  1.00  0.00     0.067 A 
HETATM   10  C16 UNL     1      21.838   0.196  52.269  1.00  0.00     0.022 A 
HETATM   11  C17 UNL     1      22.070   0.669  51.004  1.00  0.00     0.037 A 
HETATM   12  C18 UNL     1      20.990   1.128  50.257  1.00  0.00     0.040 A 
HETATM   13  I1  UNL     1      21.494   1.829  48.324  1.00  0.00    -0.042 I 
ENDROOT
BRANCH   9  14
HETATM   14  N3  UNL     1      24.177  -0.301  52.641  1.00  0.00    -0.354 N 
HETATM   15  H6  UNL     1      24.060  -0.956  51.835  1.00  0.00     0.166 HD
BRANCH  14  16
HETATM   16  C9  UNL     1      25.383   0.293  53.013  1.00  0.00     0.034 A 
HETATM   17  C10 UNL     1      25.361   1.630  53.362  1.00  0.00     0.030 A 
HETATM   18  C11 UNL     1      26.564   2.199  53.726  1.00  0.00     0.013 A 
HETATM   19  C12 UNL     1      27.729   1.443  53.734  1.00  0.00    -0.008 A 
HETATM   20  C14 UNL     1      27.740   0.113  53.384  1.00  0.00     0.044 A 
HETATM   21 CL1  UNL     1      29.231  -0.802  53.406  1.00  0.00    -0.084 Cl
HETATM   22  C15 UNL     1      26.535  -0.451  53.020  1.00  0.00     0.054 A 
BRANCH  19  23
HETATM   23  C13 UNL     1      29.019   2.053  54.123  1.00  0.00     0.262 C 
HETATM   24  F1  UNL     1      29.339   3.154  53.342  1.00  0.00    -0.251 F 
ENDBRANCH  19  23
ENDBRANCH  14  16
ENDBRANCH   9  14
BRANCH   1  25
HETATM   25  O1  UNL     1      18.766   1.624  49.837  1.00  0.00    -0.355 OA
HETATM   26  C1  UNL     1      17.956   2.750  50.083  1.00  0.00     0.210 C 
ENDBRANCH   1  25
TORSDOF 4
ENDMDL
MODEL 6
REMARK VINA RESULT:      -7.6      4.665      6.709
REMARK  4 active torsions:
REMARK  status: ('A' for Active; 'I' for Inactive)
REMARK    1  A    between atoms: O1_2  and  C2_3 
REMARK    2  A    between atoms: C8_11  and  N3_12 
REMARK    3  A    between atoms: N3_12  and  C9_13 
REMARK    4  A    between atoms: C12_16  and  C13_17 
ROOT
HETATM    1  C2  UNL     1      22.984   0.692  53.103  1.00  0.00     0.087 A 
HETATM    2  C3  UNL     1      21.813   1.295  52.692  1.00  0.00     0.070 A 
HETATM    3  C4  UNL     1      21.815   2.605  52.253  1.00  0.00     0.071 A 
HETATM    4  N1  UNL     1      20.635   3.087  51.881  1.00  0.00    -0.259 NA
HETATM    5  C5  UNL     1      20.579   4.360  51.445  1.00  0.00     0.142 A 
HETATM    6  C6  UNL     1      21.679   5.194  51.361  1.00  0.00     0.089 A 
HETATM    7  C7  UNL     1      21.588   6.552  50.890  1.00  0.00     0.103 C 
HETATM    8  N2  UNL     1      21.513   7.637  50.495  1.00  0.00    -0.191 NA
HETATM    9  C8  UNL     1      22.901   4.657  51.759  1.00  0.00     0.067 A 
HETATM   10  C16 UNL     1      22.984   3.344  52.213  1.00  0.00     0.022 A 
HETATM   11  C17 UNL     1      24.159   2.766  52.616  1.00  0.00     0.037 A 
HETATM   12  C18 UNL     1      24.135   1.446  53.055  1.00  0.00     0.040 A 
HETATM   13  I1  UNL     1      26.020   0.683  53.647  1.00  0.00    -0.042 I 
ENDROOT
BRANCH   9  14
HETATM   14  N3  UNL     1      24.056   5.451  51.699  1.00  0.00    -0.354 N 
HETATM   15  H6  UNL     1      24.095   5.747  52.702  1.00  0.00     0.166 HD
BRANCH  14  16
HETATM   16  C9  UNL     1      24.976   5.834  50.722  1.00  0.00     0.034 A 
HETATM   17  C10 UNL     1      25.528   4.842  49.934  1.00  0.00     0.030 A 
HETATM   18  C11 UNL     1      26.435   5.241  48.975  1.00  0.00     0.013 A 
HETATM   19  C12 UNL     1      26.761   6.583  48.826  1.00  0.00    -0.008 A 
HETATM   20  C14 UNL     1      26.206   7.563  49.616  1.00  0.00     0.044 A 
HETATM   21 CL1  UNL     1      26.646   9.241  49.396  1.00  0.00    -0.084 Cl
HETATM   22  C15 UNL     1      25.300   7.158  50.574  1.00  0.00     0.054 A 
BRANCH  19  23
HETATM   23  C13 UNL     1      27.734   7.011  47.798  1.00  0.00     0.262 C 
HETATM   24  F1  UNL     1      28.727   6.066  47.584  1.00  0.00    -0.251 F 
ENDBRANCH  19  23
ENDBRANCH  14  16
ENDBRANCH   9  14
BRANCH   1  25
HETATM   25  O1  UNL     1      23.167  -0.596  53.568  1.00  0.00    -0.355 OA
HETATM   26  C1  UNL     1      22.423  -1.172  54.615  1.00  0.00     0.210 C 
ENDBRANCH   1  25
TORSDOF 4
ENDMDL
MODEL 7
REMARK VINA RESULT:      -7.6      3.854      5.834
REMARK  4 active torsions:
REMARK  status: ('A' for Active; 'I' for Inactive)
REMARK    1  A    between atoms: O1_2  and  C2_3 
REMARK    2  A    between atoms: C8_11  and  N3_12 
REMARK    3  A    between atoms: N3_12  and  C9_13 
REMARK    4  A    between atoms: C12_16  and  C13_17 
ROOT
HETATM    1  C2  UNL     1      25.582   4.204  49.770  1.00  0.00     0.087 A 
HETATM    2  C3  UNL     1      26.489   3.247  50.175  1.00  0.00     0.070 A 
HETATM    3  C4  UNL     1      26.166   2.353  51.177  1.00  0.00     0.071 A 
HETATM    4  N1  UNL     1      27.111   1.474  51.489  1.00  0.00    -0.259 NA
HETATM    5  C5  UNL     1      26.849   0.579  52.460  1.00  0.00     0.142 A 
HETATM    6  C6  UNL     1      25.653   0.521  53.152  1.00  0.00     0.089 A 
HETATM    7  C7  UNL     1      25.402  -0.448  54.187  1.00  0.00     0.103 C 
HETATM    8  N2  UNL     1      25.200  -1.240  55.006  1.00  0.00    -0.191 NA
HETATM    9  C8  UNL     1      24.683   1.457  52.801  1.00  0.00     0.067 A 
HETATM   10  C16 UNL     1      24.931   2.392  51.800  1.00  0.00     0.022 A 
HETATM   11  C17 UNL     1      24.013   3.334  51.415  1.00  0.00     0.037 A 
HETATM   12  C18 UNL     1      24.359   4.225  50.404  1.00  0.00     0.040 A 
HETATM   13  I1  UNL     1      22.847   5.624  49.912  1.00  0.00    -0.042 I 
ENDROOT
BRANCH   9  14
HETATM   14  N3  UNL     1      23.448   1.454  53.465  1.00  0.00    -0.354 N 
HETATM   15  H6  UNL     1      23.677   2.131  54.228  1.00  0.00     0.166 HD
BRANCH  14  16
HETATM   16  C9  UNL     1      22.213   0.823  53.309  1.00  0.00     0.034 A 
HETATM   17  C10 UNL     1      21.821  -0.075  54.284  1.00  0.00     0.030 A 
HETATM   18  C11 UNL     1      20.598  -0.688  54.111  1.00  0.00     0.013 A 
HETATM   19  C12 UNL     1      19.814  -0.401  53.001  1.00  0.00    -0.008 A 
HETATM   20  C14 UNL     1      20.214   0.494  52.035  1.00  0.00     0.044 A 
HETATM   21 CL1  UNL     1      19.197   0.825  50.652  1.00  0.00    -0.084 Cl
HETATM   22  C15 UNL     1      21.438   1.104  52.213  1.00  0.00     0.054 A 
BRANCH  19  23
HETATM   23  C13 UNL     1      18.503  -1.059  52.814  1.00  0.00     0.262 C 
HETATM   24  F1  UNL     1      18.262  -2.035  53.771  1.00  0.00    -0.251 F 
ENDBRANCH  19  23
ENDBRANCH  14  16
ENDBRANCH   9  14
BRANCH   1  25
HETATM   25  O1  UNL     1      25.732   5.170  48.794  1.00  0.00    -0.355 OA
HETATM   26  C1  UNL     1      26.897   5.942  48.618  1.00  0.00     0.210 C 
ENDBRANCH   1  25
TORSDOF 4
ENDMDL
MODEL 8
REMARK VINA RESULT:      -7.6      4.387      6.577
REMARK  4 active torsions:
REMARK  status: ('A' for Active; 'I' for Inactive)
REMARK    1  A    between atoms: O1_2  and  C2_3 
REMARK    2  A    between atoms: C8_11  and  N3_12 
REMARK    3  A    between atoms: N3_12  and  C9_13 
REMARK    4  A    between atoms: C12_16  and  C13_17 
ROOT
HETATM    1  C2  UNL     1      25.126   3.103  50.260  1.00  0.00     0.087 A 
HETATM    2  C3  UNL     1      25.746   2.075  50.940  1.00  0.00     0.070 A 
HETATM    3  C4  UNL     1      25.046   1.325  51.867  1.00  0.00     0.071 A 
HETATM    4  N1  UNL     1      25.736   0.361  52.464  1.00  0.00    -0.259 NA
HETATM    5  C5  UNL     1      25.104  -0.400  53.377  1.00  0.00     0.142 A 
HETATM    6  C6  UNL     1      23.776  -0.236  53.729  1.00  0.00     0.089 A 
HETATM    7  C7  UNL     1      23.126  -1.066  54.709  1.00  0.00     0.103 C 
HETATM    8  N2  UNL     1      22.604  -1.747  55.486  1.00  0.00    -0.191 NA
HETATM    9  C8  UNL     1      23.081   0.784  53.084  1.00  0.00     0.067 A 
HETATM   10  C16 UNL     1      23.714   1.583  52.137  1.00  0.00     0.022 A 
HETATM   11  C17 UNL     1      23.078   2.600  51.473  1.00  0.00     0.037 A 
HETATM   12  C18 UNL     1      23.800   3.343  50.544  1.00  0.00     0.040 A 
HETATM   13  I1  UNL     1      22.693   4.879  49.597  1.00  0.00    -0.042 I 
ENDROOT
BRANCH   9  14
HETATM   14  N3  UNL     1      21.731   1.004  53.396  1.00  0.00    -0.354 N 
HETATM   15  H6  UNL     1      21.861   1.638  54.218  1.00  0.00     0.166 HD
BRANCH  14  16
HETATM   16  C9  UNL     1      20.494   0.599  52.894  1.00  0.00     0.034 A 
HETATM   17  C10 UNL     1      19.970   1.304  51.828  1.00  0.00     0.030 A 
HETATM   18  C11 UNL     1      18.746   0.888  51.346  1.00  0.00     0.013 A 
HETATM   19  C12 UNL     1      18.091  -0.193  51.923  1.00  0.00    -0.008 A 
HETATM   20  C14 UNL     1      18.621  -0.888  52.985  1.00  0.00     0.044 A 
HETATM   21 CL1  UNL     1      17.761  -2.242  53.682  1.00  0.00    -0.084 Cl
HETATM   22  C15 UNL     1      19.845  -0.467  53.463  1.00  0.00     0.054 A 
BRANCH  19  23
HETATM   23  C13 UNL     1      16.778  -0.639  51.408  1.00  0.00     0.262 C 
HETATM   24  F1  UNL     1      15.723  -0.177  52.181  1.00  0.00    -0.251 F 
ENDBRANCH  19  23
ENDBRANCH  14  16
ENDBRANCH   9  14
BRANCH   1  25
HETATM   25  O1  UNL     1      25.665   3.948  49.309  1.00  0.00    -0.355 OA
HETATM   26  C1  UNL     1      27.037   4.249  49.204  1.00  0.00     0.210 C 
ENDBRANCH   1  25
TORSDOF 4
ENDMDL
MODEL 9
REMARK VINA RESULT:      -7.6      4.623      7.123
REMARK  4 active torsions:
REMARK  status: ('A' for Active; 'I' for Inactive)
REMARK    1  A    between atoms: O1_2  and  C2_3 
REMARK    2  A    between atoms: C8_11  and  N3_12 
REMARK    3  A    between atoms: N3_12  and  C9_13 
REMARK    4  A    between atoms: C12_16  and  C13_17 
ROOT
HETATM    1  C2  UNL     1      26.711   1.675  52.703  1.00  0.00     0.087 A 
HETATM    2  C3  UNL     1      26.322   0.812  53.706  1.00  0.00     0.070 A 
HETATM    3  C4  UNL     1      25.039   0.298  53.730  1.00  0.00     0.071 A 
HETATM    4  N1  UNL     1      24.769  -0.523  54.738  1.00  0.00    -0.259 NA
HETATM    5  C5  UNL     1      23.533  -1.052  54.811  1.00  0.00     0.142 A 
HETATM    6  C6  UNL     1      22.529  -0.791  53.897  1.00  0.00     0.089 A 
HETATM    7  C7  UNL     1      21.215  -1.373  54.001  1.00  0.00     0.103 C 
HETATM    8  N2  UNL     1      20.167  -1.856  54.080  1.00  0.00    -0.191 NA
HETATM    9  C8  UNL     1      22.845   0.073  52.852  1.00  0.00     0.067 A 
HETATM   10  C16 UNL     1      24.116   0.633  52.756  1.00  0.00     0.022 A 
HETATM   11  C17 UNL     1      24.480   1.489  51.750  1.00  0.00     0.037 A 
HETATM   12  C18 UNL     1      25.776   1.995  51.743  1.00  0.00     0.040 A 
HETATM   13  I1  UNL     1      26.200   3.303  50.133  1.00  0.00    -0.042 I 
ENDROOT
BRANCH   9  14
HETATM   14  N3  UNL     1      21.870   0.381  51.891  1.00  0.00    -0.354 N 
HETATM   15  H6  UNL     1      22.180  -0.275  51.138  1.00  0.00     0.166 HD
BRANCH  14  16
HETATM   16  C9  UNL     1      20.778   1.243  51.793  1.00  0.00     0.034 A 
HETATM   17  C10 UNL     1      20.959   2.557  52.180  1.00  0.00     0.030 A 
HETATM   18  C11 UNL     1      19.866   3.394  52.076  1.00  0.00     0.013 A 
HETATM   19  C12 UNL     1      18.652   2.914  51.600  1.00  0.00    -0.008 A 
HETATM   20  C14 UNL     1      18.483   1.604  51.218  1.00  0.00     0.044 A 
HETATM   21 CL1  UNL     1      16.936   1.041  50.627  1.00  0.00    -0.084 Cl
HETATM   22  C15 UNL     1      19.578   0.771  51.325  1.00  0.00     0.054 A 
BRANCH  19  23
HETATM   23  C13 UNL     1      17.481   3.810  51.489  1.00  0.00     0.262 C 
HETATM   24  F1  UNL     1      17.594   4.696  50.428  1.00  0.00    -0.251 F 
ENDBRANCH  19  23
ENDBRANCH  14  16
ENDBRANCH   9  14
BRANCH   1  25
HETATM   25  O1  UNL     1      27.940   2.279  52.521  1.00  0.00    -0.355 OA
HETATM   26  C1  UNL     1      28.884   2.475  53.549  1.00  0.00     0.210 C 
ENDBRANCH   1  25
TORSDOF 4
ENDMDL
