MODEL 1
REMARK VINA RESULT:      -7.6      0.000      0.000
REMARK  7 active torsions:
REMARK  status: ('A' for Active; 'I' for Inactive)
REMARK    1  A    between atoms: C2_2  and  C3_3 
REMARK    2  A    between atoms: C4_4  and  C5_5 
REMARK    3  A    between atoms: C8_9  and  N2_10 
REMARK    4  A    between atoms: N2_10  and  C9_11 
REMARK    5  A    between atoms: C11_13  and  C12_14 
REMARK    6  A    between atoms: C13_15  and  O1_16 
REMARK    7  A    between atoms: C13_15  and  C15_18 
ROOT
HETATM    1  C9  UNL     1      22.659  -0.683  54.396  1.00  0.00     0.128 A 
HETATM    2  C10 UNL     1      23.708  -0.006  53.830  1.00  0.00     0.082 A 
HETATM    3  C11 UNL     1      24.993  -0.131  54.342  1.00  0.00     0.064 A 
HETATM    4  N3  UNL     1      25.215  -0.925  55.408  1.00  0.00    -0.242 NA
HETATM    5  C18 UNL     1      24.193  -1.589  55.964  1.00  0.00     0.235 A 
HETATM    6  N4  UNL     1      22.962  -1.450  55.447  1.00  0.00    -0.225 NA
ENDROOT
BRANCH   1   7
HETATM    7  N2  UNL     1      21.327  -0.637  53.986  1.00  0.00    -0.352 N 
HETATM    8  H11 UNL     1      20.980  -1.423  54.615  1.00  0.00     0.163 HD
BRANCH   7   9
HETATM    9  C8  UNL     1      20.427   0.037  53.121  1.00  0.00     0.210 C 
HETATM   10  N1  UNL     1      19.082  -0.450  53.079  1.00  0.00    -0.275 NA
HETATM   11  C7  UNL     1      18.589  -0.261  51.905  1.00  0.00     0.120 C 
HETATM   12  C6  UNL     1      19.547   0.373  51.032  1.00  0.00    -0.037 C 
HETATM   13  C5  UNL     1      19.311   1.153  49.997  1.00  0.00     0.008 C 
HETATM   14  C19 UNL     1      20.848  -0.076  51.645  1.00  0.00     0.088 C 
BRANCH  13  15
HETATM   15  C4  UNL     1      20.406   1.682  49.257  1.00  0.00    -0.003 C 
HETATM   16  C3  UNL     1      21.133   1.998  48.231  1.00  0.00    -0.027 C 
BRANCH  16  17
HETATM   17  C2  UNL     1      22.355   2.608  47.698  1.00  0.00     0.022 C 
HETATM   18  C1  UNL     1      23.336   2.970  48.807  1.00  0.00     0.009 C 
ENDBRANCH  16  17
ENDBRANCH  13  15
ENDBRANCH   7   9
ENDBRANCH   1   7
BRANCH   3  19
HETATM   19  C12 UNL     1      26.084   0.627  53.689  1.00  0.00     0.071 C 
HETATM   20  C13 UNL     1      27.281   0.363  53.218  1.00  0.00     0.103 C 
BRANCH  20  21
HETATM   21  O1  UNL     1      28.096   1.366  52.640  1.00  0.00    -0.353 OA
HETATM   22  C14 UNL     1      28.514   2.403  53.501  1.00  0.00     0.210 C 
ENDBRANCH  20  21
BRANCH  20  23
HETATM   23  C15 UNL     1      27.963  -0.935  53.197  1.00  0.00     0.100 A 
HETATM   24  C16 UNL     1      29.229  -1.241  53.376  1.00  0.00     0.039 A 
HETATM   25  C17 UNL     1      29.000  -2.673  53.190  1.00  0.00     0.206 A 
HETATM   26  O2  UNL     1      27.682  -2.271  53.012  1.00  0.00    -0.345 OA
ENDBRANCH  20  23
ENDBRANCH   3  19
TORSDOF 7
ENDMDL
MODEL 2
REMARK VINA RESULT:      -7.6      4.868      7.300
REMARK  7 active torsions:
REMARK  status: ('A' for Active; 'I' for Inactive)
REMARK    1  A    between atoms: C2_2  and  C3_3 
REMARK    2  A    between atoms: C4_4  and  C5_5 
REMARK    3  A    between atoms: C8_9  and  N2_10 
REMARK    4  A    between atoms: N2_10  and  C9_11 
REMARK    5  A    between atoms: C11_13  and  C12_14 
REMARK    6  A    between atoms: C13_15  and  O1_16 
REMARK    7  A    between atoms: C13_15  and  C15_18 
ROOT
HETATM    1  C9  UNL     1      24.891   3.334  50.916  1.00  0.00     0.128 A 
HETATM    2  C10 UNL     1      25.481   2.178  51.355  1.00  0.00     0.082 A 
HETATM    3  C11 UNL     1      24.885   1.408  52.346  1.00  0.00     0.064 A 
HETATM    4  N3  UNL     1      23.713   1.799  52.884  1.00  0.00    -0.242 NA
HETATM    5  C18 UNL     1      23.132   2.929  52.457  1.00  0.00     0.235 A 
HETATM    6  N4  UNL     1      23.731   3.651  51.498  1.00  0.00    -0.225 NA
ENDROOT
BRANCH   1   7
HETATM    7  N2  UNL     1      25.388   4.197  49.940  1.00  0.00    -0.352 N 
HETATM    8  H11 UNL     1      24.750   3.867  49.152  1.00  0.00     0.163 HD
BRANCH   7   9
HETATM    9  C8  UNL     1      26.335   5.227  49.709  1.00  0.00     0.210 C 
HETATM   10  N1  UNL     1      25.825   6.489  49.266  1.00  0.00    -0.275 NA
HETATM   11  C7  UNL     1      26.689   7.063  48.505  1.00  0.00     0.120 C 
HETATM   12  C6  UNL     1      27.872   6.251  48.353  1.00  0.00    -0.037 C 
HETATM   13  C5  UNL     1      29.104   6.648  48.109  1.00  0.00     0.008 C 
HETATM   14  C19 UNL     1      27.314   4.869  48.576  1.00  0.00     0.088 C 
BRANCH  13  15
HETATM   15  C4  UNL     1      30.141   5.680  47.992  1.00  0.00    -0.003 C 
HETATM   16  C3  UNL     1      31.244   5.131  47.589  1.00  0.00    -0.027 C 
BRANCH  16  17
HETATM   17  C2  UNL     1      32.173   3.998  47.637  1.00  0.00     0.022 C 
HETATM   18  C1  UNL     1      32.493   3.470  46.244  1.00  0.00     0.009 C 
ENDBRANCH  16  17
ENDBRANCH  13  15
ENDBRANCH   7   9
ENDBRANCH   1   7
BRANCH   3  19
HETATM   19  C12 UNL     1      25.572   0.170  52.779  1.00  0.00     0.071 C 
HETATM   20  C13 UNL     1      26.720  -0.140  53.336  1.00  0.00     0.103 C 
BRANCH  20  21
HETATM   21  O1  UNL     1      27.076  -1.481  53.620  1.00  0.00    -0.353 OA
HETATM   22  C14 UNL     1      27.142  -2.356  52.515  1.00  0.00     0.210 C 
ENDBRANCH  20  21
BRANCH  20  23
HETATM   23  C15 UNL     1      27.787   0.778  53.747  1.00  0.00     0.100 A 
HETATM   24  C16 UNL     1      29.092   0.627  53.752  1.00  0.00     0.039 A 
HETATM   25  C17 UNL     1      29.334   1.966  54.288  1.00  0.00     0.206 A 
HETATM   26  O2  UNL     1      27.947   2.049  54.253  1.00  0.00    -0.345 OA
ENDBRANCH  20  23
ENDBRANCH   3  19
TORSDOF 7
ENDMDL
MODEL 3
REMARK VINA RESULT:      -7.3      4.150      6.889
REMARK  7 active torsions:
REMARK  status: ('A' for Active; 'I' for Inactive)
REMARK    1  A    between atoms: C2_2  and  C3_3 
REMARK    2  A    between atoms: C4_4  and  C5_5 
REMARK    3  A    between atoms: C8_9  and  N2_10 
REMARK    4  A    between atoms: N2_10  and  C9_11 
REMARK    5  A    between atoms: C11_13  and  C12_14 
REMARK    6  A    between atoms: C13_15  and  O1_16 
REMARK    7  A    between atoms: C13_15  and  C15_18 
ROOT
HETATM    1  C9  UNL     1      26.336   0.976  52.187  1.00  0.00     0.128 A 
HETATM    2  C10 UNL     1      25.175   0.567  52.787  1.00  0.00     0.082 A 
HETATM    3  C11 UNL     1      25.198  -0.373  53.810  1.00  0.00     0.064 A 
HETATM    4  N3  UNL     1      26.374  -0.889  54.219  1.00  0.00    -0.242 NA
HETATM    5  C18 UNL     1      27.512  -0.491  53.635  1.00  0.00     0.235 A 
HETATM    6  N4  UNL     1      27.459   0.419  52.650  1.00  0.00    -0.225 NA
ENDROOT
BRANCH   1   7
HETATM    7  N2  UNL     1      26.449   1.901  51.148  1.00  0.00    -0.352 N 
HETATM    8  H11 UNL     1      26.809   1.215  50.415  1.00  0.00     0.163 HD
BRANCH   7   9
HETATM    9  C8  UNL     1      26.257   3.266  50.816  1.00  0.00     0.210 C 
HETATM   10  N1  UNL     1      24.905   3.720  50.699  1.00  0.00    -0.275 NA
HETATM   11  C7  UNL     1      24.837   4.658  49.820  1.00  0.00     0.120 C 
HETATM   12  C6  UNL     1      26.133   4.935  49.251  1.00  0.00    -0.037 C 
HETATM   13  C5  UNL     1      26.572   6.070  48.745  1.00  0.00     0.008 C 
HETATM   14  C19 UNL     1      26.824   3.608  49.426  1.00  0.00     0.088 C 
BRANCH  13  15
HETATM   15  C4  UNL     1      27.896   6.138  48.227  1.00  0.00    -0.003 C 
HETATM   16  C3  UNL     1      29.193   6.127  48.214  1.00  0.00    -0.027 C 
BRANCH  16  17
HETATM   17  C2  UNL     1      30.442   6.237  47.454  1.00  0.00     0.022 C 
HETATM   18  C1  UNL     1      31.319   5.003  47.628  1.00  0.00     0.009 C 
ENDBRANCH  16  17
ENDBRANCH  13  15
ENDBRANCH   7   9
ENDBRANCH   1   7
BRANCH   3  19
HETATM   19  C12 UNL     1      23.910  -0.777  54.419  1.00  0.00     0.071 C 
HETATM   20  C13 UNL     1      22.635  -0.612  54.153  1.00  0.00     0.103 C 
BRANCH  20  21
HETATM   21  O1  UNL     1      21.622  -1.151  54.983  1.00  0.00    -0.353 OA
HETATM   22  C14 UNL     1      20.580  -1.840  54.328  1.00  0.00     0.210 C 
ENDBRANCH  20  21
BRANCH  20  23
HETATM   23  C15 UNL     1      22.047   0.110  53.020  1.00  0.00     0.100 A 
HETATM   24  C16 UNL     1      21.558   1.326  52.941  1.00  0.00     0.039 A 
HETATM   25  C17 UNL     1      21.221   1.194  51.523  1.00  0.00     0.206 A 
HETATM   26  O2  UNL     1      21.756  -0.080  51.687  1.00  0.00    -0.345 OA
ENDBRANCH  20  23
ENDBRANCH   3  19
TORSDOF 7
ENDMDL
MODEL 4
REMARK VINA RESULT:      -7.3      3.116      6.765
REMARK  7 active torsions:
REMARK  status: ('A' for Active; 'I' for Inactive)
REMARK    1  A    between atoms: C2_2  and  C3_3 
REMARK    2  A    between atoms: C4_4  and  C5_5 
REMARK    3  A    between atoms: C8_9  and  N2_10 
REMARK    4  A    between atoms: N2_10  and  C9_11 
REMARK    5  A    between atoms: C11_13  and  C12_14 
REMARK    6  A    between atoms: C13_15  and  O1_16 
REMARK    7  A    between atoms: C13_15  and  C15_18 
ROOT
HETATM    1  C9  UNL     1      22.205  -0.558  53.874  1.00  0.00     0.128 A 
HETATM    2  C10 UNL     1      21.715   0.579  53.288  1.00  0.00     0.082 A 
HETATM    3  C11 UNL     1      20.362   0.700  52.996  1.00  0.00     0.064 A 
HETATM    4  N3  UNL     1      19.520  -0.310  53.290  1.00  0.00    -0.242 NA
HETATM    5  C18 UNL     1      19.995  -1.423  53.863  1.00  0.00     0.235 A 
HETATM    6  N4  UNL     1      21.306  -1.512  54.136  1.00  0.00    -0.225 NA
ENDROOT
BRANCH   1   7
HETATM    7  N2  UNL     1      23.536  -0.808  54.209  1.00  0.00    -0.352 N 
HETATM    8  H11 UNL     1      23.334  -1.483  55.009  1.00  0.00     0.163 HD
BRANCH   7   9
HETATM    9  C8  UNL     1      24.874  -0.492  53.861  1.00  0.00     0.210 C 
HETATM   10  N1  UNL     1      25.863  -0.644  54.884  1.00  0.00    -0.275 NA
HETATM   11  C7  UNL     1      26.799   0.222  54.714  1.00  0.00     0.120 C 
HETATM   12  C6  UNL     1      26.541   1.050  53.561  1.00  0.00    -0.037 C 
HETATM   13  C5  UNL     1      27.416   1.661  52.788  1.00  0.00     0.008 C 
HETATM   14  C19 UNL     1      25.038   0.992  53.484  1.00  0.00     0.088 C 
BRANCH  13  15
HETATM   15  C4  UNL     1      26.955   2.440  51.690  1.00  0.00    -0.003 C 
HETATM   16  C3  UNL     1      26.620   2.738  50.473  1.00  0.00    -0.027 C 
BRANCH  16  17
HETATM   17  C2  UNL     1      26.122   3.729  49.514  1.00  0.00     0.022 C 
HETATM   18  C1  UNL     1      27.253   4.556  48.916  1.00  0.00     0.009 C 
ENDBRANCH  16  17
ENDBRANCH  13  15
ENDBRANCH   7   9
ENDBRANCH   1   7
BRANCH   3  19
HETATM   19  C12 UNL     1      19.892   1.953  52.361  1.00  0.00     0.071 C 
HETATM   20  C13 UNL     1      19.999   2.526  51.184  1.00  0.00     0.103 C 
BRANCH  20  21
HETATM   21  O1  UNL     1      19.406   3.781  50.906  1.00  0.00    -0.353 OA
HETATM   22  C14 UNL     1      18.046   3.919  51.258  1.00  0.00     0.210 C 
ENDBRANCH  20  21
BRANCH  20  23
HETATM   23  C15 UNL     1      20.703   2.012  50.005  1.00  0.00     0.100 A 
HETATM   24  C16 UNL     1      21.974   1.736  49.818  1.00  0.00     0.039 A 
HETATM   25  C17 UNL     1      21.769   1.307  48.435  1.00  0.00     0.206 A 
HETATM   26  O2  UNL     1      20.443   1.622  48.709  1.00  0.00    -0.345 OA
ENDBRANCH  20  23
ENDBRANCH   3  19
TORSDOF 7
ENDMDL
MODEL 5
REMARK VINA RESULT:      -7.2      5.626      8.429
REMARK  7 active torsions:
REMARK  status: ('A' for Active; 'I' for Inactive)
REMARK    1  A    between atoms: C2_2  and  C3_3 
REMARK    2  A    between atoms: C4_4  and  C5_5 
REMARK    3  A    between atoms: C8_9  and  N2_10 
REMARK    4  A    between atoms: N2_10  and  C9_11 
REMARK    5  A    between atoms: C11_13  and  C12_14 
REMARK    6  A    between atoms: C13_15  and  O1_16 
REMARK    7  A    between atoms: C13_15  and  C15_18 
ROOT
HETATM    1  C9  UNL     1      25.918   4.488  49.911  1.00  0.00     0.128 A 
HETATM    2  C10 UNL     1      27.171   4.483  49.357  1.00  0.00     0.082 A 
HETATM    3  C11 UNL     1      27.594   5.529  48.547  1.00  0.00     0.064 A 
HETATM    4  N3  UNL     1      26.765   6.562  48.300  1.00  0.00    -0.242 NA
HETATM    5  C18 UNL     1      25.538   6.571  48.839  1.00  0.00     0.235 A 
HETATM    6  N4  UNL     1      25.158   5.548  49.619  1.00  0.00    -0.225 NA
ENDROOT
BRANCH   1   7
HETATM    7  N2  UNL     1      25.372   3.500  50.730  1.00  0.00    -0.352 N 
HETATM    8  H11 UNL     1      24.371   3.587  50.372  1.00  0.00     0.163 HD
BRANCH   7   9
HETATM    9  C8  UNL     1      25.691   2.553  51.736  1.00  0.00     0.210 C 
HETATM   10  N1  UNL     1      26.981   1.938  51.662  1.00  0.00    -0.275 NA
HETATM   11  C7  UNL     1      26.919   0.741  52.132  1.00  0.00     0.120 C 
HETATM   12  C6  UNL     1      25.582   0.422  52.571  1.00  0.00    -0.037 C 
HETATM   13  C5  UNL     1      25.217  -0.426  53.510  1.00  0.00     0.008 C 
HETATM   14  C19 UNL     1      24.757   1.329  51.695  1.00  0.00     0.088 C 
BRANCH  13  15
HETATM   15  C4  UNL     1      23.833  -0.602  53.795  1.00  0.00    -0.003 C 
HETATM   16  C3  UNL     1      22.765  -0.928  54.453  1.00  0.00    -0.027 C 
BRANCH  16  17
HETATM   17  C2  UNL     1      21.302  -1.009  54.513  1.00  0.00     0.022 C 
HETATM   18  C1  UNL     1      20.650   0.342  54.252  1.00  0.00     0.009 C 
ENDBRANCH  16  17
ENDBRANCH  13  15
ENDBRANCH   7   9
ENDBRANCH   1   7
BRANCH   3  19
HETATM   19  C12 UNL     1      28.959   5.466  47.976  1.00  0.00     0.071 C 
HETATM   20  C13 UNL     1      30.007   6.255  47.919  1.00  0.00     0.103 C 
BRANCH  20  21
HETATM   21  O1  UNL     1      31.200   5.868  47.261  1.00  0.00    -0.353 OA
HETATM   22  C14 UNL     1      31.801   4.673  47.713  1.00  0.00     0.210 C 
ENDBRANCH  20  21
BRANCH  20  23
HETATM   23  C15 UNL     1      30.141   7.600  48.488  1.00  0.00     0.100 A 
HETATM   24  C16 UNL     1      31.073   8.115  49.258  1.00  0.00     0.039 A 
HETATM   25  C17 UNL     1      30.422   9.423  49.321  1.00  0.00     0.206 A 
HETATM   26  O2  UNL     1      29.478   8.807  48.507  1.00  0.00    -0.345 OA
ENDBRANCH  20  23
ENDBRANCH   3  19
TORSDOF 7
ENDMDL
MODEL 6
REMARK VINA RESULT:      -7.2      5.098      8.021
REMARK  7 active torsions:
REMARK  status: ('A' for Active; 'I' for Inactive)
REMARK    1  A    between atoms: C2_2  and  C3_3 
REMARK    2  A    between atoms: C4_4  and  C5_5 
REMARK    3  A    between atoms: C8_9  and  N2_10 
REMARK    4  A    between atoms: N2_10  and  C9_11 
REMARK    5  A    between atoms: C11_13  and  C12_14 
REMARK    6  A    between atoms: C13_15  and  O1_16 
REMARK    7  A    between atoms: C13_15  and  C15_18 
ROOT
HETATM    1  C9  UNL     1      24.611   4.308  50.120  1.00  0.00     0.128 A 
HETATM    2  C10 UNL     1      25.916   4.138  49.739  1.00  0.00     0.082 A 
HETATM    3  C11 UNL     1      26.563   5.101  48.976  1.00  0.00     0.064 A 
HETATM    4  N3  UNL     1      25.904   6.216  48.604  1.00  0.00    -0.242 NA
HETATM    5  C18 UNL     1      24.628   6.387  48.974  1.00  0.00     0.235 A 
HETATM    6  N4  UNL     1      24.028   5.440  49.713  1.00  0.00    -0.225 NA
ENDROOT
BRANCH   1   7
HETATM    7  N2  UNL     1      23.847   3.418  50.875  1.00  0.00    -0.352 N 
HETATM    8  H11 UNL     1      23.061   4.101  51.107  1.00  0.00     0.163 HD
BRANCH   7   9
HETATM    9  C8  UNL     1      23.798   2.083  51.352  1.00  0.00     0.210 C 
HETATM   10  N1  UNL     1      22.551   1.632  51.889  1.00  0.00    -0.275 NA
HETATM   11  C7  UNL     1      22.766   0.768  52.818  1.00  0.00     0.120 C 
HETATM   12  C6  UNL     1      24.179   0.547  53.008  1.00  0.00    -0.037 C 
HETATM   13  C5  UNL     1      24.777  -0.539  53.452  1.00  0.00     0.008 C 
HETATM   14  C19 UNL     1      24.750   1.860  52.541  1.00  0.00     0.088 C 
BRANCH  13  15
HETATM   15  C4  UNL     1      26.196  -0.557  53.569  1.00  0.00    -0.003 C 
HETATM   16  C3  UNL     1      27.440  -0.620  53.208  1.00  0.00    -0.027 C 
BRANCH  16  17
HETATM   17  C2  UNL     1      28.858  -0.614  53.580  1.00  0.00     0.022 C 
HETATM   18  C1  UNL     1      29.518  -1.960  53.312  1.00  0.00     0.009 C 
ENDBRANCH  16  17
ENDBRANCH  13  15
ENDBRANCH   7   9
ENDBRANCH   1   7
BRANCH   3  19
HETATM   19  C12 UNL     1      27.974   4.860  48.594  1.00  0.00     0.071 C 
HETATM   20  C13 UNL     1      28.997   5.588  48.211  1.00  0.00     0.103 C 
BRANCH  20  21
HETATM   21  O1  UNL     1      30.254   5.011  47.906  1.00  0.00    -0.353 OA
HETATM   22  C14 UNL     1      31.352   5.471  48.665  1.00  0.00     0.210 C 
ENDBRANCH  20  21
BRANCH  20  23
HETATM   23  C15 UNL     1      29.039   7.044  48.039  1.00  0.00     0.100 A 
HETATM   24  C16 UNL     1      28.801   7.788  46.982  1.00  0.00     0.039 A 
HETATM   25  C17 UNL     1      29.068   9.038  47.694  1.00  0.00     0.206 A 
HETATM   26  O2  UNL     1      29.304   8.184  48.765  1.00  0.00    -0.345 OA
ENDBRANCH  20  23
ENDBRANCH   3  19
TORSDOF 7
ENDMDL
MODEL 7
REMARK VINA RESULT:      -7.1      4.578      6.958
REMARK  7 active torsions:
REMARK  status: ('A' for Active; 'I' for Inactive)
REMARK    1  A    between atoms: C2_2  and  C3_3 
REMARK    2  A    between atoms: C4_4  and  C5_5 
REMARK    3  A    between atoms: C8_9  and  N2_10 
REMARK    4  A    between atoms: N2_10  and  C9_11 
REMARK    5  A    between atoms: C11_13  and  C12_14 
REMARK    6  A    between atoms: C13_15  and  O1_16 
REMARK    7  A    between atoms: C13_15  and  C15_18 
ROOT
HETATM    1  C9  UNL     1      24.113   3.508  51.165  1.00  0.00     0.128 A 
HETATM    2  C10 UNL     1      24.054   2.586  52.177  1.00  0.00     0.082 A 
HETATM    3  C11 UNL     1      23.321   1.416  52.030  1.00  0.00     0.064 A 
HETATM    4  N3  UNL     1      22.659   1.180  50.881  1.00  0.00    -0.242 NA
HETATM    5  C18 UNL     1      22.713   2.077  49.888  1.00  0.00     0.235 A 
HETATM    6  N4  UNL     1      23.430   3.199  50.058  1.00  0.00    -0.225 NA
ENDROOT
BRANCH   1   7
HETATM    7  N2  UNL     1      24.801   4.720  51.188  1.00  0.00    -0.352 N 
HETATM    8  H11 UNL     1      24.997   4.727  52.236  1.00  0.00     0.163 HD
BRANCH   7   9
HETATM    9  C8  UNL     1      25.257   5.785  50.369  1.00  0.00     0.210 C 
HETATM   10  N1  UNL     1      24.266   6.499  49.624  1.00  0.00    -0.275 NA
HETATM   11  C7  UNL     1      24.773   6.921  48.520  1.00  0.00     0.120 C 
HETATM   12  C6  UNL     1      26.159   6.536  48.401  1.00  0.00    -0.037 C 
HETATM   13  C5  UNL     1      27.118   7.148  47.737  1.00  0.00     0.008 C 
HETATM   14  C19 UNL     1      26.194   5.292  49.251  1.00  0.00     0.088 C 
BRANCH  13  15
HETATM   15  C4  UNL     1      28.432   6.600  47.743  1.00  0.00    -0.003 C 
HETATM   16  C3  UNL     1      29.451   5.905  48.141  1.00  0.00    -0.027 C 
BRANCH  16  17
HETATM   17  C2  UNL     1      30.838   5.477  47.932  1.00  0.00     0.022 C 
HETATM   18  C1  UNL     1      31.693   6.596  47.351  1.00  0.00     0.009 C 
ENDBRANCH  16  17
ENDBRANCH  13  15
ENDBRANCH   7   9
ENDBRANCH   1   7
BRANCH   3  19
HETATM   19  C12 UNL     1      23.295   0.459  53.161  1.00  0.00     0.071 C 
HETATM   20  C13 UNL     1      24.164  -0.298  53.791  1.00  0.00     0.103 C 
BRANCH  20  21
HETATM   21  O1  UNL     1      23.784  -1.131  54.871  1.00  0.00    -0.353 OA
HETATM   22  C14 UNL     1      22.398  -1.316  55.059  1.00  0.00     0.210 C 
ENDBRANCH  20  21
BRANCH  20  23
HETATM   23  C15 UNL     1      25.600  -0.420  53.522  1.00  0.00     0.100 A 
HETATM   24  C16 UNL     1      26.260  -0.436  52.385  1.00  0.00     0.039 A 
HETATM   25  C17 UNL     1      27.559  -0.582  53.040  1.00  0.00     0.206 A 
HETATM   26  O2  UNL     1      26.791  -0.557  54.199  1.00  0.00    -0.345 OA
ENDBRANCH  20  23
ENDBRANCH   3  19
TORSDOF 7
ENDMDL
MODEL 8
REMARK VINA RESULT:      -7.0      3.307      5.673
REMARK  7 active torsions:
REMARK  status: ('A' for Active; 'I' for Inactive)
REMARK    1  A    between atoms: C2_2  and  C3_3 
REMARK    2  A    between atoms: C4_4  and  C5_5 
REMARK    3  A    between atoms: C8_9  and  N2_10 
REMARK    4  A    between atoms: N2_10  and  C9_11 
REMARK    5  A    between atoms: C11_13  and  C12_14 
REMARK    6  A    between atoms: C13_15  and  O1_16 
REMARK    7  A    between atoms: C13_15  and  C15_18 
ROOT
HETATM    1  C9  UNL     1      25.005   1.201  52.472  1.00  0.00     0.128 A 
HETATM    2  C10 UNL     1      24.561   2.199  51.646  1.00  0.00     0.082 A 
HETATM    3  C11 UNL     1      25.460   3.041  51.004  1.00  0.00     0.064 A 
HETATM    4  N3  UNL     1      26.784   2.878  51.193  1.00  0.00    -0.242 NA
HETATM    5  C18 UNL     1      27.222   1.903  52.001  1.00  0.00     0.235 A 
HETATM    6  N4  UNL     1      26.331   1.104  52.607  1.00  0.00    -0.225 NA
ENDROOT
BRANCH   1   7
HETATM    7  N2  UNL     1      24.211   0.299  53.180  1.00  0.00    -0.352 N 
HETATM    8  H11 UNL     1      24.965  -0.442  53.318  1.00  0.00     0.163 HD
BRANCH   7   9
HETATM    9  C8  UNL     1      22.906   0.097  53.699  1.00  0.00     0.210 C 
HETATM   10  N1  UNL     1      22.757  -0.913  54.701  1.00  0.00    -0.275 NA
HETATM   11  C7  UNL     1      21.588  -1.444  54.612  1.00  0.00     0.120 C 
HETATM   12  C6  UNL     1      20.826  -0.851  53.540  1.00  0.00    -0.037 C 
HETATM   13  C5  UNL     1      19.517  -0.738  53.440  1.00  0.00     0.008 C 
HETATM   14  C19 UNL     1      21.923  -0.388  52.617  1.00  0.00     0.088 C 
BRANCH  13  15
HETATM   15  C4  UNL     1      18.955  -0.116  52.290  1.00  0.00    -0.003 C 
HETATM   16  C3  UNL     1      18.735   0.140  51.038  1.00  0.00    -0.027 C 
BRANCH  16  17
HETATM   17  C2  UNL     1      18.024   0.923  50.022  1.00  0.00     0.022 C 
HETATM   18  C1  UNL     1      16.587   0.450  49.847  1.00  0.00     0.009 C 
ENDBRANCH  16  17
ENDBRANCH  13  15
ENDBRANCH   7   9
ENDBRANCH   1   7
BRANCH   3  19
HETATM   19  C12 UNL     1      24.919   4.103  50.123  1.00  0.00     0.071 C 
HETATM   20  C13 UNL     1      25.403   4.962  49.256  1.00  0.00     0.103 C 
BRANCH  20  21
HETATM   21  O1  UNL     1      24.571   5.878  48.567  1.00  0.00    -0.353 OA
HETATM   22  C14 UNL     1      23.281   5.416  48.229  1.00  0.00     0.210 C 
ENDBRANCH  20  21
BRANCH  20  23
HETATM   23  C15 UNL     1      26.803   5.130  48.855  1.00  0.00     0.100 A 
HETATM   24  C16 UNL     1      27.460   6.199  48.465  1.00  0.00     0.039 A 
HETATM   25  C17 UNL     1      28.715   5.470  48.285  1.00  0.00     0.206 A 
HETATM   26  O2  UNL     1      27.953   4.386  48.705  1.00  0.00    -0.345 OA
ENDBRANCH  20  23
ENDBRANCH   3  19
TORSDOF 7
ENDMDL
MODEL 9
REMARK VINA RESULT:      -6.9      5.229      8.252
REMARK  7 active torsions:
REMARK  status: ('A' for Active; 'I' for Inactive)
REMARK    1  A    between atoms: C2_2  and  C3_3 
REMARK    2  A    between atoms: C4_4  and  C5_5 
REMARK    3  A    between atoms: C8_9  and  N2_10 
REMARK    4  A    between atoms: N2_10  and  C9_11 
REMARK    5  A    between atoms: C11_13  and  C12_14 
REMARK    6  A    between atoms: C13_15  and  O1_16 
REMARK    7  A    between atoms: C13_15  and  C15_18 
ROOT
HETATM    1  C9  UNL     1      23.562   5.731  51.619  1.00  0.00     0.128 A 
HETATM    2  C10 UNL     1      24.501   6.641  51.210  1.00  0.00     0.082 A 
HETATM    3  C11 UNL     1      24.131   7.764  50.481  1.00  0.00     0.064 A 
HETATM    4  N3  UNL     1      22.836   7.964  50.169  1.00  0.00    -0.242 NA
HETATM    5  C18 UNL     1      21.914   7.077  50.567  1.00  0.00     0.235 A 
HETATM    6  N4  UNL     1      22.300   6.002  51.271  1.00  0.00    -0.225 NA
ENDROOT
BRANCH   1   7
HETATM    7  N2  UNL     1      23.802   4.564  52.344  1.00  0.00    -0.352 N 
HETATM    8  H11 UNL     1      23.920   5.035  53.293  1.00  0.00     0.163 HD
BRANCH   7   9
HETATM    9  C8  UNL     1      23.914   3.155  52.226  1.00  0.00     0.210 C 
HETATM   10  N1  UNL     1      22.731   2.388  52.468  1.00  0.00    -0.275 NA
HETATM   11  C7  UNL     1      23.049   1.246  52.968  1.00  0.00     0.120 C 
HETATM   12  C6  UNL     1      24.479   1.122  53.118  1.00  0.00    -0.037 C 
HETATM   13  C5  UNL     1      25.204   0.023  53.103  1.00  0.00     0.008 C 
HETATM   14  C19 UNL     1      24.888   2.565  53.262  1.00  0.00     0.088 C 
BRANCH  13  15
HETATM   15  C4  UNL     1      26.615   0.113  53.271  1.00  0.00    -0.003 C 
HETATM   16  C3  UNL     1      27.759   0.197  53.876  1.00  0.00    -0.027 C 
BRANCH  16  17
HETATM   17  C2  UNL     1      29.220   0.287  53.793  1.00  0.00     0.022 C 
HETATM   18  C1  UNL     1      29.856  -1.073  53.534  1.00  0.00     0.009 C 
ENDBRANCH  16  17
ENDBRANCH  13  15
ENDBRANCH   7   9
ENDBRANCH   1   7
BRANCH   3  19
HETATM   19  C12 UNL     1      25.192   8.711  50.067  1.00  0.00     0.071 C 
HETATM   20  C13 UNL     1      26.364   8.635  49.480  1.00  0.00     0.103 C 
BRANCH  20  21
HETATM   21  O1  UNL     1      27.152   9.785  49.231  1.00  0.00    -0.353 OA
HETATM   22  C14 UNL     1      26.564  10.781  48.423  1.00  0.00     0.210 C 
ENDBRANCH  20  21
BRANCH  20  23
HETATM   23  C15 UNL     1      27.040   7.428  48.995  1.00  0.00     0.100 A 
HETATM   24  C16 UNL     1      28.181   7.282  48.359  1.00  0.00     0.039 A 
HETATM   25  C17 UNL     1      28.056   5.826  48.288  1.00  0.00     0.206 A 
HETATM   26  O2  UNL     1      26.863   6.062  48.961  1.00  0.00    -0.345 OA
ENDBRANCH  20  23
ENDBRANCH   3  19
TORSDOF 7
ENDMDL
