MODEL 1
REMARK VINA RESULT:      -9.7      0.000      0.000
REMARK  3 active torsions:
REMARK  status: ('A' for Active; 'I' for Inactive)
REMARK    1  A    between atoms: N1_1  and  C1_2 
REMARK    2  A    between atoms: C1_2  and  N2_3 
REMARK    3  A    between atoms: N5_14  and  C10_15 
ROOT
HETATM    1  N2  UNL     1      25.924   2.751  51.235  1.00  0.00    -0.262 N 
HETATM    2  C2  UNL     1      24.616   2.593  51.957  1.00  0.00     0.291 C 
HETATM    3  N3  UNL     1      24.849   1.736  53.133  1.00  0.00    -0.276 N 
HETATM    4  C3  UNL     1      25.924   2.517  53.745  1.00  0.00     0.271 C 
HETATM    5  N4  UNL     1      26.218   1.641  54.703  1.00  0.00    -0.259 NA
HETATM    6  C4  UNL     1      26.634   0.385  54.222  1.00  0.00     0.071 C 
HETATM    7  C5  UNL     1      27.686  -0.313  53.728  1.00  0.00     0.012 C 
HETATM    8  C6  UNL     1      27.204  -0.265  52.387  1.00  0.00    -0.016 C 
HETATM    9  C7  UNL     1      26.947  -1.699  52.470  1.00  0.00     0.009 C 
HETATM   10  C8  UNL     1      25.695  -1.532  53.024  1.00  0.00     0.007 C 
HETATM   11  C9  UNL     1      25.379  -0.456  54.047  1.00  0.00     0.183 C 
HETATM   12  N5  UNL     1      24.337   0.456  53.538  1.00  0.00    -0.277 N 
HETATM   13  C19 UNL     1      27.342   1.135  52.044  1.00  0.00     0.193 C 
HETATM   14  N6  UNL     1      27.167   2.302  51.679  1.00  0.00    -0.204 NA
ENDROOT
BRANCH  12  15
HETATM   15  C10 UNL     1      22.978   0.096  53.474  1.00  0.00     0.052 A 
HETATM   16  C11 UNL     1      22.515  -0.673  54.514  1.00  0.00     0.032 A 
HETATM   17  C12 UNL     1      21.175  -1.067  54.525  1.00  0.00     0.010 A 
HETATM   18  C13 UNL     1      20.320  -0.683  53.491  1.00  0.00    -0.044 A 
HETATM   19  C14 UNL     1      20.818   0.090  52.460  1.00  0.00    -0.028 A 
HETATM   20  C18 UNL     1      18.865  -0.950  53.239  1.00  0.00     0.066 A 
HETATM   21  C15 UNL     1      22.144   0.479  52.450  1.00  0.00     0.043 A 
HETATM   22  C16 UNL     1      19.738   0.369  51.491  1.00  0.00     0.008 A 
HETATM   23  C17 UNL     1      18.653  -0.229  51.957  1.00  0.00    -0.021 A 
ENDBRANCH  12  15
BRANCH   1  24
HETATM   24  C1  UNL     1      25.818   3.470  49.972  1.00  0.00     0.412 C 
BRANCH  24  25
HETATM   25  N1  UNL     1      26.390   4.796  50.061  1.00  0.00     0.097 N 
HETATM   26  H1  UNL     1      26.969   5.055  49.237  1.00  0.00     0.315 HD
HETATM   27  H2  UNL     1      26.901   4.937  50.971  1.00  0.00     0.315 HD
ENDBRANCH  24  25
ENDBRANCH   1  24
TORSDOF 3
ENDMDL
MODEL 2
REMARK VINA RESULT:      -9.3      2.015      5.878
REMARK  3 active torsions:
REMARK  status: ('A' for Active; 'I' for Inactive)
REMARK    1  A    between atoms: N1_1  and  C1_2 
REMARK    2  A    between atoms: C1_2  and  N2_3 
REMARK    3  A    between atoms: N5_14  and  C10_15 
ROOT
HETATM    1  N2  UNL     1      22.268   3.655  52.135  1.00  0.00    -0.262 N 
HETATM    2  C2  UNL     1      23.576   2.964  51.867  1.00  0.00     0.291 C 
HETATM    3  N3  UNL     1      23.316   1.515  51.800  1.00  0.00    -0.276 N 
HETATM    4  C3  UNL     1      22.286   1.540  50.763  1.00  0.00     0.271 C 
HETATM    5  N4  UNL     1      21.962   0.252  50.843  1.00  0.00    -0.259 NA
HETATM    6  C4  UNL     1      21.483  -0.140  52.107  1.00  0.00     0.071 C 
HETATM    7  C5  UNL     1      20.394  -0.164  52.915  1.00  0.00     0.012 C 
HETATM    8  C6  UNL     1      20.863   0.908  53.729  1.00  0.00    -0.016 C 
HETATM    9  C7  UNL     1      21.054  -0.051  54.812  1.00  0.00     0.009 C 
HETATM   10  C8  UNL     1      22.319  -0.407  54.392  1.00  0.00     0.007 C 
HETATM   11  C9  UNL     1      22.695  -0.549  52.929  1.00  0.00     0.183 C 
HETATM   12  N5  UNL     1      23.773   0.393  52.575  1.00  0.00    -0.277 N 
HETATM   13  C19 UNL     1      20.786   2.047  52.839  1.00  0.00     0.193 C 
HETATM   14  N6  UNL     1      21.011   3.053  52.157  1.00  0.00    -0.204 NA
ENDROOT
BRANCH  12  15
HETATM   15  C10 UNL     1      25.113   0.194  52.955  1.00  0.00     0.052 A 
HETATM   16  C11 UNL     1      25.664   1.182  53.735  1.00  0.00     0.032 A 
HETATM   17  C12 UNL     1      26.990   1.055  54.159  1.00  0.00     0.010 A 
HETATM   18  C13 UNL     1      27.741  -0.062  53.792  1.00  0.00    -0.044 A 
HETATM   19  C14 UNL     1      27.156  -1.037  53.007  1.00  0.00    -0.028 A 
HETATM   20  C18 UNL     1      29.156  -0.462  54.090  1.00  0.00     0.066 A 
HETATM   21  C15 UNL     1      25.846  -0.910  52.588  1.00  0.00     0.043 A 
HETATM   22  C16 UNL     1      28.137  -2.112  52.750  1.00  0.00     0.008 A 
HETATM   23  C17 UNL     1      29.250  -1.760  53.373  1.00  0.00    -0.021 A 
ENDBRANCH  12  15
BRANCH   1  24
HETATM   24  C1  UNL     1      22.394   5.090  52.358  1.00  0.00     0.412 C 
BRANCH  24  25
HETATM   25  N1  UNL     1      23.741   5.456  52.735  1.00  0.00     0.097 N 
HETATM   26  H1  UNL     1      24.472   5.034  52.127  1.00  0.00     0.315 HD
HETATM   27  H2  UNL     1      23.919   5.282  53.758  1.00  0.00     0.315 HD
ENDBRANCH  24  25
ENDBRANCH   1  24
TORSDOF 3
ENDMDL
MODEL 3
REMARK VINA RESULT:      -9.0      2.180      5.923
REMARK  3 active torsions:
REMARK  status: ('A' for Active; 'I' for Inactive)
REMARK    1  A    between atoms: N1_1  and  C1_2 
REMARK    2  A    between atoms: C1_2  and  N2_3 
REMARK    3  A    between atoms: N5_14  and  C10_15 
ROOT
HETATM    1  N2  UNL     1      22.208   3.917  51.874  1.00  0.00    -0.262 N 
HETATM    2  C2  UNL     1      23.511   3.218  51.610  1.00  0.00     0.291 C 
HETATM    3  N3  UNL     1      23.244   1.770  51.550  1.00  0.00    -0.276 N 
HETATM    4  C3  UNL     1      22.213   1.795  50.514  1.00  0.00     0.271 C 
HETATM    5  N4  UNL     1      21.883   0.509  50.601  1.00  0.00    -0.259 NA
HETATM    6  C4  UNL     1      21.403   0.126  51.868  1.00  0.00     0.071 C 
HETATM    7  C5  UNL     1      20.314   0.112  52.677  1.00  0.00     0.012 C 
HETATM    8  C6  UNL     1      20.789   1.186  53.484  1.00  0.00    -0.016 C 
HETATM    9  C7  UNL     1      20.976   0.232  54.572  1.00  0.00     0.009 C 
HETATM   10  C8  UNL     1      22.239  -0.133  54.153  1.00  0.00     0.007 C 
HETATM   11  C9  UNL     1      22.614  -0.285  52.691  1.00  0.00     0.183 C 
HETATM   12  N5  UNL     1      23.696   0.650  52.331  1.00  0.00    -0.277 N 
HETATM   13  C19 UNL     1      20.718   2.321  52.588  1.00  0.00     0.193 C 
HETATM   14  N6  UNL     1      20.948   3.322  51.901  1.00  0.00    -0.204 NA
ENDROOT
BRANCH  12  15
HETATM   15  C10 UNL     1      25.036   0.446  52.712  1.00  0.00     0.052 A 
HETATM   16  C11 UNL     1      25.457  -0.861  52.729  1.00  0.00     0.032 A 
HETATM   17  C12 UNL     1      26.776  -1.146  53.092  1.00  0.00     0.010 A 
HETATM   18  C13 UNL     1      27.651  -0.113  53.432  1.00  0.00    -0.044 A 
HETATM   19  C14 UNL     1      27.194   1.191  53.404  1.00  0.00    -0.028 A 
HETATM   20  C18 UNL     1      29.090  -0.115  53.853  1.00  0.00     0.066 A 
HETATM   21  C15 UNL     1      25.889   1.471  53.046  1.00  0.00     0.043 A 
HETATM   22  C16 UNL     1      28.288   2.101  53.799  1.00  0.00     0.008 A 
HETATM   23  C17 UNL     1      29.341   1.337  54.045  1.00  0.00    -0.021 A 
ENDBRANCH  12  15
BRANCH   1  24
HETATM   24  C1  UNL     1      22.341   5.352  52.090  1.00  0.00     0.412 C 
BRANCH  24  25
HETATM   25  N1  UNL     1      23.709   5.726  52.373  1.00  0.00     0.097 N 
HETATM   26  H1  UNL     1      23.840   6.747  52.516  1.00  0.00     0.315 HD
HETATM   27  H2  UNL     1      24.375   5.331  51.660  1.00  0.00     0.315 HD
ENDBRANCH  24  25
ENDBRANCH   1  24
TORSDOF 3
ENDMDL
MODEL 4
REMARK VINA RESULT:      -8.5      2.746      7.305
REMARK  3 active torsions:
REMARK  status: ('A' for Active; 'I' for Inactive)
REMARK    1  A    between atoms: N1_1  and  C1_2 
REMARK    2  A    between atoms: C1_2  and  N2_3 
REMARK    3  A    between atoms: N5_14  and  C10_15 
ROOT
HETATM    1  N2  UNL     1      25.618   0.843  52.364  1.00  0.00    -0.262 N 
HETATM    2  C2  UNL     1      26.256   2.173  52.077  1.00  0.00     0.291 C 
HETATM    3  N3  UNL     1      25.179   3.150  51.838  1.00  0.00    -0.276 N 
HETATM    4  C3  UNL     1      24.446   2.954  53.088  1.00  0.00     0.271 C 
HETATM    5  N4  UNL     1      23.405   3.721  52.772  1.00  0.00    -0.259 NA
HETATM    6  C4  UNL     1      22.703   3.290  51.630  1.00  0.00     0.071 C 
HETATM    7  C5  UNL     1      21.770   2.419  51.173  1.00  0.00     0.012 C 
HETATM    8  C6  UNL     1      22.735   1.564  50.565  1.00  0.00    -0.016 C 
HETATM    9  C7  UNL     1      22.236   1.992  49.263  1.00  0.00     0.009 C 
HETATM   10  C8  UNL     1      23.053   3.102  49.215  1.00  0.00     0.007 C 
HETATM   11  C9  UNL     1      23.364   3.954  50.432  1.00  0.00     0.183 C 
HETATM   12  N5  UNL     1      24.813   3.958  50.708  1.00  0.00    -0.277 N 
HETATM   13  C19 UNL     1      23.422   0.992  51.704  1.00  0.00     0.193 C 
HETATM   14  N6  UNL     1      24.254   0.607  52.532  1.00  0.00    -0.204 NA
ENDROOT
BRANCH  12  15
HETATM   15  C10 UNL     1      25.731   4.696  49.937  1.00  0.00     0.052 A 
HETATM   16  C11 UNL     1      26.770   3.976  49.398  1.00  0.00     0.032 A 
HETATM   17  C12 UNL     1      27.721   4.635  48.616  1.00  0.00     0.010 A 
HETATM   18  C13 UNL     1      27.615   6.009  48.388  1.00  0.00    -0.044 A 
HETATM   19  C14 UNL     1      26.558   6.702  48.945  1.00  0.00    -0.028 A 
HETATM   20  C18 UNL     1      28.467   6.965  47.608  1.00  0.00     0.066 A 
HETATM   21  C15 UNL     1      25.618   6.048  49.719  1.00  0.00     0.043 A 
HETATM   22  C16 UNL     1      26.656   8.127  48.569  1.00  0.00     0.008 A 
HETATM   23  C17 UNL     1      27.738   8.243  47.817  1.00  0.00    -0.021 A 
ENDBRANCH  12  15
BRANCH   1  24
HETATM   24  C1  UNL     1      26.569  -0.254  52.490  1.00  0.00     0.412 C 
BRANCH  24  25
HETATM   25  N1  UNL     1      26.336  -1.028  53.689  1.00  0.00     0.097 N 
HETATM   26  H1  UNL     1      27.076  -0.911  54.410  1.00  0.00     0.315 HD
HETATM   27  H2  UNL     1      26.147  -2.040  53.468  1.00  0.00     0.315 HD
ENDBRANCH  24  25
ENDBRANCH   1  24
TORSDOF 3
ENDMDL
MODEL 5
REMARK VINA RESULT:      -8.2      2.947      7.399
REMARK  3 active torsions:
REMARK  status: ('A' for Active; 'I' for Inactive)
REMARK    1  A    between atoms: N1_1  and  C1_2 
REMARK    2  A    between atoms: C1_2  and  N2_3 
REMARK    3  A    between atoms: N5_14  and  C10_15 
ROOT
HETATM    1  N2  UNL     1      23.741   1.342  52.595  1.00  0.00    -0.262 N 
HETATM    2  C2  UNL     1      24.264   2.721  52.309  1.00  0.00     0.291 C 
HETATM    3  N3  UNL     1      23.273   3.416  51.470  1.00  0.00    -0.276 N 
HETATM    4  C3  UNL     1      22.113   3.250  52.345  1.00  0.00     0.271 C 
HETATM    5  N4  UNL     1      21.213   3.738  51.495  1.00  0.00    -0.259 NA
HETATM    6  C4  UNL     1      21.119   3.021  50.287  1.00  0.00     0.071 C 
HETATM    7  C5  UNL     1      20.586   1.924  49.694  1.00  0.00     0.012 C 
HETATM    8  C6  UNL     1      21.818   1.208  49.706  1.00  0.00    -0.016 C 
HETATM    9  C7  UNL     1      21.863   1.341  48.254  1.00  0.00     0.009 C 
HETATM   10  C8  UNL     1      22.475   2.577  48.298  1.00  0.00     0.007 C 
HETATM   11  C9  UNL     1      22.132   3.633  49.332  1.00  0.00     0.183 C 
HETATM   12  N5  UNL     1      23.316   3.970  50.144  1.00  0.00    -0.277 N 
HETATM   13  C19 UNL     1      22.029   0.949  51.115  1.00  0.00     0.193 C 
HETATM   14  N6  UNL     1      22.476   0.858  52.263  1.00  0.00    -0.204 NA
ENDROOT
BRANCH  12  15
HETATM   15  C10 UNL     1      24.371   4.765  49.658  1.00  0.00     0.052 A 
HETATM   16  C11 UNL     1      24.077   6.094  49.468  1.00  0.00     0.032 A 
HETATM   17  C12 UNL     1      25.073   6.950  48.992  1.00  0.00     0.010 A 
HETATM   18  C13 UNL     1      26.349   6.459  48.714  1.00  0.00    -0.044 A 
HETATM   19  C14 UNL     1      26.611   5.117  48.916  1.00  0.00    -0.028 A 
HETATM   20  C18 UNL     1      27.592   7.126  48.204  1.00  0.00     0.066 A 
HETATM   21  C15 UNL     1      25.625   4.271  49.386  1.00  0.00     0.043 A 
HETATM   22  C16 UNL     1      28.016   4.833  48.557  1.00  0.00     0.008 A 
HETATM   23  C17 UNL     1      28.540   5.982  48.160  1.00  0.00    -0.021 A 
ENDBRANCH  12  15
BRANCH   1  24
HETATM   24  C1  UNL     1      24.683   0.489  53.310  1.00  0.00     0.412 C 
BRANCH  24  25
HETATM   25  N1  UNL     1      25.936   0.364  52.599  1.00  0.00     0.097 N 
HETATM   26  H1  UNL     1      26.771   0.502  53.203  1.00  0.00     0.315 HD
HETATM   27  H2  UNL     1      25.957   0.971  51.739  1.00  0.00     0.315 HD
ENDBRANCH  24  25
ENDBRANCH   1  24
TORSDOF 3
ENDMDL
MODEL 6
REMARK VINA RESULT:      -7.8      3.003      4.876
REMARK  3 active torsions:
REMARK  status: ('A' for Active; 'I' for Inactive)
REMARK    1  A    between atoms: N1_1  and  C1_2 
REMARK    2  A    between atoms: C1_2  and  N2_3 
REMARK    3  A    between atoms: N5_14  and  C10_15 
ROOT
HETATM    1  N2  UNL     1      21.425   3.964  48.512  1.00  0.00    -0.262 N 
HETATM    2  C2  UNL     1      21.121   3.315  49.833  1.00  0.00     0.291 C 
HETATM    3  N3  UNL     1      22.125   3.779  50.806  1.00  0.00    -0.276 N 
HETATM    4  C3  UNL     1      21.918   5.217  50.643  1.00  0.00     0.271 C 
HETATM    5  N4  UNL     1      22.939   5.602  51.404  1.00  0.00    -0.259 NA
HETATM    6  C4  UNL     1      24.193   5.155  50.948  1.00  0.00     0.071 C 
HETATM    7  C5  UNL     1      25.197   5.397  50.069  1.00  0.00     0.012 C 
HETATM    8  C6  UNL     1      24.809   4.338  49.197  1.00  0.00    -0.016 C 
HETATM    9  C7  UNL     1      26.016   3.622  49.595  1.00  0.00     0.009 C 
HETATM   10  C8  UNL     1      25.422   3.052  50.701  1.00  0.00     0.007 C 
HETATM   11  C9  UNL     1      24.432   3.793  51.581  1.00  0.00     0.183 C 
HETATM   12  N5  UNL     1      23.126   3.106  51.588  1.00  0.00    -0.277 N 
HETATM   13  C19 UNL     1      23.555   4.812  48.650  1.00  0.00     0.193 C 
HETATM   14  N6  UNL     1      22.384   4.949  48.283  1.00  0.00    -0.204 NA
ENDROOT
BRANCH  12  15
HETATM   15  C10 UNL     1      22.897   1.916  52.305  1.00  0.00     0.052 A 
HETATM   16  C11 UNL     1      24.020   1.275  52.768  1.00  0.00     0.032 A 
HETATM   17  C12 UNL     1      23.876   0.089  53.493  1.00  0.00     0.010 A 
HETATM   18  C13 UNL     1      22.605  -0.434  53.741  1.00  0.00    -0.044 A 
HETATM   19  C14 UNL     1      21.498   0.237  53.260  1.00  0.00    -0.028 A 
HETATM   20  C18 UNL     1      22.151  -1.662  54.473  1.00  0.00     0.066 A 
HETATM   21  C15 UNL     1      21.642   1.409  52.543  1.00  0.00     0.043 A 
HETATM   22  C16 UNL     1      20.275  -0.500  53.643  1.00  0.00     0.008 A 
HETATM   23  C17 UNL     1      20.676  -1.562  54.324  1.00  0.00    -0.021 A 
ENDBRANCH  12  15
BRANCH   1  24
HETATM   24  C1  UNL     1      20.587   3.492  47.416  1.00  0.00     0.412 C 
BRANCH  24  25
HETATM   25  N1  UNL     1      19.742   2.392  47.824  1.00  0.00     0.097 N 
HETATM   26  H1  UNL     1      19.632   1.660  47.094  1.00  0.00     0.315 HD
HETATM   27  H2  UNL     1      18.818   2.730  48.197  1.00  0.00     0.315 HD
ENDBRANCH  24  25
ENDBRANCH   1  24
TORSDOF 3
ENDMDL
MODEL 7
REMARK VINA RESULT:      -7.8      2.861      5.615
REMARK  3 active torsions:
REMARK  status: ('A' for Active; 'I' for Inactive)
REMARK    1  A    between atoms: N1_1  and  C1_2 
REMARK    2  A    between atoms: C1_2  and  N2_3 
REMARK    3  A    between atoms: N5_14  and  C10_15 
ROOT
HETATM    1  N2  UNL     1      22.791   5.359  50.455  1.00  0.00    -0.262 N 
HETATM    2  C2  UNL     1      23.665   4.256  50.981  1.00  0.00     0.291 C 
HETATM    3  N3  UNL     1      23.309   3.017  50.269  1.00  0.00    -0.276 N 
HETATM    4  C3  UNL     1      23.503   3.504  48.904  1.00  0.00     0.271 C 
HETATM    5  N4  UNL     1      23.022   2.425  48.291  1.00  0.00    -0.259 NA
HETATM    6  C4  UNL     1      21.680   2.139  48.605  1.00  0.00     0.071 C 
HETATM    7  C5  UNL     1      20.391   2.457  48.328  1.00  0.00     0.012 C 
HETATM    8  C6  UNL     1      20.225   3.211  49.525  1.00  0.00    -0.016 C 
HETATM    9  C7  UNL     1      19.328   2.167  50.011  1.00  0.00     0.009 C 
HETATM   10  C8  UNL     1      20.354   1.402  50.526  1.00  0.00     0.007 C 
HETATM   11  C9  UNL     1      21.697   1.247  49.836  1.00  0.00     0.183 C 
HETATM   12  N5  UNL     1      22.785   1.748  50.696  1.00  0.00    -0.277 N 
HETATM   13  C19 UNL     1      21.071   4.364  49.301  1.00  0.00     0.193 C 
HETATM   14  N6  UNL     1      21.912   5.265  49.376  1.00  0.00    -0.204 NA
ENDROOT
BRANCH  12  15
HETATM   15  C10 UNL     1      23.259   1.037  51.815  1.00  0.00     0.052 A 
HETATM   16  C11 UNL     1      24.623   1.031  51.981  1.00  0.00     0.032 A 
HETATM   17  C12 UNL     1      25.172   0.350  53.071  1.00  0.00     0.010 A 
HETATM   18  C13 UNL     1      24.342  -0.313  53.977  1.00  0.00    -0.044 A 
HETATM   19  C14 UNL     1      22.975  -0.286  53.779  1.00  0.00    -0.028 A 
HETATM   20  C18 UNL     1      24.639  -1.109  55.213  1.00  0.00     0.066 A 
HETATM   21  C15 UNL     1      22.434   0.387  52.700  1.00  0.00     0.043 A 
HETATM   22  C16 UNL     1      22.310  -1.050  54.855  1.00  0.00     0.008 A 
HETATM   23  C17 UNL     1      23.272  -1.499  55.645  1.00  0.00    -0.021 A 
ENDBRANCH  12  15
BRANCH   1  24
HETATM   24  C1  UNL     1      22.942   6.623  51.165  1.00  0.00     0.412 C 
BRANCH  24  25
HETATM   25  N1  UNL     1      24.203   6.692  51.870  1.00  0.00     0.097 N 
HETATM   26  H1  UNL     1      24.099   6.741  52.903  1.00  0.00     0.315 HD
HETATM   27  H2  UNL     1      24.818   7.458  51.491  1.00  0.00     0.315 HD
ENDBRANCH  24  25
ENDBRANCH   1  24
TORSDOF 3
ENDMDL
MODEL 8
REMARK VINA RESULT:      -7.5      3.513      6.365
REMARK  3 active torsions:
REMARK  status: ('A' for Active; 'I' for Inactive)
REMARK    1  A    between atoms: N1_1  and  C1_2 
REMARK    2  A    between atoms: C1_2  and  N2_3 
REMARK    3  A    between atoms: N5_14  and  C10_15 
ROOT
HETATM    1  N2  UNL     1      21.211   4.210  48.211  1.00  0.00    -0.262 N 
HETATM    2  C2  UNL     1      21.407   3.452  49.494  1.00  0.00     0.291 C 
HETATM    3  N3  UNL     1      22.243   4.277  50.383  1.00  0.00    -0.276 N 
HETATM    4  C3  UNL     1      21.419   5.485  50.376  1.00  0.00     0.271 C 
HETATM    5  N4  UNL     1      22.274   6.253  51.046  1.00  0.00    -0.259 NA
HETATM    6  C4  UNL     1      23.520   6.413  50.410  1.00  0.00     0.071 C 
HETATM    7  C5  UNL     1      24.186   7.096  49.446  1.00  0.00     0.012 C 
HETATM    8  C6  UNL     1      24.168   6.002  48.533  1.00  0.00    -0.016 C 
HETATM    9  C7  UNL     1      25.609   5.873  48.722  1.00  0.00     0.009 C 
HETATM   10  C8  UNL     1      25.481   5.067  49.834  1.00  0.00     0.007 C 
HETATM   11  C9  UNL     1      24.406   5.273  50.885  1.00  0.00     0.183 C 
HETATM   12  N5  UNL     1      23.536   4.085  50.981  1.00  0.00    -0.277 N 
HETATM   13  C19 UNL     1      22.768   5.898  48.179  1.00  0.00     0.193 C 
HETATM   14  N6  UNL     1      21.612   5.522  47.963  1.00  0.00    -0.204 NA
ENDROOT
BRANCH  12  15
HETATM   15  C10 UNL     1      23.944   2.893  51.609  1.00  0.00     0.052 A 
HETATM   16  C11 UNL     1      23.059   2.365  52.517  1.00  0.00     0.032 A 
HETATM   17  C12 UNL     1      23.388   1.180  53.179  1.00  0.00     0.010 A 
HETATM   18  C13 UNL     1      24.603   0.542  52.918  1.00  0.00    -0.044 A 
HETATM   19  C14 UNL     1      25.470   1.101  51.998  1.00  0.00    -0.028 A 
HETATM   20  C18 UNL     1      25.214  -0.714  53.463  1.00  0.00     0.066 A 
HETATM   21  C15 UNL     1      25.143   2.273  51.345  1.00  0.00     0.043 A 
HETATM   22  C16 UNL     1      26.678   0.257  51.891  1.00  0.00     0.008 A 
HETATM   23  C17 UNL     1      26.504  -0.755  52.726  1.00  0.00    -0.021 A 
ENDBRANCH  12  15
BRANCH   1  24
HETATM   24  C1  UNL     1      20.509   3.455  47.181  1.00  0.00     0.412 C 
BRANCH  24  25
HETATM   25  N1  UNL     1      19.749   2.361  47.745  1.00  0.00     0.097 N 
HETATM   26  H1  UNL     1      20.333   1.668  48.254  1.00  0.00     0.315 HD
HETATM   27  H2  UNL     1      19.126   1.910  47.025  1.00  0.00     0.315 HD
ENDBRANCH  24  25
ENDBRANCH   1  24
TORSDOF 3
ENDMDL
MODEL 9
REMARK VINA RESULT:      -7.5      3.998      7.728
REMARK  3 active torsions:
REMARK  status: ('A' for Active; 'I' for Inactive)
REMARK    1  A    between atoms: N1_1  and  C1_2 
REMARK    2  A    between atoms: C1_2  and  N2_3 
REMARK    3  A    between atoms: N5_14  and  C10_15 
ROOT
HETATM    1  N2  UNL     1      20.300   2.879  47.858  1.00  0.00    -0.262 N 
HETATM    2  C2  UNL     1      21.794   2.850  47.706  1.00  0.00     0.291 C 
HETATM    3  N3  UNL     1      22.372   2.427  48.993  1.00  0.00    -0.276 N 
HETATM    4  C3  UNL     1      21.637   1.173  49.145  1.00  0.00     0.271 C 
HETATM    5  N4  UNL     1      22.056   0.902  50.379  1.00  0.00    -0.259 NA
HETATM    6  C4  UNL     1      21.708   1.881  51.329  1.00  0.00     0.071 C 
HETATM    7  C5  UNL     1      20.712   2.337  52.130  1.00  0.00     0.012 C 
HETATM    8  C6  UNL     1      20.416   3.444  51.283  1.00  0.00    -0.016 C 
HETATM    9  C7  UNL     1      20.955   4.325  52.314  1.00  0.00     0.009 C 
HETATM   10  C8  UNL     1      22.252   4.208  51.861  1.00  0.00     0.007 C 
HETATM   11  C9  UNL     1      22.830   2.907  51.334  1.00  0.00     0.183 C 
HETATM   12  N5  UNL     1      23.260   3.058  49.932  1.00  0.00    -0.277 N 
HETATM   13  C19 UNL     1      19.849   2.813  50.110  1.00  0.00     0.193 C 
HETATM   14  N6  UNL     1      19.579   2.434  48.966  1.00  0.00    -0.204 NA
ENDROOT
BRANCH  12  15
HETATM   15  C10 UNL     1      24.432   3.746  49.565  1.00  0.00     0.052 A 
HETATM   16  C11 UNL     1      25.604   3.043  49.707  1.00  0.00     0.032 A 
HETATM   17  C12 UNL     1      26.811   3.655  49.359  1.00  0.00     0.010 A 
HETATM   18  C13 UNL     1      26.822   4.965  48.875  1.00  0.00    -0.044 A 
HETATM   19  C14 UNL     1      25.626   5.643  48.746  1.00  0.00    -0.028 A 
HETATM   20  C18 UNL     1      27.940   5.861  48.432  1.00  0.00     0.066 A 
HETATM   21  C15 UNL     1      24.433   5.037  49.091  1.00  0.00     0.043 A 
HETATM   22  C16 UNL     1      25.886   6.999  48.220  1.00  0.00     0.008 A 
HETATM   23  C17 UNL     1      27.196   7.091  48.054  1.00  0.00    -0.021 A 
ENDBRANCH  12  15
BRANCH   1  24
HETATM   24  C1  UNL     1      19.598   3.410  46.697  1.00  0.00     0.412 C 
BRANCH  24  25
HETATM   25  N1  UNL     1      18.316   2.766  46.507  1.00  0.00     0.097 N 
HETATM   26  H1  UNL     1      18.111   2.032  47.213  1.00  0.00     0.315 HD
HETATM   27  H2  UNL     1      18.199   2.419  45.520  1.00  0.00     0.315 HD
ENDBRANCH  24  25
ENDBRANCH   1  24
TORSDOF 3
ENDMDL
