MODEL 1
REMARK VINA RESULT:      -8.2      0.000      0.000
REMARK  5 active torsions:
REMARK  status: ('A' for Active; 'I' for Inactive)
REMARK    1  A    between atoms: C3_4  and  S1_5 
REMARK    2  A    between atoms: S1_5  and  C4_6 
REMARK    3  A    between atoms: C4_6  and  C5_7 
REMARK    4  A    between atoms: C9_12  and  N2_13 
REMARK    5  A    between atoms: N2_13  and  C10_14 
ROOT
HETATM    1  N1  UNL     1      25.272  -1.172  55.764  1.00  0.00    -0.191 NA
HETATM    2  C1  UNL     1      25.494  -0.485  54.853  1.00  0.00     0.100 C 
HETATM    3  C2  UNL     1      25.748   0.371  53.718  1.00  0.00     0.059 A 
HETATM    4  C3  UNL     1      27.021   0.682  53.407  1.00  0.00     0.004 A 
HETATM    5  C6  UNL     1      27.324   1.551  52.262  1.00  0.00     0.088 A 
HETATM    6  C7  UNL     1      26.090   1.985  51.568  1.00  0.00    -0.026 A 
HETATM    7  C8  UNL     1      26.318   2.756  50.538  1.00  0.00     0.013 A 
HETATM    8  C9  UNL     1      25.291   3.352  49.644  1.00  0.00     0.146 A 
HETATM    9  C16 UNL     1      23.924   2.945  50.089  1.00  0.00     0.119 A 
HETATM   10  N3  UNL     1      23.705   2.181  51.107  1.00  0.00    -0.262 NA
HETATM   11  C17 UNL     1      24.724   1.636  51.929  1.00  0.00     0.064 A 
HETATM   12  C18 UNL     1      24.572   0.857  52.962  1.00  0.00     0.056 A 
ENDROOT
BRANCH   4  13
HETATM   13  S1  UNL     1      28.285  -0.010  54.451  1.00  0.00    -0.126 SA
BRANCH  13  14
HETATM   14  C4  UNL     1      29.477  -0.892  53.433  1.00  0.00     0.148 C 
BRANCH  14  15
HETATM   15  C5  UNL     1      29.258  -2.355  53.405  1.00  0.00     0.241 C 
HETATM   16  O1  UNL     1      28.100  -2.641  53.102  1.00  0.00    -0.306 OA
ENDBRANCH  14  15
ENDBRANCH  13  14
ENDBRANCH   4  13
BRANCH   8  17
HETATM   17  N2  UNL     1      25.405   4.778  49.543  1.00  0.00    -0.377 N 
HETATM   18  H8  UNL     1      24.502   5.243  49.858  1.00  0.00     0.160 HD
BRANCH  17  19
HETATM   19  C10 UNL     1      26.437   5.667  49.140  1.00  0.00     0.030 A 
HETATM   20  C11 UNL     1      27.586   5.180  48.539  1.00  0.00     0.029 A 
HETATM   21  C12 UNL     1      28.576   6.056  48.143  1.00  0.00     0.004 A 
HETATM   22  C13 UNL     1      28.459   7.419  48.329  1.00  0.00     0.019 A 
HETATM   23  C14 UNL     1      27.307   7.831  48.925  1.00  0.00     0.013 A 
HETATM   24 BR1  UNL     1      27.064   9.703  49.223  1.00  0.00    -0.051 Br
HETATM   25  C15 UNL     1      26.288   7.022  49.341  1.00  0.00     0.048 A 
ENDBRANCH  17  19
ENDBRANCH   8  17
TORSDOF 5
ENDMDL
MODEL 2
REMARK VINA RESULT:      -8.0      5.885      8.842
REMARK  5 active torsions:
REMARK  status: ('A' for Active; 'I' for Inactive)
REMARK    1  A    between atoms: C3_4  and  S1_5 
REMARK    2  A    between atoms: S1_5  and  C4_6 
REMARK    3  A    between atoms: C4_6  and  C5_7 
REMARK    4  A    between atoms: C9_12  and  N2_13 
REMARK    5  A    between atoms: N2_13  and  C10_14 
ROOT
HETATM    1  N1  UNL     1      27.002   2.715  51.116  1.00  0.00    -0.191 NA
HETATM    2  C1  UNL     1      26.237   2.073  51.709  1.00  0.00     0.100 C 
HETATM    3  C2  UNL     1      25.269   1.289  52.440  1.00  0.00     0.059 A 
HETATM    4  C3  UNL     1      25.686   0.193  53.105  1.00  0.00     0.004 A 
HETATM    5  C6  UNL     1      24.735  -0.634  53.859  1.00  0.00     0.088 A 
HETATM    6  C7  UNL     1      23.358  -0.099  53.770  1.00  0.00    -0.026 A 
HETATM    7  C8  UNL     1      22.482  -0.805  54.433  1.00  0.00     0.013 A 
HETATM    8  C9  UNL     1      21.025  -0.527  54.534  1.00  0.00     0.146 A 
HETATM    9  C16 UNL     1      20.681   0.700  53.754  1.00  0.00     0.119 A 
HETATM   10  N3  UNL     1      21.552   1.396  53.102  1.00  0.00    -0.262 NA
HETATM   11  C17 UNL     1      22.935   1.086  53.038  1.00  0.00     0.064 A 
HETATM   12  C18 UNL     1      23.863   1.747  52.406  1.00  0.00     0.056 A 
ENDROOT
BRANCH   4  13
HETATM   13  S1  UNL     1      27.423  -0.179  53.012  1.00  0.00    -0.126 SA
BRANCH  13  14
HETATM   14  C4  UNL     1      28.202   0.232  54.580  1.00  0.00     0.148 C 
BRANCH  14  15
HETATM   15  C5  UNL     1      29.056   1.439  54.515  1.00  0.00     0.241 C 
HETATM   16  O1  UNL     1      28.411   2.442  54.208  1.00  0.00    -0.306 OA
ENDBRANCH  14  15
ENDBRANCH  13  14
ENDBRANCH   4  13
BRANCH   8  17
HETATM   17  N2  UNL     1      20.219  -1.643  54.135  1.00  0.00    -0.377 N 
HETATM   18  H8  UNL     1      20.743  -2.553  54.299  1.00  0.00     0.160 HD
BRANCH  17  19
HETATM   19  C10 UNL     1      18.911  -1.784  53.599  1.00  0.00     0.030 A 
HETATM   20  C11 UNL     1      18.352  -0.771  52.838  1.00  0.00     0.029 A 
HETATM   21  C12 UNL     1      17.084  -0.926  52.316  1.00  0.00     0.004 A 
HETATM   22  C13 UNL     1      16.343  -2.071  52.529  1.00  0.00     0.019 A 
HETATM   23  C14 UNL     1      16.950  -3.027  53.285  1.00  0.00     0.013 A 
HETATM   24 BR1  UNL     1      15.994  -4.644  53.633  1.00  0.00    -0.051 Br
HETATM   25  C15 UNL     1      18.199  -2.941  53.832  1.00  0.00     0.048 A 
ENDBRANCH  17  19
ENDBRANCH   8  17
TORSDOF 5
ENDMDL
MODEL 3
REMARK VINA RESULT:      -7.9      1.990      2.302
REMARK  5 active torsions:
REMARK  status: ('A' for Active; 'I' for Inactive)
REMARK    1  A    between atoms: C3_4  and  S1_5 
REMARK    2  A    between atoms: S1_5  and  C4_6 
REMARK    3  A    between atoms: C4_6  and  C5_7 
REMARK    4  A    between atoms: C9_12  and  N2_13 
REMARK    5  A    between atoms: N2_13  and  C10_14 
ROOT
HETATM    1  N1  UNL     1      23.917  -0.826  54.628  1.00  0.00    -0.191 NA
HETATM    2  C1  UNL     1      24.388  -0.150  53.809  1.00  0.00     0.100 C 
HETATM    3  C2  UNL     1      24.956   0.705  52.793  1.00  0.00     0.059 A 
HETATM    4  C3  UNL     1      26.176   0.413  52.302  1.00  0.00     0.004 A 
HETATM    5  C6  UNL     1      26.792   1.256  51.269  1.00  0.00     0.088 A 
HETATM    6  C7  UNL     1      25.911   2.386  50.894  1.00  0.00    -0.026 A 
HETATM    7  C8  UNL     1      26.422   3.158  49.971  1.00  0.00     0.013 A 
HETATM    8  C9  UNL     1      25.786   4.369  49.389  1.00  0.00     0.146 A 
HETATM    9  C16 UNL     1      24.448   4.596  50.014  1.00  0.00     0.119 A 
HETATM   10  N3  UNL     1      23.947   3.829  50.923  1.00  0.00    -0.262 NA
HETATM   11  C17 UNL     1      24.598   2.682  51.446  1.00  0.00     0.064 A 
HETATM   12  C18 UNL     1      24.147   1.865  52.356  1.00  0.00     0.056 A 
ENDROOT
BRANCH   4  13
HETATM   13  S1  UNL     1      26.976  -1.029  52.971  1.00  0.00    -0.126 SA
BRANCH  13  14
HETATM   14  C4  UNL     1      28.531  -0.542  53.735  1.00  0.00     0.148 C 
BRANCH  14  15
HETATM   15  C5  UNL     1      28.356   0.294  54.944  1.00  0.00     0.241 C 
HETATM   16  O1  UNL     1      29.043   1.315  54.900  1.00  0.00    -0.306 OA
ENDBRANCH  14  15
ENDBRANCH  13  14
ENDBRANCH   4  13
BRANCH   8  17
HETATM   17  N2  UNL     1      26.615   5.533  49.491  1.00  0.00    -0.377 N 
HETATM   18  H8  UNL     1      26.601   5.910  50.485  1.00  0.00     0.160 HD
BRANCH  17  19
HETATM   19  C10 UNL     1      27.433   6.255  48.581  1.00  0.00     0.030 A 
HETATM   20  C11 UNL     1      26.920   7.334  47.882  1.00  0.00     0.029 A 
HETATM   21  C12 UNL     1      27.729   8.032  47.008  1.00  0.00     0.004 A 
HETATM   22  C13 UNL     1      29.050   7.686  46.804  1.00  0.00     0.019 A 
HETATM   23  C14 UNL     1      29.491   6.616  47.521  1.00  0.00     0.013 A 
HETATM   24 BR1  UNL     1      31.307   6.065  47.296  1.00  0.00    -0.051 Br
HETATM   25  C15 UNL     1      28.748   5.881  48.400  1.00  0.00     0.048 A 
ENDBRANCH  17  19
ENDBRANCH   8  17
TORSDOF 5
ENDMDL
MODEL 4
REMARK VINA RESULT:      -7.9      6.013      8.283
REMARK  5 active torsions:
REMARK  status: ('A' for Active; 'I' for Inactive)
REMARK    1  A    between atoms: C3_4  and  S1_5 
REMARK    2  A    between atoms: S1_5  and  C4_6 
REMARK    3  A    between atoms: C4_6  and  C5_7 
REMARK    4  A    between atoms: C9_12  and  N2_13 
REMARK    5  A    between atoms: N2_13  and  C10_14 
ROOT
HETATM    1  N1  UNL     1      16.378  -1.057  52.780  1.00  0.00    -0.191 NA
HETATM    2  C1  UNL     1      17.513  -0.812  52.736  1.00  0.00     0.100 C 
HETATM    3  C2  UNL     1      18.927  -0.522  52.701  1.00  0.00     0.059 A 
HETATM    4  C3  UNL     1      19.412   0.238  51.699  1.00  0.00     0.004 A 
HETATM    5  C6  UNL     1      20.844   0.556  51.624  1.00  0.00     0.088 A 
HETATM    6  C7  UNL     1      21.596  -0.051  52.745  1.00  0.00    -0.026 A 
HETATM    7  C8  UNL     1      22.875   0.214  52.717  1.00  0.00     0.013 A 
HETATM    8  C9  UNL     1      23.890  -0.251  53.699  1.00  0.00     0.146 A 
HETATM    9  C16 UNL     1      23.239  -1.087  54.753  1.00  0.00     0.119 A 
HETATM   10  N3  UNL     1      21.974  -1.344  54.777  1.00  0.00    -0.262 NA
HETATM   11  C17 UNL     1      21.046  -0.874  53.813  1.00  0.00     0.064 A 
HETATM   12  C18 UNL     1      19.761  -1.090  53.783  1.00  0.00     0.056 A 
ENDROOT
BRANCH   4  13
HETATM   13  S1  UNL     1      18.233   0.817  50.499  1.00  0.00    -0.126 SA
BRANCH  13  14
HETATM   14  C4  UNL     1      17.640   2.443  50.989  1.00  0.00     0.148 C 
BRANCH  14  15
HETATM   15  C5  UNL     1      18.705   3.470  51.029  1.00  0.00     0.241 C 
HETATM   16  O1  UNL     1      19.115   3.663  52.174  1.00  0.00    -0.306 OA
ENDBRANCH  14  15
ENDBRANCH  13  14
ENDBRANCH   4  13
BRANCH   8  17
HETATM   17  N2  UNL     1      24.981  -0.946  53.081  1.00  0.00    -0.377 N 
HETATM   18  H8  UNL     1      24.615  -1.647  52.370  1.00  0.00     0.160 HD
BRANCH  17  19
HETATM   19  C10 UNL     1      26.395  -0.886  53.202  1.00  0.00     0.030 A 
HETATM   20  C11 UNL     1      27.171  -1.990  52.893  1.00  0.00     0.029 A 
HETATM   21  C12 UNL     1      28.545  -1.915  53.006  1.00  0.00     0.004 A 
HETATM   22  C13 UNL     1      29.180  -0.762  53.423  1.00  0.00     0.019 A 
HETATM   23  C14 UNL     1      28.358   0.285  53.711  1.00  0.00     0.013 A 
HETATM   24 BR1  UNL     1      29.154   1.920  54.299  1.00  0.00    -0.051 Br
HETATM   25  C15 UNL     1      26.996   0.281  53.622  1.00  0.00     0.048 A 
ENDBRANCH  17  19
ENDBRANCH   8  17
TORSDOF 5
ENDMDL
MODEL 5
REMARK VINA RESULT:      -7.7      6.223      8.741
REMARK  5 active torsions:
REMARK  status: ('A' for Active; 'I' for Inactive)
REMARK    1  A    between atoms: C3_4  and  S1_5 
REMARK    2  A    between atoms: S1_5  and  C4_6 
REMARK    3  A    between atoms: C4_6  and  C5_7 
REMARK    4  A    between atoms: C9_12  and  N2_13 
REMARK    5  A    between atoms: N2_13  and  C10_14 
ROOT
HETATM    1  N1  UNL     1      15.792  -1.656  52.176  1.00  0.00    -0.191 NA
HETATM    2  C1  UNL     1      16.877  -1.265  52.316  1.00  0.00     0.100 C 
HETATM    3  C2  UNL     1      18.229  -0.795  52.506  1.00  0.00     0.059 A 
HETATM    4  C3  UNL     1      18.676   0.228  51.751  1.00  0.00     0.004 A 
HETATM    5  C6  UNL     1      20.045   0.736  51.910  1.00  0.00     0.088 A 
HETATM    6  C7  UNL     1      20.784  -0.009  52.955  1.00  0.00    -0.026 A 
HETATM    7  C8  UNL     1      22.006   0.418  53.130  1.00  0.00     0.013 A 
HETATM    8  C9  UNL     1      22.994  -0.125  54.100  1.00  0.00     0.146 A 
HETATM    9  C16 UNL     1      22.392  -1.255  54.869  1.00  0.00     0.119 A 
HETATM   10  N3  UNL     1      21.182  -1.671  54.693  1.00  0.00    -0.262 NA
HETATM   11  C17 UNL     1      20.277  -1.116  53.752  1.00  0.00     0.064 A 
HETATM   12  C18 UNL     1      19.047  -1.483  53.529  1.00  0.00     0.056 A 
ENDROOT
BRANCH   4  13
HETATM   13  S1  UNL     1      17.527   0.909  50.576  1.00  0.00    -0.126 SA
BRANCH  13  14
HETATM   14  C4  UNL     1      16.541   2.181  51.381  1.00  0.00     0.148 C 
BRANCH  14  15
HETATM   15  C5  UNL     1      17.284   3.438  51.621  1.00  0.00     0.241 C 
HETATM   16  O1  UNL     1      16.676   4.195  52.378  1.00  0.00    -0.306 OA
ENDBRANCH  14  15
ENDBRANCH  13  14
ENDBRANCH   4  13
BRANCH   8  17
HETATM   17  N2  UNL     1      24.225  -0.514  53.477  1.00  0.00    -0.377 N 
HETATM   18  H8  UNL     1      24.103  -1.440  52.968  1.00  0.00     0.160 HD
BRANCH  17  19
HETATM   19  C10 UNL     1      25.520   0.062  53.386  1.00  0.00     0.030 A 
HETATM   20  C11 UNL     1      25.670   1.433  53.267  1.00  0.00     0.029 A 
HETATM   21  C12 UNL     1      26.934   1.981  53.189  1.00  0.00     0.004 A 
HETATM   22  C13 UNL     1      28.070   1.197  53.226  1.00  0.00     0.019 A 
HETATM   23  C14 UNL     1      27.853  -0.142  53.344  1.00  0.00     0.013 A 
HETATM   24 BR1  UNL     1      29.371  -1.300  53.400  1.00  0.00    -0.051 Br
HETATM   25  C15 UNL     1      26.633  -0.750  53.426  1.00  0.00     0.048 A 
ENDBRANCH  17  19
ENDBRANCH   8  17
TORSDOF 5
ENDMDL
MODEL 6
REMARK VINA RESULT:      -7.3      3.240      4.170
REMARK  5 active torsions:
REMARK  status: ('A' for Active; 'I' for Inactive)
REMARK    1  A    between atoms: C3_4  and  S1_5 
REMARK    2  A    between atoms: S1_5  and  C4_6 
REMARK    3  A    between atoms: C4_6  and  C5_7 
REMARK    4  A    between atoms: C9_12  and  N2_13 
REMARK    5  A    between atoms: N2_13  and  C10_14 
ROOT
HETATM    1  N1  UNL     1      22.253  -1.946  55.337  1.00  0.00    -0.191 NA
HETATM    2  C1  UNL     1      22.305  -1.014  54.646  1.00  0.00     0.100 C 
HETATM    3  C2  UNL     1      22.347   0.148  53.790  1.00  0.00     0.059 A 
HETATM    4  C3  UNL     1      23.532   0.541  53.282  1.00  0.00     0.004 A 
HETATM    5  C6  UNL     1      23.621   1.719  52.408  1.00  0.00     0.088 A 
HETATM    6  C7  UNL     1      22.294   2.343  52.201  1.00  0.00    -0.026 A 
HETATM    7  C8  UNL     1      22.331   3.392  51.423  1.00  0.00     0.013 A 
HETATM    8  C9  UNL     1      21.169   4.233  51.028  1.00  0.00     0.146 A 
HETATM    9  C16 UNL     1      19.919   3.707  51.656  1.00  0.00     0.119 A 
HETATM   10  N3  UNL     1      19.889   2.668  52.422  1.00  0.00    -0.262 NA
HETATM   11  C17 UNL     1      21.029   1.899  52.767  1.00  0.00     0.064 A 
HETATM   12  C18 UNL     1      21.067   0.841  53.527  1.00  0.00     0.056 A 
ENDROOT
BRANCH   4  13
HETATM   13  S1  UNL     1      24.951  -0.435  53.728  1.00  0.00    -0.126 SA
BRANCH  13  14
HETATM   14  C4  UNL     1      26.349   0.655  54.033  1.00  0.00     0.148 C 
BRANCH  14  15
HETATM   15  C5  UNL     1      27.487  -0.019  54.696  1.00  0.00     0.241 C 
HETATM   16  O1  UNL     1      28.067  -0.797  53.939  1.00  0.00    -0.306 OA
ENDBRANCH  14  15
ENDBRANCH  13  14
ENDBRANCH   4  13
BRANCH   8  17
HETATM   17  N2  UNL     1      21.362   5.621  51.330  1.00  0.00    -0.377 N 
HETATM   18  H8  UNL     1      20.954   5.850  52.285  1.00  0.00     0.160 HD
BRANCH  17  19
HETATM   19  C10 UNL     1      21.974   6.710  50.654  1.00  0.00     0.030 A 
HETATM   20  C11 UNL     1      21.199   7.644  49.987  1.00  0.00     0.029 A 
HETATM   21  C12 UNL     1      21.806   8.703  49.342  1.00  0.00     0.004 A 
HETATM   22  C13 UNL     1      23.177   8.864  49.339  1.00  0.00     0.019 A 
HETATM   23  C14 UNL     1      23.879   7.911  50.012  1.00  0.00     0.013 A 
HETATM   24 BR1  UNL     1      25.784   8.056  50.056  1.00  0.00    -0.051 Br
HETATM   25  C15 UNL     1      23.346   6.840  50.670  1.00  0.00     0.048 A 
ENDBRANCH  17  19
ENDBRANCH   8  17
TORSDOF 5
ENDMDL
MODEL 7
REMARK VINA RESULT:      -7.1      4.204      6.396
REMARK  5 active torsions:
REMARK  status: ('A' for Active; 'I' for Inactive)
REMARK    1  A    between atoms: C3_4  and  S1_5 
REMARK    2  A    between atoms: S1_5  and  C4_6 
REMARK    3  A    between atoms: C4_6  and  C5_7 
REMARK    4  A    between atoms: C9_12  and  N2_13 
REMARK    5  A    between atoms: N2_13  and  C10_14 
ROOT
HETATM    1  N1  UNL     1      21.720   5.670  49.882  1.00  0.00    -0.191 NA
HETATM    2  C1  UNL     1      22.851   5.496  49.677  1.00  0.00     0.100 C 
HETATM    3  C2  UNL     1      24.258   5.303  49.416  1.00  0.00     0.059 A 
HETATM    4  C3  UNL     1      24.809   4.099  49.669  1.00  0.00     0.004 A 
HETATM    5  C6  UNL     1      26.236   3.859  49.420  1.00  0.00     0.088 A 
HETATM    6  C7  UNL     1      26.905   5.067  48.886  1.00  0.00    -0.026 A 
HETATM    7  C8  UNL     1      28.178   4.891  48.646  1.00  0.00     0.013 A 
HETATM    8  C9  UNL     1      29.118   5.911  48.111  1.00  0.00     0.146 A 
HETATM    9  C16 UNL     1      28.400   7.200  47.878  1.00  0.00     0.119 A 
HETATM   10  N3  UNL     1      27.141   7.367  48.115  1.00  0.00    -0.262 NA
HETATM   11  C17 UNL     1      26.286   6.358  48.627  1.00  0.00     0.064 A 
HETATM   12  C18 UNL     1      25.012   6.458  48.882  1.00  0.00     0.056 A 
ENDROOT
BRANCH   4  13
HETATM   13  S1  UNL     1      23.719   2.847  50.312  1.00  0.00    -0.126 SA
BRANCH  13  14
HETATM   14  C4  UNL     1      23.815   2.844  52.108  1.00  0.00     0.148 C 
BRANCH  14  15
HETATM   15  C5  UNL     1      24.284   1.557  52.670  1.00  0.00     0.241 C 
HETATM   16  O1  UNL     1      23.448   0.664  52.534  1.00  0.00    -0.306 OA
ENDBRANCH  14  15
ENDBRANCH  13  14
ENDBRANCH   4  13
BRANCH   8  17
HETATM   17  N2  UNL     1      30.268   6.097  48.947  1.00  0.00    -0.377 N 
HETATM   18  H8  UNL     1      29.974   6.170  49.966  1.00  0.00     0.160 HD
BRANCH  17  19
HETATM   19  C10 UNL     1      31.666   6.185  48.711  1.00  0.00     0.030 A 
HETATM   20  C11 UNL     1      32.319   7.401  48.821  1.00  0.00     0.029 A 
HETATM   21  C12 UNL     1      33.679   7.471  48.599  1.00  0.00     0.004 A 
HETATM   22  C13 UNL     1      34.421   6.356  48.265  1.00  0.00     0.019 A 
HETATM   23  C14 UNL     1      33.718   5.194  48.172  1.00  0.00     0.013 A 
HETATM   24 BR1  UNL     1      34.666   3.600  47.711  1.00  0.00    -0.051 Br
HETATM   25  C15 UNL     1      32.376   5.052  48.378  1.00  0.00     0.048 A 
ENDBRANCH  17  19
ENDBRANCH   8  17
TORSDOF 5
ENDMDL
MODEL 8
REMARK VINA RESULT:      -7.0      4.842      8.746
REMARK  5 active torsions:
REMARK  status: ('A' for Active; 'I' for Inactive)
REMARK    1  A    between atoms: C3_4  and  S1_5 
REMARK    2  A    between atoms: S1_5  and  C4_6 
REMARK    3  A    between atoms: C4_6  and  C5_7 
REMARK    4  A    between atoms: C9_12  and  N2_13 
REMARK    5  A    between atoms: N2_13  and  C10_14 
ROOT
HETATM    1  N1  UNL     1      29.130   7.871  47.444  1.00  0.00    -0.191 NA
HETATM    2  C1  UNL     1      28.252   7.452  48.079  1.00  0.00     0.100 C 
HETATM    3  C2  UNL     1      27.165   6.909  48.860  1.00  0.00     0.059 A 
HETATM    4  C3  UNL     1      26.475   7.731  49.676  1.00  0.00     0.004 A 
HETATM    5  C6  UNL     1      25.363   7.220  50.489  1.00  0.00     0.088 A 
HETATM    6  C7  UNL     1      25.151   5.771  50.273  1.00  0.00    -0.026 A 
HETATM    7  C8  UNL     1      24.166   5.280  50.976  1.00  0.00     0.013 A 
HETATM    8  C9  UNL     1      23.709   3.865  50.979  1.00  0.00     0.146 A 
HETATM    9  C16 UNL     1      24.550   3.053  50.048  1.00  0.00     0.119 A 
HETATM   10  N3  UNL     1      25.522   3.544  49.354  1.00  0.00    -0.262 NA
HETATM   11  C17 UNL     1      25.917   4.906  49.388  1.00  0.00     0.064 A 
HETATM   12  C18 UNL     1      26.880   5.465  48.711  1.00  0.00     0.056 A 
ENDROOT
BRANCH   4  13
HETATM   13  S1  UNL     1      26.987   9.434  49.705  1.00  0.00    -0.126 SA
BRANCH  13  14
HETATM   14  C4  UNL     1      25.973  10.377  48.556  1.00  0.00     0.148 C 
BRANCH  14  15
HETATM   15  C5  UNL     1      26.509  11.727  48.269  1.00  0.00     0.241 C 
HETATM   16  O1  UNL     1      27.493  11.988  48.960  1.00  0.00    -0.306 OA
ENDBRANCH  14  15
ENDBRANCH  13  14
ENDBRANCH   4  13
BRANCH   8  17
HETATM   17  N2  UNL     1      23.685   3.294  52.294  1.00  0.00    -0.377 N 
HETATM   18  H8  UNL     1      23.285   3.991  52.990  1.00  0.00     0.160 HD
BRANCH  17  19
HETATM   19  C10 UNL     1      24.054   2.035  52.839  1.00  0.00     0.030 A 
HETATM   20  C11 UNL     1      23.143   0.993  52.872  1.00  0.00     0.029 A 
HETATM   21  C12 UNL     1      23.518  -0.228  53.395  1.00  0.00     0.004 A 
HETATM   22  C13 UNL     1      24.786  -0.448  53.895  1.00  0.00     0.019 A 
HETATM   23  C14 UNL     1      25.631   0.617  53.833  1.00  0.00     0.013 A 
HETATM   24 BR1  UNL     1      27.407   0.401  54.505  1.00  0.00    -0.051 Br
HETATM   25  C15 UNL     1      25.328   1.850  53.329  1.00  0.00     0.048 A 
ENDBRANCH  17  19
ENDBRANCH   8  17
TORSDOF 5
ENDMDL
MODEL 9
REMARK VINA RESULT:      -7.0      2.600      3.197
REMARK  5 active torsions:
REMARK  status: ('A' for Active; 'I' for Inactive)
REMARK    1  A    between atoms: C3_4  and  S1_5 
REMARK    2  A    between atoms: S1_5  and  C4_6 
REMARK    3  A    between atoms: C4_6  and  C5_7 
REMARK    4  A    between atoms: C9_12  and  N2_13 
REMARK    5  A    between atoms: N2_13  and  C10_14 
ROOT
HETATM    1  N1  UNL     1      24.727  -1.533  55.750  1.00  0.00    -0.191 NA
HETATM    2  C1  UNL     1      24.527  -0.876  54.813  1.00  0.00     0.100 C 
HETATM    3  C2  UNL     1      24.257  -0.055  53.656  1.00  0.00     0.059 A 
HETATM    4  C3  UNL     1      25.270   0.249  52.821  1.00  0.00     0.004 A 
HETATM    5  C6  UNL     1      25.040   1.081  51.633  1.00  0.00     0.088 A 
HETATM    6  C7  UNL     1      23.621   1.491  51.523  1.00  0.00    -0.026 A 
HETATM    7  C8  UNL     1      23.374   2.229  50.473  1.00  0.00     0.013 A 
HETATM    8  C9  UNL     1      22.054   2.795  50.089  1.00  0.00     0.146 A 
HETATM    9  C16 UNL     1      21.016   2.400  51.089  1.00  0.00     0.119 A 
HETATM   10  N3  UNL     1      21.266   1.668  52.123  1.00  0.00    -0.262 NA
HETATM   11  C17 UNL     1      22.547   1.151  52.444  1.00  0.00     0.064 A 
HETATM   12  C18 UNL     1      22.864   0.405  53.464  1.00  0.00     0.056 A 
ENDROOT
BRANCH   4  13
HETATM   13  S1  UNL     1      26.869  -0.407  53.242  1.00  0.00    -0.126 SA
BRANCH  13  14
HETATM   14  C4  UNL     1      27.724   0.757  54.315  1.00  0.00     0.148 C 
BRANCH  14  15
HETATM   15  C5  UNL     1      28.721   1.589  53.605  1.00  0.00     0.241 C 
HETATM   16  O1  UNL     1      28.803   2.719  54.085  1.00  0.00    -0.306 OA
ENDBRANCH  14  15
ENDBRANCH  13  14
ENDBRANCH   4  13
BRANCH   8  17
HETATM   17  N2  UNL     1      22.092   4.217  49.910  1.00  0.00    -0.377 N 
HETATM   18  H8  UNL     1      21.157   4.567  49.544  1.00  0.00     0.160 HD
BRANCH  17  19
HETATM   19  C10 UNL     1      23.074   5.220  50.124  1.00  0.00     0.030 A 
HETATM   20  C11 UNL     1      23.321   5.697  51.401  1.00  0.00     0.029 A 
HETATM   21  C12 UNL     1      24.285   6.666  51.596  1.00  0.00     0.004 A 
HETATM   22  C13 UNL     1      25.021   7.183  50.549  1.00  0.00     0.019 A 
HETATM   23  C14 UNL     1      24.729   6.671  49.321  1.00  0.00     0.013 A 
HETATM   24 BR1  UNL     1      25.699   7.333  47.814  1.00  0.00    -0.051 Br
HETATM   25  C15 UNL     1      23.791   5.715  49.056  1.00  0.00     0.048 A 
ENDBRANCH  17  19
ENDBRANCH   8  17
TORSDOF 5
ENDMDL
