MODEL 1
REMARK VINA RESULT:      -7.9      0.000      0.000
REMARK  7 active torsions:
REMARK  status: ('A' for Active; 'I' for Inactive)
REMARK    1  A    between atoms: C2_2  and  O1_3 
REMARK    2  A    between atoms: O1_3  and  C3_4 
REMARK       I    between atoms: C3_4  and  N1_6 
REMARK    3  A    between atoms: N1_6  and  C4_7 
REMARK    4  A    between atoms: C7_10  and  O3_11 
REMARK    5  A    between atoms: O3_11  and  C8_12 
REMARK    6  A    between atoms: C12_18  and  C13_19 
REMARK    7  A    between atoms: C15_21  and  O4_22 
ROOT
HETATM    1  C8  UNL     1      26.000   2.566  50.973  1.00  0.00     0.183 A 
HETATM    2  N2  UNL     1      27.227   2.569  51.516  1.00  0.00    -0.217 NA
HETATM    3  C9  UNL     1      27.388   1.840  52.654  1.00  0.00     0.236 A 
HETATM    4  N3  UNL     1      26.388   1.146  53.219  1.00  0.00    -0.241 NA
HETATM    5  C10 UNL     1      25.137   1.121  52.697  1.00  0.00     0.073 A 
HETATM    6  C11 UNL     1      24.094   0.415  53.262  1.00  0.00     0.042 A 
HETATM    7  C12 UNL     1      22.824   0.430  52.672  1.00  0.00    -0.023 A 
HETATM    8  C15 UNL     1      22.649   1.162  51.525  1.00  0.00     0.075 A 
HETATM    9  C17 UNL     1      23.701   1.851  50.990  1.00  0.00     0.055 A 
HETATM   10  C18 UNL     1      24.964   1.865  51.533  1.00  0.00     0.049 A 
ENDROOT
BRANCH   1  11
HETATM   11  O3  UNL     1      25.684   3.262  49.814  1.00  0.00    -0.291 OA
BRANCH  11  12
HETATM   12  C7  UNL     1      26.077   4.560  49.544  1.00  0.00     0.078 A 
HETATM   13  C6  UNL     1      27.131   4.883  48.743  1.00  0.00     0.039 A 
HETATM   14  C5  UNL     1      27.490   6.189  48.498  1.00  0.00     0.032 A 
HETATM   15  C4  UNL     1      26.813   7.256  49.044  1.00  0.00     0.037 A 
HETATM   16  C20 UNL     1      25.757   6.894  49.845  1.00  0.00     0.032 A 
HETATM   17  C19 UNL     1      25.374   5.598  50.109  1.00  0.00     0.039 A 
BRANCH  15  18
HETATM   18  N1  UNL     1      27.242   8.570  48.746  1.00  0.00    -0.303 N 
HETATM   19  C3  UNL     1      27.520   9.626  49.616  1.00  0.00     0.365 C 
HETATM   20  O2  UNL     1      27.403   9.485  50.837  1.00  0.00    -0.238 OA
HETATM   21  H6  UNL     1      27.386   8.838  47.746  1.00  0.00     0.171 HD
BRANCH  19  22
HETATM   22  O1  UNL     1      27.937  10.885  49.227  1.00  0.00    -0.304 OA
BRANCH  22  23
HETATM   23  C2  UNL     1      29.055  11.049  48.341  1.00  0.00     0.176 C 
HETATM   24  C1  UNL     1      30.332  10.685  49.047  1.00  0.00     0.034 C 
ENDBRANCH  22  23
ENDBRANCH  19  22
ENDBRANCH  15  18
ENDBRANCH  11  12
ENDBRANCH   1  11
BRANCH   8  25
HETATM   25  O4  UNL     1      21.360   1.108  51.028  1.00  0.00    -0.355 OA
HETATM   26  C16 UNL     1      21.239   0.856  49.637  1.00  0.00     0.210 C 
ENDBRANCH   8  25
BRANCH   7  27
HETATM   27  C13 UNL     1      21.851  -0.390  53.436  1.00  0.00     0.037 C 
HETATM   28  C14 UNL     1      22.443  -0.992  54.688  1.00  0.00     0.010 C 
ENDBRANCH   7  27
TORSDOF 7
ENDMDL
MODEL 2
REMARK VINA RESULT:      -7.3      3.511     10.100
REMARK  7 active torsions:
REMARK  status: ('A' for Active; 'I' for Inactive)
REMARK    1  A    between atoms: C2_2  and  O1_3 
REMARK    2  A    between atoms: O1_3  and  C3_4 
REMARK       I    between atoms: C3_4  and  N1_6 
REMARK    3  A    between atoms: N1_6  and  C4_7 
REMARK    4  A    between atoms: C7_10  and  O3_11 
REMARK    5  A    between atoms: O3_11  and  C8_12 
REMARK    6  A    between atoms: C12_18  and  C13_19 
REMARK    7  A    between atoms: C15_21  and  O4_22 
ROOT
HETATM    1  C8  UNL     1      24.697   0.943  53.029  1.00  0.00     0.183 A 
HETATM    2  N2  UNL     1      25.506  -0.123  53.131  1.00  0.00    -0.217 NA
HETATM    3  C9  UNL     1      26.581  -0.148  52.297  1.00  0.00     0.236 A 
HETATM    4  N3  UNL     1      26.839   0.829  51.415  1.00  0.00    -0.241 NA
HETATM    5  C10 UNL     1      26.043   1.920  51.286  1.00  0.00     0.073 A 
HETATM    6  C11 UNL     1      26.289   2.936  50.386  1.00  0.00     0.042 A 
HETATM    7  C12 UNL     1      25.427   4.036  50.303  1.00  0.00    -0.023 A 
HETATM    8  C15 UNL     1      24.338   4.073  51.138  1.00  0.00     0.075 A 
HETATM    9  C17 UNL     1      24.122   3.050  52.019  1.00  0.00     0.055 A 
HETATM   10  C18 UNL     1      24.940   1.953  52.136  1.00  0.00     0.049 A 
ENDROOT
BRANCH   1  11
HETATM   11  O3  UNL     1      23.562   1.107  53.813  1.00  0.00    -0.291 OA
BRANCH  11  12
HETATM   12  C7  UNL     1      22.455   0.279  53.779  1.00  0.00     0.078 A 
HETATM   13  C6  UNL     1      22.267  -0.771  54.626  1.00  0.00     0.039 A 
HETATM   14  C5  UNL     1      21.149  -1.572  54.560  1.00  0.00     0.032 A 
HETATM   15  C4  UNL     1      20.149  -1.369  53.637  1.00  0.00     0.037 A 
HETATM   16  C20 UNL     1      20.371  -0.303  52.800  1.00  0.00     0.032 A 
HETATM   17  C19 UNL     1      21.477   0.516  52.841  1.00  0.00     0.039 A 
BRANCH  15  18
HETATM   18  N1  UNL     1      19.030  -2.236  53.631  1.00  0.00    -0.303 N 
HETATM   19  C3  UNL     1      17.680  -1.933  53.446  1.00  0.00     0.365 C 
HETATM   20  O2  UNL     1      17.316  -0.769  53.252  1.00  0.00    -0.238 OA
HETATM   21  H6  UNL     1      19.186  -3.258  53.783  1.00  0.00     0.171 HD
BRANCH  19  22
HETATM   22  O1  UNL     1      16.652  -2.855  53.457  1.00  0.00    -0.304 OA
BRANCH  22  23
HETATM   23  C2  UNL     1      16.916  -4.255  53.270  1.00  0.00     0.176 C 
HETATM   24  C1  UNL     1      16.160  -5.063  54.288  1.00  0.00     0.034 C 
ENDBRANCH  22  23
ENDBRANCH  19  22
ENDBRANCH  15  18
ENDBRANCH  11  12
ENDBRANCH   1  11
BRANCH   8  25
HETATM   25  O4  UNL     1      23.555   5.200  50.973  1.00  0.00    -0.355 OA
HETATM   26  C16 UNL     1      22.324   5.211  51.679  1.00  0.00     0.210 C 
ENDBRANCH   8  25
BRANCH   7  27
HETATM   27  C13 UNL     1      25.871   5.009  49.275  1.00  0.00     0.037 C 
HETATM   28  C14 UNL     1      27.278   4.753  48.790  1.00  0.00     0.010 C 
ENDBRANCH   7  27
TORSDOF 7
ENDMDL
MODEL 3
REMARK VINA RESULT:      -7.3      3.193      4.178
REMARK  7 active torsions:
REMARK  status: ('A' for Active; 'I' for Inactive)
REMARK    1  A    between atoms: C2_2  and  O1_3 
REMARK    2  A    between atoms: O1_3  and  C3_4 
REMARK       I    between atoms: C3_4  and  N1_6 
REMARK    3  A    between atoms: N1_6  and  C4_7 
REMARK    4  A    between atoms: C7_10  and  O3_11 
REMARK    5  A    between atoms: O3_11  and  C8_12 
REMARK    6  A    between atoms: C12_18  and  C13_19 
REMARK    7  A    between atoms: C15_21  and  O4_22 
ROOT
HETATM    1  C8  UNL     1      23.740   4.273  49.872  1.00  0.00     0.183 A 
HETATM    2  N2  UNL     1      22.962   4.275  48.779  1.00  0.00    -0.217 NA
HETATM    3  C9  UNL     1      22.172   3.182  48.595  1.00  0.00     0.236 A 
HETATM    4  N3  UNL     1      22.155   2.147  49.449  1.00  0.00    -0.241 NA
HETATM    5  C10 UNL     1      22.928   2.112  50.563  1.00  0.00     0.073 A 
HETATM    6  C11 UNL     1      22.926   1.058  51.454  1.00  0.00     0.042 A 
HETATM    7  C12 UNL     1      23.749   1.085  52.588  1.00  0.00    -0.023 A 
HETATM    8  C15 UNL     1      24.550   2.182  52.783  1.00  0.00     0.075 A 
HETATM    9  C17 UNL     1      24.529   3.209  51.882  1.00  0.00     0.055 A 
HETATM   10  C18 UNL     1      23.739   3.227  50.758  1.00  0.00     0.049 A 
ENDROOT
BRANCH   1  11
HETATM   11  O3  UNL     1      24.596   5.317  50.192  1.00  0.00    -0.291 OA
BRANCH  11  12
HETATM   12  C7  UNL     1      25.799   5.571  49.558  1.00  0.00     0.078 A 
HETATM   13  C6  UNL     1      26.239   6.820  49.237  1.00  0.00     0.039 A 
HETATM   14  C5  UNL     1      27.445   7.030  48.606  1.00  0.00     0.032 A 
HETATM   15  C4  UNL     1      28.285   5.999  48.256  1.00  0.00     0.037 A 
HETATM   16  C20 UNL     1      27.811   4.754  48.594  1.00  0.00     0.032 A 
HETATM   17  C19 UNL     1      26.611   4.512  49.225  1.00  0.00     0.039 A 
BRANCH  15  18
HETATM   18  N1  UNL     1      29.507   6.295  47.608  1.00  0.00    -0.303 N 
HETATM   19  C3  UNL     1      30.811   5.979  47.996  1.00  0.00     0.365 C 
HETATM   20  O2  UNL     1      31.024   5.352  49.038  1.00  0.00    -0.238 OA
HETATM   21  H6  UNL     1      29.484   6.825  46.708  1.00  0.00     0.171 HD
BRANCH  19  22
HETATM   22  O1  UNL     1      31.951   6.315  47.292  1.00  0.00    -0.304 OA
BRANCH  22  23
HETATM   23  C2  UNL     1      33.013   5.365  47.114  1.00  0.00     0.176 C 
HETATM   24  C1  UNL     1      32.744   4.510  45.906  1.00  0.00     0.034 C 
ENDBRANCH  22  23
ENDBRANCH  19  22
ENDBRANCH  15  18
ENDBRANCH  11  12
ENDBRANCH   1  11
BRANCH   8  25
HETATM   25  O4  UNL     1      25.320   2.104  53.929  1.00  0.00    -0.355 OA
HETATM   26  C16 UNL     1      26.719   1.978  53.731  1.00  0.00     0.210 C 
ENDBRANCH   8  25
BRANCH   7  27
HETATM   27  C13 UNL     1      23.595  -0.141  53.410  1.00  0.00     0.037 C 
HETATM   28  C14 UNL     1      22.265  -0.826  53.203  1.00  0.00     0.010 C 
ENDBRANCH   7  27
TORSDOF 7
ENDMDL
MODEL 4
REMARK VINA RESULT:      -7.3      4.365      8.658
REMARK  7 active torsions:
REMARK  status: ('A' for Active; 'I' for Inactive)
REMARK    1  A    between atoms: C2_2  and  O1_3 
REMARK    2  A    between atoms: O1_3  and  C3_4 
REMARK       I    between atoms: C3_4  and  N1_6 
REMARK    3  A    between atoms: N1_6  and  C4_7 
REMARK    4  A    between atoms: C7_10  and  O3_11 
REMARK    5  A    between atoms: O3_11  and  C8_12 
REMARK    6  A    between atoms: C12_18  and  C13_19 
REMARK    7  A    between atoms: C15_21  and  O4_22 
ROOT
HETATM    1  C8  UNL     1      24.573   2.564  52.120  1.00  0.00     0.183 A 
HETATM    2  N2  UNL     1      24.808   3.367  51.072  1.00  0.00    -0.217 NA
HETATM    3  C9  UNL     1      26.095   3.433  50.635  1.00  0.00     0.236 A 
HETATM    4  N3  UNL     1      27.091   2.739  51.206  1.00  0.00    -0.241 NA
HETATM    5  C10 UNL     1      26.889   1.918  52.267  1.00  0.00     0.073 A 
HETATM    6  C11 UNL     1      27.899   1.195  52.869  1.00  0.00     0.042 A 
HETATM    7  C12 UNL     1      27.623   0.364  53.962  1.00  0.00    -0.023 A 
HETATM    8  C15 UNL     1      26.329   0.290  54.412  1.00  0.00     0.075 A 
HETATM    9  C17 UNL     1      25.351   1.018  53.794  1.00  0.00     0.055 A 
HETATM   10  C18 UNL     1      25.574   1.846  52.719  1.00  0.00     0.049 A 
ENDROOT
BRANCH   1  11
HETATM   11  O3  UNL     1      23.312   2.395  52.675  1.00  0.00    -0.291 OA
BRANCH  11  12
HETATM   12  C7  UNL     1      22.180   2.038  51.966  1.00  0.00     0.078 A 
HETATM   13  C6  UNL     1      21.066   2.817  51.871  1.00  0.00     0.039 A 
HETATM   14  C5  UNL     1      19.959   2.424  51.153  1.00  0.00     0.032 A 
HETATM   15  C4  UNL     1      19.899   1.223  50.485  1.00  0.00     0.037 A 
HETATM   16  C20 UNL     1      21.038   0.463  50.602  1.00  0.00     0.032 A 
HETATM   17  C19 UNL     1      22.161   0.828  51.312  1.00  0.00     0.039 A 
BRANCH  15  18
HETATM   18  N1  UNL     1      18.725   0.889  49.769  1.00  0.00    -0.303 N 
HETATM   19  C3  UNL     1      17.654   0.084  50.158  1.00  0.00     0.365 C 
HETATM   20  O2  UNL     1      17.641  -0.456  51.268  1.00  0.00    -0.238 OA
HETATM   21  H6  UNL     1      18.596   1.277  48.808  1.00  0.00     0.171 HD
BRANCH  19  22
HETATM   22  O1  UNL     1      16.542  -0.186  49.383  1.00  0.00    -0.304 OA
BRANCH  22  23
HETATM   23  C2  UNL     1      15.628   0.860  49.018  1.00  0.00     0.176 C 
HETATM   24  C1  UNL     1      15.324   1.720  50.213  1.00  0.00     0.034 C 
ENDBRANCH  22  23
ENDBRANCH  19  22
ENDBRANCH  15  18
ENDBRANCH  11  12
ENDBRANCH   1  11
BRANCH   8  25
HETATM   25  O4  UNL     1      26.169  -0.557  55.493  1.00  0.00    -0.355 OA
HETATM   26  C16 UNL     1      24.871  -1.101  55.669  1.00  0.00     0.210 C 
ENDBRANCH   8  25
BRANCH   7  27
HETATM   27  C13 UNL     1      28.844  -0.318  54.458  1.00  0.00     0.037 C 
HETATM   28  C14 UNL     1      29.696  -0.883  53.347  1.00  0.00     0.010 C 
ENDBRANCH   7  27
TORSDOF 7
ENDMDL
MODEL 5
REMARK VINA RESULT:      -7.2      3.426      5.674
REMARK  7 active torsions:
REMARK  status: ('A' for Active; 'I' for Inactive)
REMARK    1  A    between atoms: C2_2  and  O1_3 
REMARK    2  A    between atoms: O1_3  and  C3_4 
REMARK       I    between atoms: C3_4  and  N1_6 
REMARK    3  A    between atoms: N1_6  and  C4_7 
REMARK    4  A    between atoms: C7_10  and  O3_11 
REMARK    5  A    between atoms: O3_11  and  C8_12 
REMARK    6  A    between atoms: C12_18  and  C13_19 
REMARK    7  A    between atoms: C15_21  and  O4_22 
ROOT
HETATM    1  C8  UNL     1      20.891   0.636  53.021  1.00  0.00     0.183 A 
HETATM    2  N2  UNL     1      21.935   0.399  53.829  1.00  0.00    -0.217 NA
HETATM    3  C9  UNL     1      21.855  -0.712  54.611  1.00  0.00     0.236 A 
HETATM    4  N3  UNL     1      20.800  -1.540  54.590  1.00  0.00    -0.241 NA
HETATM    5  C10 UNL     1      19.729  -1.331  53.785  1.00  0.00     0.073 A 
HETATM    6  C11 UNL     1      18.633  -2.169  53.748  1.00  0.00     0.042 A 
HETATM    7  C12 UNL     1      17.558  -1.896  52.893  1.00  0.00    -0.023 A 
HETATM    8  C15 UNL     1      17.627  -0.778  52.100  1.00  0.00     0.075 A 
HETATM    9  C17 UNL     1      18.725   0.033  52.160  1.00  0.00     0.055 A 
HETATM   10  C18 UNL     1      19.803  -0.195  52.982  1.00  0.00     0.049 A 
ENDROOT
BRANCH   1  11
HETATM   11  O3  UNL     1      20.829   1.730  52.167  1.00  0.00    -0.291 OA
BRANCH  11  12
HETATM   12  C7  UNL     1      21.922   2.302  51.541  1.00  0.00     0.078 A 
HETATM   13  C6  UNL     1      22.379   1.922  50.314  1.00  0.00     0.039 A 
HETATM   14  C5  UNL     1      23.471   2.519  49.725  1.00  0.00     0.032 A 
HETATM   15  C4  UNL     1      24.174   3.535  50.330  1.00  0.00     0.037 A 
HETATM   16  C20 UNL     1      23.686   3.892  51.564  1.00  0.00     0.032 A 
HETATM   17  C19 UNL     1      22.597   3.315  52.180  1.00  0.00     0.039 A 
BRANCH  15  18
HETATM   18  N1  UNL     1      25.286   4.097  49.660  1.00  0.00    -0.303 N 
HETATM   19  C3  UNL     1      26.642   3.793  49.793  1.00  0.00     0.365 C 
HETATM   20  O2  UNL     1      27.018   2.921  50.582  1.00  0.00    -0.238 OA
HETATM   21  H6  UNL     1      25.120   4.852  48.957  1.00  0.00     0.171 HD
BRANCH  19  22
HETATM   22  O1  UNL     1      27.664   4.402  49.090  1.00  0.00    -0.304 OA
BRANCH  22  23
HETATM   23  C2  UNL     1      27.468   5.680  48.467  1.00  0.00     0.176 C 
HETATM   24  C1  UNL     1      28.773   6.197  47.927  1.00  0.00     0.034 C 
ENDBRANCH  22  23
ENDBRANCH  19  22
ENDBRANCH  15  18
ENDBRANCH  11  12
ENDBRANCH   1  11
BRANCH   8  25
HETATM   25  O4  UNL     1      16.515  -0.603  51.297  1.00  0.00    -0.355 OA
HETATM   26  C16 UNL     1      15.654   0.468  51.651  1.00  0.00     0.210 C 
ENDBRANCH   8  25
BRANCH   7  27
HETATM   27  C13 UNL     1      16.488  -2.918  53.008  1.00  0.00     0.037 C 
HETATM   28  C14 UNL     1      17.000  -4.255  53.487  1.00  0.00     0.010 C 
ENDBRANCH   7  27
TORSDOF 7
ENDMDL
MODEL 6
REMARK VINA RESULT:      -7.0      1.614      2.154
REMARK  7 active torsions:
REMARK  status: ('A' for Active; 'I' for Inactive)
REMARK    1  A    between atoms: C2_2  and  O1_3 
REMARK    2  A    between atoms: O1_3  and  C3_4 
REMARK       I    between atoms: C3_4  and  N1_6 
REMARK    3  A    between atoms: N1_6  and  C4_7 
REMARK    4  A    between atoms: C7_10  and  O3_11 
REMARK    5  A    between atoms: O3_11  and  C8_12 
REMARK    6  A    between atoms: C12_18  and  C13_19 
REMARK    7  A    between atoms: C15_21  and  O4_22 
ROOT
HETATM    1  C8  UNL     1      25.048   2.239  51.224  1.00  0.00     0.183 A 
HETATM    2  N2  UNL     1      26.367   1.988  51.209  1.00  0.00    -0.217 NA
HETATM    3  C9  UNL     1      26.813   1.042  52.078  1.00  0.00     0.236 A 
HETATM    4  N3  UNL     1      25.998   0.381  52.915  1.00  0.00    -0.241 NA
HETATM    5  C10 UNL     1      24.662   0.609  52.956  1.00  0.00     0.073 A 
HETATM    6  C11 UNL     1      23.805  -0.058  53.808  1.00  0.00     0.042 A 
HETATM    7  C12 UNL     1      22.433   0.224  53.801  1.00  0.00    -0.023 A 
HETATM    8  C15 UNL     1      21.971   1.178  52.929  1.00  0.00     0.075 A 
HETATM    9  C17 UNL     1      22.845   1.821  52.098  1.00  0.00     0.055 A 
HETATM   10  C18 UNL     1      24.197   1.577  52.069  1.00  0.00     0.049 A 
ENDROOT
BRANCH   1  11
HETATM   11  O3  UNL     1      24.448   3.176  50.395  1.00  0.00    -0.291 OA
BRANCH  11  12
HETATM   12  C7  UNL     1      24.763   4.522  50.370  1.00  0.00     0.078 A 
HETATM   13  C6  UNL     1      24.100   5.471  51.090  1.00  0.00     0.039 A 
HETATM   14  C5  UNL     1      24.446   6.802  51.037  1.00  0.00     0.032 A 
HETATM   15  C4  UNL     1      25.480   7.267  50.257  1.00  0.00     0.037 A 
HETATM   16  C20 UNL     1      26.126   6.285  49.545  1.00  0.00     0.032 A 
HETATM   17  C19 UNL     1      25.804   4.946  49.577  1.00  0.00     0.039 A 
BRANCH  15  18
HETATM   18  N1  UNL     1      25.775   8.651  50.255  1.00  0.00    -0.303 N 
HETATM   19  C3  UNL     1      26.401   9.418  49.272  1.00  0.00     0.365 C 
HETATM   20  O2  UNL     1      26.786   8.901  48.219  1.00  0.00    -0.238 OA
HETATM   21  H6  UNL     1      25.505   9.223  51.087  1.00  0.00     0.171 HD
BRANCH  19  22
HETATM   22  O1  UNL     1      26.647  10.774  49.362  1.00  0.00    -0.304 OA
BRANCH  22  23
HETATM   23  C2  UNL     1      26.512  11.625  48.213  1.00  0.00     0.176 C 
HETATM   24  C1  UNL     1      25.066  11.729  47.814  1.00  0.00     0.034 C 
ENDBRANCH  22  23
ENDBRANCH  19  22
ENDBRANCH  15  18
ENDBRANCH  11  12
ENDBRANCH   1  11
BRANCH   8  25
HETATM   25  O4  UNL     1      20.605   1.378  53.005  1.00  0.00    -0.355 OA
HETATM   26  C16 UNL     1      20.110   2.543  52.364  1.00  0.00     0.210 C 
ENDBRANCH   8  25
BRANCH   7  27
HETATM   27  C13 UNL     1      21.695  -0.600  54.789  1.00  0.00     0.037 C 
HETATM   28  C14 UNL     1      21.256  -1.933  54.233  1.00  0.00     0.010 C 
ENDBRANCH   7  27
TORSDOF 7
ENDMDL
MODEL 7
REMARK VINA RESULT:      -7.0      5.707     10.194
REMARK  7 active torsions:
REMARK  status: ('A' for Active; 'I' for Inactive)
REMARK    1  A    between atoms: C2_2  and  O1_3 
REMARK    2  A    between atoms: O1_3  and  C3_4 
REMARK       I    between atoms: C3_4  and  N1_6 
REMARK    3  A    between atoms: N1_6  and  C4_7 
REMARK    4  A    between atoms: C7_10  and  O3_11 
REMARK    5  A    between atoms: O3_11  and  C8_12 
REMARK    6  A    between atoms: C12_18  and  C13_19 
REMARK    7  A    between atoms: C15_21  and  O4_22 
ROOT
HETATM    1  C8  UNL     1      22.376   1.323  52.375  1.00  0.00     0.183 A 
HETATM    2  N2  UNL     1      21.767   2.499  52.158  1.00  0.00    -0.217 NA
HETATM    3  C9  UNL     1      22.506   3.617  52.399  1.00  0.00     0.236 A 
HETATM    4  N3  UNL     1      23.776   3.568  52.829  1.00  0.00    -0.241 NA
HETATM    5  C10 UNL     1      24.421   2.398  53.058  1.00  0.00     0.073 A 
HETATM    6  C11 UNL     1      25.726   2.325  53.500  1.00  0.00     0.042 A 
HETATM    7  C12 UNL     1      26.335   1.082  53.717  1.00  0.00    -0.023 A 
HETATM    8  C15 UNL     1      25.600  -0.052  53.478  1.00  0.00     0.075 A 
HETATM    9  C17 UNL     1      24.309   0.053  53.040  1.00  0.00     0.055 A 
HETATM   10  C18 UNL     1      23.671   1.250  52.813  1.00  0.00     0.049 A 
ENDROOT
BRANCH   1  11
HETATM   11  O3  UNL     1      21.750   0.101  52.173  1.00  0.00    -0.291 OA
BRANCH  11  12
HETATM   12  C7  UNL     1      20.381  -0.095  52.186  1.00  0.00     0.078 A 
HETATM   13  C6  UNL     1      19.554   0.256  51.161  1.00  0.00     0.039 A 
HETATM   14  C5  UNL     1      18.195   0.044  51.213  1.00  0.00     0.032 A 
HETATM   15  C4  UNL     1      17.579  -0.535  52.299  1.00  0.00     0.037 A 
HETATM   16  C20 UNL     1      18.441  -0.876  53.313  1.00  0.00     0.032 A 
HETATM   17  C19 UNL     1      19.804  -0.677  53.290  1.00  0.00     0.039 A 
BRANCH  15  18
HETATM   18  N1  UNL     1      16.176  -0.719  52.278  1.00  0.00    -0.303 N 
HETATM   19  C3  UNL     1      15.162   0.189  52.586  1.00  0.00     0.365 C 
HETATM   20  O2  UNL     1      15.433   1.342  52.935  1.00  0.00    -0.238 OA
HETATM   21  H6  UNL     1      15.796  -1.652  52.000  1.00  0.00     0.171 HD
BRANCH  19  22
HETATM   22  O1  UNL     1      13.809  -0.086  52.536  1.00  0.00    -0.304 OA
BRANCH  22  23
HETATM   23  C2  UNL     1      13.248  -0.829  51.443  1.00  0.00     0.176 C 
HETATM   24  C1  UNL     1      13.089   0.062  50.241  1.00  0.00     0.034 C 
ENDBRANCH  22  23
ENDBRANCH  19  22
ENDBRANCH  15  18
ENDBRANCH  11  12
ENDBRANCH   1  11
BRANCH   8  25
HETATM   25  O4  UNL     1      26.296  -1.221  53.724  1.00  0.00    -0.355 OA
HETATM   26  C16 UNL     1      26.797  -1.898  52.582  1.00  0.00     0.210 C 
ENDBRANCH   8  25
BRANCH   7  27
HETATM   27  C13 UNL     1      27.734   1.228  54.189  1.00  0.00     0.037 C 
HETATM   28  C14 UNL     1      28.460   2.379  53.535  1.00  0.00     0.010 C 
ENDBRANCH   7  27
TORSDOF 7
ENDMDL
MODEL 8
REMARK VINA RESULT:      -6.9      2.645      9.506
REMARK  7 active torsions:
REMARK  status: ('A' for Active; 'I' for Inactive)
REMARK    1  A    between atoms: C2_2  and  O1_3 
REMARK    2  A    between atoms: O1_3  and  C3_4 
REMARK       I    between atoms: C3_4  and  N1_6 
REMARK    3  A    between atoms: N1_6  and  C4_7 
REMARK    4  A    between atoms: C7_10  and  O3_11 
REMARK    5  A    between atoms: O3_11  and  C8_12 
REMARK    6  A    between atoms: C12_18  and  C13_19 
REMARK    7  A    between atoms: C15_21  and  O4_22 
ROOT
HETATM    1  C8  UNL     1      26.422   5.316  48.994  1.00  0.00     0.183 A 
HETATM    2  N2  UNL     1      25.307   6.008  49.273  1.00  0.00    -0.217 NA
HETATM    3  C9  UNL     1      25.366   7.355  49.086  1.00  0.00     0.236 A 
HETATM    4  N3  UNL     1      26.469   7.978  48.645  1.00  0.00    -0.241 NA
HETATM    5  C10 UNL     1      27.613   7.311  48.353  1.00  0.00     0.073 A 
HETATM    6  C11 UNL     1      28.759   7.932  47.898  1.00  0.00     0.042 A 
HETATM    7  C12 UNL     1      29.908   7.183  47.614  1.00  0.00    -0.023 A 
HETATM    8  C15 UNL     1      29.860   5.824  47.800  1.00  0.00     0.075 A 
HETATM    9  C17 UNL     1      28.711   5.239  48.251  1.00  0.00     0.055 A 
HETATM   10  C18 UNL     1      27.560   5.932  48.542  1.00  0.00     0.049 A 
ENDROOT
BRANCH   1  11
HETATM   11  O3  UNL     1      26.512   3.938  49.136  1.00  0.00    -0.291 OA
BRANCH  11  12
HETATM   12  C7  UNL     1      25.906   3.209  50.143  1.00  0.00     0.078 A 
HETATM   13  C6  UNL     1      24.588   2.861  50.140  1.00  0.00     0.039 A 
HETATM   14  C5  UNL     1      24.023   2.133  51.162  1.00  0.00     0.032 A 
HETATM   15  C4  UNL     1      24.745   1.709  52.254  1.00  0.00     0.037 A 
HETATM   16  C20 UNL     1      26.068   2.077  52.224  1.00  0.00     0.032 A 
HETATM   17  C19 UNL     1      26.663   2.804  51.217  1.00  0.00     0.039 A 
BRANCH  15  18
HETATM   18  N1  UNL     1      24.092   0.965  53.265  1.00  0.00    -0.303 N 
HETATM   19  C3  UNL     1      24.353  -0.330  53.716  1.00  0.00     0.365 C 
HETATM   20  O2  UNL     1      25.265  -0.998  53.220  1.00  0.00    -0.238 OA
HETATM   21  H6  UNL     1      23.294   1.405  53.777  1.00  0.00     0.171 HD
BRANCH  19  22
HETATM   22  O1  UNL     1      23.655  -0.977  54.717  1.00  0.00    -0.304 OA
BRANCH  22  23
HETATM   23  C2  UNL     1      22.254  -0.731  54.914  1.00  0.00     0.176 C 
HETATM   24  C1  UNL     1      21.440  -1.645  54.040  1.00  0.00     0.034 C 
ENDBRANCH  22  23
ENDBRANCH  19  22
ENDBRANCH  15  18
ENDBRANCH  11  12
ENDBRANCH   1  11
BRANCH   8  25
HETATM   25  O4  UNL     1      31.046   5.185  47.491  1.00  0.00    -0.355 OA
HETATM   26  C16 UNL     1      31.991   5.083  48.545  1.00  0.00     0.210 C 
ENDBRANCH   8  25
BRANCH   7  27
HETATM   27  C13 UNL     1      31.022   8.042  47.141  1.00  0.00     0.037 C 
HETATM   28  C14 UNL     1      31.072   8.165  45.637  1.00  0.00     0.010 C 
ENDBRANCH   7  27
TORSDOF 7
ENDMDL
MODEL 9
REMARK VINA RESULT:      -6.9      5.040      9.276
REMARK  7 active torsions:
REMARK  status: ('A' for Active; 'I' for Inactive)
REMARK    1  A    between atoms: C2_2  and  O1_3 
REMARK    2  A    between atoms: O1_3  and  C3_4 
REMARK       I    between atoms: C3_4  and  N1_6 
REMARK    3  A    between atoms: N1_6  and  C4_7 
REMARK    4  A    between atoms: C7_10  and  O3_11 
REMARK    5  A    between atoms: O3_11  and  C8_12 
REMARK    6  A    between atoms: C12_18  and  C13_19 
REMARK    7  A    between atoms: C15_21  and  O4_22 
ROOT
HETATM    1  C8  UNL     1      22.269   0.683  53.283  1.00  0.00     0.183 A 
HETATM    2  N2  UNL     1      21.483   0.057  54.172  1.00  0.00    -0.217 NA
HETATM    3  C9  UNL     1      22.087  -0.868  54.967  1.00  0.00     0.236 A 
HETATM    4  N3  UNL     1      23.395  -1.154  54.884  1.00  0.00    -0.241 NA
HETATM    5  C10 UNL     1      24.218  -0.540  53.998  1.00  0.00     0.073 A 
HETATM    6  C11 UNL     1      25.565  -0.819  53.895  1.00  0.00     0.042 A 
HETATM    7  C12 UNL     1      26.360  -0.148  52.957  1.00  0.00    -0.023 A 
HETATM    8  C15 UNL     1      25.763   0.787  52.149  1.00  0.00     0.075 A 
HETATM    9  C17 UNL     1      24.425   1.040  52.275  1.00  0.00     0.055 A 
HETATM   10  C18 UNL     1      23.607   0.408  53.180  1.00  0.00     0.049 A 
ENDROOT
BRANCH   1  11
HETATM   11  O3  UNL     1      21.796   1.650  52.406  1.00  0.00    -0.291 OA
BRANCH  11  12
HETATM   12  C7  UNL     1      20.503   1.705  51.917  1.00  0.00     0.078 A 
HETATM   13  C6  UNL     1      19.890   0.670  51.275  1.00  0.00     0.039 A 
HETATM   14  C5  UNL     1      18.600   0.766  50.803  1.00  0.00     0.032 A 
HETATM   15  C4  UNL     1      17.844   1.906  50.945  1.00  0.00     0.037 A 
HETATM   16  C20 UNL     1      18.493   2.928  51.595  1.00  0.00     0.032 A 
HETATM   17  C19 UNL     1      19.781   2.864  52.078  1.00  0.00     0.039 A 
BRANCH  15  18
HETATM   18  N1  UNL     1      16.526   1.927  50.432  1.00  0.00    -0.303 N 
HETATM   19  C3  UNL     1      15.316   1.730  51.099  1.00  0.00     0.365 C 
HETATM   20  O2  UNL     1      15.295   1.499  52.312  1.00  0.00    -0.238 OA
HETATM   21  H6  UNL     1      16.386   2.113  49.413  1.00  0.00     0.171 HD
BRANCH  19  22
HETATM   22  O1  UNL     1      14.068   1.769  50.507  1.00  0.00    -0.304 OA
BRANCH  22  23
HETATM   23  C2  UNL     1      13.512   3.009  50.044  1.00  0.00     0.176 C 
HETATM   24  C1  UNL     1      12.835   3.727  51.178  1.00  0.00     0.034 C 
ENDBRANCH  22  23
ENDBRANCH  19  22
ENDBRANCH  15  18
ENDBRANCH  11  12
ENDBRANCH   1  11
BRANCH   8  25
HETATM   25  O4  UNL     1      26.637   1.387  51.262  1.00  0.00    -0.355 OA
HETATM   26  C16 UNL     1      26.396   2.757  50.982  1.00  0.00     0.210 C 
ENDBRANCH   8  25
BRANCH   7  27
HETATM   27  C13 UNL     1      27.774  -0.595  53.012  1.00  0.00     0.037 C 
HETATM   28  C14 UNL     1      28.572   0.106  54.085  1.00  0.00     0.010 C 
ENDBRANCH   7  27
TORSDOF 7
ENDMDL
