MODEL 1
REMARK VINA RESULT:      -8.3      0.000      0.000
REMARK  4 active torsions:
REMARK  status: ('A' for Active; 'I' for Inactive)
REMARK    1  A    between atoms: O1_1  and  C1_2 
REMARK    2  A    between atoms: C1_2  and  C2_3 
REMARK    3  A    between atoms: C2_3  and  O2_4 
REMARK    4  A    between atoms: O2_4  and  C3_5 
ROOT
HETATM    1  C3  UNL     1      28.349   0.505  52.884  1.00  0.00     0.118 A 
HETATM    2  C4  UNL     1      27.437   1.144  52.404  1.00  0.00     0.041 A 
HETATM    3  C5  UNL     1      26.623   1.704  52.001  1.00  0.00    -0.046 A 
HETATM    4  C6  UNL     1      25.697   2.328  51.569  1.00  0.00     0.116 A 
HETATM    5  C7  UNL     1      25.899   1.653  52.936  1.00  0.00     0.071 A 
HETATM    6  C8  UNL     1      27.008   0.816  53.662  1.00  0.00     0.042 A 
HETATM    7  C9  UNL     1      26.509   0.432  55.078  1.00  0.00     0.183 C 
HETATM    8  O3  UNL     1      25.160   0.231  55.037  1.00  0.00    -0.379 OA
HETATM    9  C10 UNL     1      24.807  -0.854  54.188  1.00  0.00     0.261 C 
HETATM   10  C11 UNL     1      23.400  -1.003  54.093  1.00  0.00    -0.080 C 
HETATM   11  C12 UNL     1      22.288  -1.102  54.012  1.00  0.00    -0.098 C 
HETATM   12  C13 UNL     1      20.903  -1.201  53.903  1.00  0.00     0.089 C 
HETATM   13  C14 UNL     1      19.977  -0.467  53.298  1.00  0.00     0.034 C 
HETATM   14  C15 UNL     1      19.188   0.539  52.528  1.00  0.00    -0.022 C 
HETATM   15  C16 UNL     1      19.139   1.666  51.768  1.00  0.00    -0.011 C 
HETATM   16  C17 UNL     1      20.453   2.255  51.531  1.00  0.00     0.147 C 
HETATM   17  N1  UNL     1      20.474   3.595  52.100  1.00  0.00    -0.381 N 
HETATM   18  C18 UNL     1      21.797   4.171  51.981  1.00  0.00     0.204 C 
HETATM   19  N2  UNL     1      22.874   3.539  51.666  1.00  0.00    -0.238 NA
HETATM   20  C19 UNL     1      24.150   4.151  51.567  1.00  0.00     0.229 C 
HETATM   21  N3  UNL     1      24.444   2.907  51.610  1.00  0.00    -0.264 NA
HETATM   22  H17 UNL     1      19.768   4.207  52.556  1.00  0.00     0.160 HD
ENDROOT
BRANCH   1  23
HETATM   23  O2  UNL     1      28.895  -0.200  53.934  1.00  0.00    -0.373 OA
BRANCH  23  24
HETATM   24  C2  UNL     1      29.681  -1.341  53.570  1.00  0.00     0.195 C 
BRANCH  24  25
HETATM   25  C1  UNL     1      28.732  -2.310  52.858  1.00  0.00     0.190 C 
BRANCH  25  26
HETATM   26  O1  UNL     1      28.747  -3.530  53.511  1.00  0.00    -0.399 OA
HETATM   27  H1  UNL     1      29.647  -3.733  53.824  1.00  0.00     0.209 HD
ENDBRANCH  25  26
ENDBRANCH  24  25
ENDBRANCH  23  24
ENDBRANCH   1  23
TORSDOF 4
ENDMDL
MODEL 2
REMARK VINA RESULT:      -7.9      2.454      4.783
REMARK  4 active torsions:
REMARK  status: ('A' for Active; 'I' for Inactive)
REMARK    1  A    between atoms: O1_1  and  C1_2 
REMARK    2  A    between atoms: C1_2  and  C2_3 
REMARK    3  A    between atoms: C2_3  and  O2_4 
REMARK    4  A    between atoms: O2_4  and  C3_5 
ROOT
HETATM    1  C3  UNL     1      26.109  -0.244  54.408  1.00  0.00     0.118 A 
HETATM    2  C4  UNL     1      25.045   0.061  53.913  1.00  0.00     0.041 A 
HETATM    3  C5  UNL     1      24.118   0.331  53.459  1.00  0.00    -0.046 A 
HETATM    4  C6  UNL     1      23.090   0.637  52.926  1.00  0.00     0.116 A 
HETATM    5  C7  UNL     1      24.507   0.475  52.350  1.00  0.00     0.071 A 
HETATM    6  C8  UNL     1      25.934   0.094  52.873  1.00  0.00     0.042 A 
HETATM    7  C9  UNL     1      26.940   0.150  51.695  1.00  0.00     0.183 C 
HETATM    8  O3  UNL     1      26.569   1.147  50.839  1.00  0.00    -0.379 OA
HETATM    9  C10 UNL     1      26.614   2.426  51.457  1.00  0.00     0.261 C 
HETATM   10  C11 UNL     1      26.153   3.442  50.583  1.00  0.00    -0.080 C 
HETATM   11  C12 UNL     1      25.772   4.234  49.889  1.00  0.00    -0.098 C 
HETATM   12  C13 UNL     1      25.275   5.208  49.025  1.00  0.00     0.089 C 
HETATM   13  C14 UNL     1      24.061   5.502  48.576  1.00  0.00     0.034 C 
HETATM   14  C15 UNL     1      22.605   5.583  48.258  1.00  0.00    -0.022 C 
HETATM   15  C16 UNL     1      21.337   5.114  48.414  1.00  0.00    -0.011 C 
HETATM   16  C17 UNL     1      21.255   3.975  49.321  1.00  0.00     0.147 C 
HETATM   17  N1  UNL     1      20.738   2.829  48.587  1.00  0.00    -0.381 N 
HETATM   18  C18 UNL     1      20.744   1.649  49.426  1.00  0.00     0.204 C 
HETATM   19  N2  UNL     1      21.343   1.529  50.560  1.00  0.00    -0.238 NA
HETATM   20  C19 UNL     1      21.322   0.346  51.344  1.00  0.00     0.229 C 
HETATM   21  N3  UNL     1      22.286   1.005  51.866  1.00  0.00    -0.264 NA
HETATM   22  H17 UNL     1      20.377   2.680  47.624  1.00  0.00     0.160 HD
ENDROOT
BRANCH   1  23
HETATM   23  O2  UNL     1      27.461  -0.483  54.290  1.00  0.00    -0.373 OA
BRANCH  23  24
HETATM   24  C2  UNL     1      28.299   0.234  55.202  1.00  0.00     0.195 C 
BRANCH  24  25
HETATM   25  C1  UNL     1      29.162   1.171  54.352  1.00  0.00     0.190 C 
BRANCH  25  26
HETATM   26  O1  UNL     1      28.621   2.444  54.380  1.00  0.00    -0.399 OA
HETATM   27  H1  UNL     1      29.275   3.081  54.720  1.00  0.00     0.209 HD
ENDBRANCH  25  26
ENDBRANCH  24  25
ENDBRANCH  23  24
ENDBRANCH   1  23
TORSDOF 4
ENDMDL
MODEL 3
REMARK VINA RESULT:      -7.8      4.130      6.972
REMARK  4 active torsions:
REMARK  status: ('A' for Active; 'I' for Inactive)
REMARK    1  A    between atoms: O1_1  and  C1_2 
REMARK    2  A    between atoms: C1_2  and  C2_3 
REMARK    3  A    between atoms: C2_3  and  O2_4 
REMARK    4  A    between atoms: O2_4  and  C3_5 
ROOT
HETATM    1  C3  UNL     1      22.232   4.249  48.388  1.00  0.00     0.118 A 
HETATM    2  C4  UNL     1      23.092   3.871  49.155  1.00  0.00     0.041 A 
HETATM    3  C5  UNL     1      23.841   3.519  49.828  1.00  0.00    -0.046 A 
HETATM    4  C6  UNL     1      24.672   3.101  50.582  1.00  0.00     0.116 A 
HETATM    5  C7  UNL     1      23.534   2.376  49.843  1.00  0.00     0.071 A 
HETATM    6  C8  UNL     1      22.381   2.743  48.847  1.00  0.00     0.042 A 
HETATM    7  C9  UNL     1      21.569   1.465  48.516  1.00  0.00     0.183 C 
HETATM    8  O3  UNL     1      21.538   0.659  49.617  1.00  0.00    -0.379 OA
HETATM    9  C10 UNL     1      20.874   1.275  50.712  1.00  0.00     0.261 C 
HETATM   10  C11 UNL     1      20.916   0.460  51.871  1.00  0.00    -0.080 C 
HETATM   11  C12 UNL     1      20.970  -0.185  52.785  1.00  0.00    -0.098 C 
HETATM   12  C13 UNL     1      21.062  -0.987  53.920  1.00  0.00     0.089 C 
HETATM   13  C14 UNL     1      22.056  -1.302  54.741  1.00  0.00     0.034 C 
HETATM   14  C15 UNL     1      23.348  -1.464  55.471  1.00  0.00    -0.022 C 
HETATM   15  C16 UNL     1      24.671  -1.176  55.601  1.00  0.00    -0.011 C 
HETATM   16  C17 UNL     1      25.165  -0.271  54.568  1.00  0.00     0.147 C 
HETATM   17  N1  UNL     1      26.202  -0.952  53.806  1.00  0.00    -0.381 N 
HETATM   18  C18 UNL     1      26.641  -0.125  52.703  1.00  0.00     0.204 C 
HETATM   19  N2  UNL     1      26.055   0.939  52.272  1.00  0.00    -0.238 NA
HETATM   20  C19 UNL     1      26.524   1.714  51.181  1.00  0.00     0.229 C 
HETATM   21  N3  UNL     1      25.324   2.134  51.320  1.00  0.00    -0.264 NA
HETATM   22  H17 UNL     1      26.680  -1.873  53.882  1.00  0.00     0.160 HD
ENDROOT
BRANCH   1  23
HETATM   23  O2  UNL     1      21.144   3.986  47.584  1.00  0.00    -0.373 OA
BRANCH  23  24
HETATM   24  C2  UNL     1      20.882   4.953  46.562  1.00  0.00     0.195 C 
BRANCH  24  25
HETATM   25  C1  UNL     1      22.032   4.842  45.556  1.00  0.00     0.190 C 
BRANCH  25  26
HETATM   26  O1  UNL     1      21.925   3.647  44.867  1.00  0.00    -0.399 OA
HETATM   27  H1  UNL     1      21.466   2.982  45.413  1.00  0.00     0.209 HD
ENDBRANCH  25  26
ENDBRANCH  24  25
ENDBRANCH  23  24
ENDBRANCH   1  23
TORSDOF 4
ENDMDL
MODEL 4
REMARK VINA RESULT:      -7.5      2.020      4.164
REMARK  4 active torsions:
REMARK  status: ('A' for Active; 'I' for Inactive)
REMARK    1  A    between atoms: O1_1  and  C1_2 
REMARK    2  A    between atoms: C1_2  and  C2_3 
REMARK    3  A    between atoms: C2_3  and  O2_4 
REMARK    4  A    between atoms: O2_4  and  C3_5 
ROOT
HETATM    1  C3  UNL     1      27.228  -0.290  54.212  1.00  0.00     0.118 A 
HETATM    2  C4  UNL     1      26.016  -0.330  54.224  1.00  0.00     0.041 A 
HETATM    3  C5  UNL     1      24.950  -0.359  54.214  1.00  0.00    -0.046 A 
HETATM    4  C6  UNL     1      23.753  -0.384  54.179  1.00  0.00     0.116 A 
HETATM    5  C7  UNL     1      24.780  -0.024  53.092  1.00  0.00     0.071 A 
HETATM    6  C8  UNL     1      26.339   0.065  52.954  1.00  0.00     0.042 A 
HETATM    7  C9  UNL     1      26.697   0.530  51.519  1.00  0.00     0.183 C 
HETATM    8  O3  UNL     1      25.738   1.395  51.079  1.00  0.00    -0.379 OA
HETATM    9  C10 UNL     1      25.677   2.574  51.871  1.00  0.00     0.261 C 
HETATM   10  C11 UNL     1      24.627   3.429  51.451  1.00  0.00    -0.080 C 
HETATM   11  C12 UNL     1      23.784   4.089  51.121  1.00  0.00    -0.098 C 
HETATM   12  C13 UNL     1      22.720   4.891  50.715  1.00  0.00     0.089 C 
HETATM   13  C14 UNL     1      21.401   4.787  50.823  1.00  0.00     0.034 C 
HETATM   14  C15 UNL     1      19.988   4.395  51.099  1.00  0.00    -0.022 C 
HETATM   15  C16 UNL     1      19.090   3.518  51.626  1.00  0.00    -0.011 C 
HETATM   16  C17 UNL     1      19.720   2.362  52.257  1.00  0.00     0.147 C 
HETATM   17  N1  UNL     1      19.287   1.158  51.563  1.00  0.00    -0.381 N 
HETATM   18  C18 UNL     1      19.976  -0.001  52.090  1.00  0.00     0.204 C 
HETATM   19  N2  UNL     1      21.002   0.015  52.868  1.00  0.00    -0.238 NA
HETATM   20  C19 UNL     1      21.645  -1.152  53.355  1.00  0.00     0.229 C 
HETATM   21  N3  UNL     1      22.511  -0.242  53.593  1.00  0.00    -0.264 NA
HETATM   22  H17 UNL     1      18.613   0.957  50.797  1.00  0.00     0.160 HD
ENDROOT
BRANCH   1  23
HETATM   23  O2  UNL     1      28.413  -0.053  53.549  1.00  0.00    -0.373 OA
BRANCH  23  24
HETATM   24  C2  UNL     1      29.432   0.596  54.316  1.00  0.00     0.195 C 
BRANCH  24  25
HETATM   25  C1  UNL     1      29.092   2.090  54.311  1.00  0.00     0.190 C 
BRANCH  25  26
HETATM   26  O1  UNL     1      29.138   2.566  53.013  1.00  0.00    -0.399 OA
HETATM   27  H1  UNL     1      28.240   2.783  52.701  1.00  0.00     0.209 HD
ENDBRANCH  25  26
ENDBRANCH  24  25
ENDBRANCH  23  24
ENDBRANCH   1  23
TORSDOF 4
ENDMDL
MODEL 5
REMARK VINA RESULT:      -7.5      4.805      7.906
REMARK  4 active torsions:
REMARK  status: ('A' for Active; 'I' for Inactive)
REMARK    1  A    between atoms: O1_1  and  C1_2 
REMARK    2  A    between atoms: C1_2  and  C2_3 
REMARK    3  A    between atoms: C2_3  and  O2_4 
REMARK    4  A    between atoms: O2_4  and  C3_5 
ROOT
HETATM    1  C3  UNL     1      21.834   3.336  46.725  1.00  0.00     0.118 A 
HETATM    2  C4  UNL     1      21.720   2.515  47.609  1.00  0.00     0.041 A 
HETATM    3  C5  UNL     1      21.628   1.806  48.401  1.00  0.00    -0.046 A 
HETATM    4  C6  UNL     1      21.536   1.027  49.306  1.00  0.00     0.116 A 
HETATM    5  C7  UNL     1      22.092   2.460  49.271  1.00  0.00     0.071 A 
HETATM    6  C8  UNL     1      22.291   3.601  48.215  1.00  0.00     0.042 A 
HETATM    7  C9  UNL     1      22.954   4.822  48.903  1.00  0.00     0.183 C 
HETATM    8  O3  UNL     1      23.808   4.378  49.870  1.00  0.00    -0.379 OA
HETATM    9  C10 UNL     1      24.872   3.605  49.330  1.00  0.00     0.261 C 
HETATM   10  C11 UNL     1      25.708   3.087  50.350  1.00  0.00    -0.080 C 
HETATM   11  C12 UNL     1      26.353   2.670  51.166  1.00  0.00    -0.098 C 
HETATM   12  C13 UNL     1      27.134   2.138  52.189  1.00  0.00     0.089 C 
HETATM   13  C14 UNL     1      26.939   1.183  53.090  1.00  0.00     0.034 C 
HETATM   14  C15 UNL     1      26.430   0.081  53.959  1.00  0.00    -0.022 C 
HETATM   15  C16 UNL     1      25.442  -0.790  54.298  1.00  0.00    -0.011 C 
HETATM   16  C17 UNL     1      24.256  -0.668  53.457  1.00  0.00     0.147 C 
HETATM   17  N1  UNL     1      23.125  -0.296  54.295  1.00  0.00    -0.381 N 
HETATM   18  C18 UNL     1      21.952  -0.059  53.480  1.00  0.00     0.204 C 
HETATM   19  N2  UNL     1      21.932   0.067  52.198  1.00  0.00    -0.238 NA
HETATM   20  C19 UNL     1      20.753   0.303  51.445  1.00  0.00     0.229 C 
HETATM   21  N3  UNL     1      21.676   0.594  50.609  1.00  0.00    -0.264 NA
HETATM   22  H17 UNL     1      22.982  -0.169  55.317  1.00  0.00     0.160 HD
ENDROOT
BRANCH   1  23
HETATM   23  O2  UNL     1      22.223   4.585  46.292  1.00  0.00    -0.373 OA
BRANCH  23  24
HETATM   24  C2  UNL     1      21.920   4.889  44.927  1.00  0.00     0.195 C 
BRANCH  24  25
HETATM   25  C1  UNL     1      20.759   3.974  44.527  1.00  0.00     0.190 C 
BRANCH  25  26
HETATM   26  O1  UNL     1      20.840   3.693  43.175  1.00  0.00    -0.399 OA
HETATM   27  H1  UNL     1      20.208   4.243  42.677  1.00  0.00     0.209 HD
ENDBRANCH  25  26
ENDBRANCH  24  25
ENDBRANCH  23  24
ENDBRANCH   1  23
TORSDOF 4
ENDMDL
MODEL 6
REMARK VINA RESULT:      -7.3      2.880      3.779
REMARK  4 active torsions:
REMARK  status: ('A' for Active; 'I' for Inactive)
REMARK    1  A    between atoms: O1_1  and  C1_2 
REMARK    2  A    between atoms: C1_2  and  C2_3 
REMARK    3  A    between atoms: C2_3  and  O2_4 
REMARK    4  A    between atoms: O2_4  and  C3_5 
ROOT
HETATM    1  C3  UNL     1      27.200   1.219  52.651  1.00  0.00     0.118 A 
HETATM    2  C4  UNL     1      26.927   1.987  51.754  1.00  0.00     0.041 A 
HETATM    3  C5  UNL     1      26.668   2.667  50.974  1.00  0.00    -0.046 A 
HETATM    4  C6  UNL     1      26.353   3.432  50.108  1.00  0.00     0.116 A 
HETATM    5  C7  UNL     1      25.574   2.937  51.338  1.00  0.00     0.071 A 
HETATM    6  C8  UNL     1      25.811   1.966  52.545  1.00  0.00     0.042 A 
HETATM    7  C9  UNL     1      24.537   1.931  53.428  1.00  0.00     0.183 C 
HETATM    8  O3  UNL     1      23.438   2.070  52.630  1.00  0.00    -0.379 OA
HETATM    9  C10 UNL     1      23.308   0.995  51.709  1.00  0.00     0.261 C 
HETATM   10  C11 UNL     1      22.208   1.190  50.836  1.00  0.00    -0.080 C 
HETATM   11  C12 UNL     1      21.346   1.362  50.142  1.00  0.00    -0.098 C 
HETATM   12  C13 UNL     1      20.285   1.597  49.270  1.00  0.00     0.089 C 
HETATM   13  C14 UNL     1      20.096   2.442  48.264  1.00  0.00     0.034 C 
HETATM   14  C15 UNL     1      20.184   3.488  47.203  1.00  0.00    -0.022 C 
HETATM   15  C16 UNL     1      20.886   4.467  46.570  1.00  0.00    -0.011 C 
HETATM   16  C17 UNL     1      22.220   4.668  47.125  1.00  0.00     0.147 C 
HETATM   17  N1  UNL     1      22.316   6.028  47.633  1.00  0.00    -0.381 N 
HETATM   18  C18 UNL     1      23.589   6.232  48.291  1.00  0.00     0.204 C 
HETATM   19  N2  UNL     1      24.426   5.311  48.624  1.00  0.00    -0.238 NA
HETATM   20  C19 UNL     1      25.662   5.562  49.272  1.00  0.00     0.229 C 
HETATM   21  N3  UNL     1      25.511   4.305  49.449  1.00  0.00    -0.264 NA
HETATM   22  H17 UNL     1      21.689   6.858  47.625  1.00  0.00     0.160 HD
ENDROOT
BRANCH   1  23
HETATM   23  O2  UNL     1      26.856   0.561  53.812  1.00  0.00    -0.373 OA
BRANCH  23  24
HETATM   24  C2  UNL     1      27.952   0.132  54.628  1.00  0.00     0.195 C 
BRANCH  24  25
HETATM   25  C1  UNL     1      28.977  -0.496  53.680  1.00  0.00     0.190 C 
BRANCH  25  26
HETATM   26  O1  UNL     1      28.751  -1.858  53.597  1.00  0.00    -0.399 OA
HETATM   27  H1  UNL     1      27.890  -2.032  53.175  1.00  0.00     0.209 HD
ENDBRANCH  25  26
ENDBRANCH  24  25
ENDBRANCH  23  24
ENDBRANCH   1  23
TORSDOF 4
ENDMDL
MODEL 7
REMARK VINA RESULT:      -7.2      3.722      8.279
REMARK  4 active torsions:
REMARK  status: ('A' for Active; 'I' for Inactive)
REMARK    1  A    between atoms: O1_1  and  C1_2 
REMARK    2  A    between atoms: C1_2  and  C2_3 
REMARK    3  A    between atoms: C2_3  and  O2_4 
REMARK    4  A    between atoms: O2_4  and  C3_5 
ROOT
HETATM    1  C3  UNL     1      18.475   1.203  51.646  1.00  0.00     0.118 A 
HETATM    2  C4  UNL     1      19.322   0.525  52.187  1.00  0.00     0.041 A 
HETATM    3  C5  UNL     1      20.078  -0.055  52.668  1.00  0.00    -0.046 A 
HETATM    4  C6  UNL     1      20.941  -0.684  53.211  1.00  0.00     0.116 A 
HETATM    5  C7  UNL     1      20.803   0.830  52.973  1.00  0.00     0.071 A 
HETATM    6  C8  UNL     1      19.780   1.809  52.303  1.00  0.00     0.042 A 
HETATM    7  C9  UNL     1      20.312   3.260  52.420  1.00  0.00     0.183 C 
HETATM    8  O3  UNL     1      21.675   3.243  52.340  1.00  0.00    -0.379 OA
HETATM    9  C10 UNL     1      22.130   2.757  51.084  1.00  0.00     0.261 C 
HETATM   10  C11 UNL     1      23.545   2.672  51.042  1.00  0.00    -0.080 C 
HETATM   11  C12 UNL     1      24.662   2.593  51.026  1.00  0.00    -0.098 C 
HETATM   12  C13 UNL     1      26.050   2.479  51.025  1.00  0.00     0.089 C 
HETATM   13  C14 UNL     1      26.902   1.653  51.618  1.00  0.00     0.034 C 
HETATM   14  C15 UNL     1      27.591   0.588  52.406  1.00  0.00    -0.022 C 
HETATM   15  C16 UNL     1      27.531  -0.482  53.244  1.00  0.00    -0.011 C 
HETATM   16  C17 UNL     1      26.167  -0.849  53.609  1.00  0.00     0.147 C 
HETATM   17  N1  UNL     1      26.017  -0.718  55.052  1.00  0.00    -0.381 N 
HETATM   18  C18 UNL     1      24.646  -0.969  55.440  1.00  0.00     0.204 C 
HETATM   19  N2  UNL     1      23.634  -1.044  54.645  1.00  0.00    -0.238 NA
HETATM   20  C19 UNL     1      22.306  -1.288  55.077  1.00  0.00     0.229 C 
HETATM   21  N3  UNL     1      22.132  -0.858  53.886  1.00  0.00    -0.264 NA
HETATM   22  H17 UNL     1      26.661  -0.492  55.836  1.00  0.00     0.160 HD
ENDROOT
BRANCH   1  23
HETATM   23  O2  UNL     1      17.998   2.434  51.251  1.00  0.00    -0.373 OA
BRANCH  23  24
HETATM   24  C2  UNL     1      16.621   2.468  50.861  1.00  0.00     0.195 C 
BRANCH  24  25
HETATM   25  C1  UNL     1      16.366   1.185  50.064  1.00  0.00     0.190 C 
BRANCH  25  26
HETATM   26  O1  UNL     1      15.004   0.948  50.000  1.00  0.00    -0.399 OA
HETATM   27  H1  UNL     1      14.796   0.383  49.233  1.00  0.00     0.209 HD
ENDBRANCH  25  26
ENDBRANCH  24  25
ENDBRANCH  23  24
ENDBRANCH   1  23
TORSDOF 4
ENDMDL
MODEL 8
REMARK VINA RESULT:      -7.2      2.277      2.954
REMARK  4 active torsions:
REMARK  status: ('A' for Active; 'I' for Inactive)
REMARK    1  A    between atoms: O1_1  and  C1_2 
REMARK    2  A    between atoms: C1_2  and  C2_3 
REMARK    3  A    between atoms: C2_3  and  O2_4 
REMARK    4  A    between atoms: O2_4  and  C3_5 
ROOT
HETATM    1  C3  UNL     1      27.170   1.925  51.837  1.00  0.00     0.118 A 
HETATM    2  C4  UNL     1      26.415   2.480  51.067  1.00  0.00     0.041 A 
HETATM    3  C5  UNL     1      25.737   2.969  50.405  1.00  0.00    -0.046 A 
HETATM    4  C6  UNL     1      24.956   3.517  49.679  1.00  0.00     0.116 A 
HETATM    5  C7  UNL     1      24.813   3.057  51.140  1.00  0.00     0.071 A 
HETATM    6  C8  UNL     1      25.695   2.344  52.223  1.00  0.00     0.042 A 
HETATM    7  C9  UNL     1      24.868   2.177  53.523  1.00  0.00     0.183 C 
HETATM    8  O3  UNL     1      23.560   1.966  53.195  1.00  0.00    -0.379 OA
HETATM    9  C10 UNL     1      23.381   0.764  52.458  1.00  0.00     0.261 C 
HETATM   10  C11 UNL     1      22.031   0.596  52.058  1.00  0.00    -0.080 C 
HETATM   11  C12 UNL     1      20.966   0.482  51.733  1.00  0.00    -0.098 C 
HETATM   12  C13 UNL     1      19.642   0.361  51.317  1.00  0.00     0.089 C 
HETATM   13  C14 UNL     1      18.906   0.990  50.410  1.00  0.00     0.034 C 
HETATM   14  C15 UNL     1      18.350   1.864  49.335  1.00  0.00    -0.022 C 
HETATM   15  C16 UNL     1      18.516   2.864  48.426  1.00  0.00    -0.011 C 
HETATM   16  C17 UNL     1      19.866   3.416  48.421  1.00  0.00     0.147 C 
HETATM   17  N1  UNL     1      19.796   4.826  48.773  1.00  0.00    -0.381 N 
HETATM   18  C18 UNL     1      21.127   5.384  48.885  1.00  0.00     0.204 C 
HETATM   19  N2  UNL     1      22.228   4.715  48.930  1.00  0.00    -0.238 NA
HETATM   20  C19 UNL     1      23.511   5.311  49.044  1.00  0.00     0.229 C 
HETATM   21  N3  UNL     1      23.748   4.089  49.339  1.00  0.00    -0.264 NA
HETATM   22  H17 UNL     1      19.023   5.498  48.955  1.00  0.00     0.160 HD
ENDROOT
BRANCH   1  23
HETATM   23  O2  UNL     1      27.434   1.389  53.078  1.00  0.00    -0.373 OA
BRANCH  23  24
HETATM   24  C2  UNL     1      28.815   1.357  53.457  1.00  0.00     0.195 C 
BRANCH  24  25
HETATM   25  C1  UNL     1      29.015   0.060  54.247  1.00  0.00     0.190 C 
BRANCH  25  26
HETATM   26  O1  UNL     1      27.870  -0.218  54.972  1.00  0.00    -0.399 OA
HETATM   27  H1  UNL     1      27.587   0.570  55.471  1.00  0.00     0.209 HD
ENDBRANCH  25  26
ENDBRANCH  24  25
ENDBRANCH  23  24
ENDBRANCH   1  23
TORSDOF 4
ENDMDL
MODEL 9
REMARK VINA RESULT:      -6.8      9.076     12.737
REMARK  4 active torsions:
REMARK  status: ('A' for Active; 'I' for Inactive)
REMARK    1  A    between atoms: O1_1  and  C1_2 
REMARK    2  A    between atoms: C1_2  and  C2_3 
REMARK    3  A    between atoms: C2_3  and  O2_4 
REMARK    4  A    between atoms: O2_4  and  C3_5 
ROOT
HETATM    1  C3  UNL     1      26.548   6.589  48.582  1.00  0.00     0.118 A 
HETATM    2  C4  UNL     1      27.701   6.294  48.351  1.00  0.00     0.041 A 
HETATM    3  C5  UNL     1      28.721   6.053  48.155  1.00  0.00    -0.046 A 
HETATM    4  C6  UNL     1      29.874   5.806  47.944  1.00  0.00     0.116 A 
HETATM    5  C7  UNL     1      29.213   7.051  48.559  1.00  0.00     0.071 A 
HETATM    6  C8  UNL     1      27.766   7.544  48.905  1.00  0.00     0.042 A 
HETATM    7  C9  UNL     1      27.845   8.967  49.514  1.00  0.00     0.183 C 
HETATM    8  O3  UNL     1      28.875   9.646  48.930  1.00  0.00    -0.379 OA
HETATM    9  C10 UNL     1      28.672   9.826  47.535  1.00  0.00     0.261 C 
HETATM   10  C11 UNL     1      29.783  10.464  46.926  1.00  0.00    -0.080 C 
HETATM   11  C12 UNL     1      30.672  10.954  46.454  1.00  0.00    -0.098 C 
HETATM   12  C13 UNL     1      31.793  11.543  45.874  1.00  0.00     0.089 C 
HETATM   13  C14 UNL     1      33.020  11.114  45.608  1.00  0.00     0.034 C 
HETATM   14  C15 UNL     1      34.293  10.354  45.438  1.00  0.00    -0.022 C 
HETATM   15  C16 UNL     1      35.009   9.206  45.588  1.00  0.00    -0.011 C 
HETATM   16  C17 UNL     1      34.242   8.129  46.205  1.00  0.00     0.147 C 
HETATM   17  N1  UNL     1      34.887   7.754  47.456  1.00  0.00    -0.381 N 
HETATM   18  C18 UNL     1      34.095   6.762  48.152  1.00  0.00     0.204 C 
HETATM   19  N2  UNL     1      32.882   6.428  47.874  1.00  0.00    -0.238 NA
HETATM   20  C19 UNL     1      32.147   5.451  48.592  1.00  0.00     0.229 C 
HETATM   21  N3  UNL     1      31.231   6.057  47.938  1.00  0.00    -0.264 NA
HETATM   22  H17 UNL     1      35.764   8.034  47.940  1.00  0.00     0.160 HD
ENDROOT
BRANCH   1  23
HETATM   23  O2  UNL     1      25.612   7.480  49.062  1.00  0.00    -0.373 OA
BRANCH  23  24
HETATM   24  C2  UNL     1      24.412   6.896  49.582  1.00  0.00     0.195 C 
BRANCH  24  25
HETATM   25  C1  UNL     1      24.070   7.675  50.856  1.00  0.00     0.190 C 
BRANCH  25  26
HETATM   26  O1  UNL     1      24.542   6.982  51.957  1.00  0.00    -0.399 OA
HETATM   27  H1  UNL     1      25.218   7.509  52.423  1.00  0.00     0.209 HD
ENDBRANCH  25  26
ENDBRANCH  24  25
ENDBRANCH  23  24
ENDBRANCH   1  23
TORSDOF 4
ENDMDL
