MODEL 1
REMARK VINA RESULT:      -9.6      0.000      0.000
REMARK  4 active torsions:
REMARK  status: ('A' for Active; 'I' for Inactive)
REMARK    1  A    between atoms: C4_6  and  N3_7 
REMARK    2  A    between atoms: C10_15  and  C11_16 
REMARK    3  A    between atoms: C12_17  and  C13_18 
REMARK    4  A    between atoms: N4_20  and  C15_21 
ROOT
HETATM    1  C13 UNL     1      24.671   3.144  50.941  1.00  0.00     0.099 C 
HETATM    2  C14 UNL     1      25.403   4.169  50.409  1.00  0.00     0.125 C 
HETATM    3  N4  UNL     1      25.333   5.200  49.344  1.00  0.00    -0.377 N 
HETATM    4  C17 UNL     1      24.065   5.631  48.425  1.00  0.00     0.216 C 
HETATM    5  C18 UNL     1      23.296   4.639  48.957  1.00  0.00    -0.085 C 
HETATM    6  C19 UNL     1      22.778   3.943  49.340  1.00  0.00    -0.077 C 
HETATM    7  C20 UNL     1      22.057   2.934  49.907  1.00  0.00     0.196 C 
HETATM    8  C21 UNL     1      21.717   1.742  49.114  1.00  0.00     0.429 C 
HETATM    9  O1  UNL     1      21.381   0.799  48.432  1.00  0.00    -0.427 OA
HETATM   10  N5  UNL     1      23.368   2.449  50.772  1.00  0.00    -0.364 N 
HETATM   11  H19 UNL     1      23.446   1.603  51.289  1.00  0.00     0.161 HD
ENDROOT
BRANCH   1  12
HETATM   12  C12 UNL     1      25.410   2.539  52.024  1.00  0.00    -0.046 C 
HETATM   13  C11 UNL     1      26.015   2.018  52.918  1.00  0.00    -0.081 C 
BRANCH  13  14
HETATM   14  C10 UNL     1      26.760   1.352  54.017  1.00  0.00     0.186 A 
HETATM   15  C2  UNL     1      28.224   1.316  53.669  1.00  0.00     0.049 A 
HETATM   16  C1  UNL     1      28.833   2.511  53.615  1.00  0.00     0.042 C 
HETATM   17  N1  UNL     1      29.032   0.176  53.394  1.00  0.00    -0.246 NA
HETATM   18  C3  UNL     1      28.402  -0.971  53.473  1.00  0.00     0.235 A 
HETATM   19  N2  UNL     1      27.025  -1.120  53.801  1.00  0.00    -0.226 NA
HETATM   20  C4  UNL     1      26.309  -0.063  54.045  1.00  0.00     0.133 A 
BRANCH  20  21
HETATM   21  N3  UNL     1      24.982  -0.498  54.344  1.00  0.00    -0.318 N 
HETATM   22  C5  UNL     1      24.412  -1.093  55.500  1.00  0.00     0.097 A 
HETATM   23  C6  UNL     1      23.148  -1.393  55.509  1.00  0.00     0.033 A 
HETATM   24  C7  UNL     1      22.182  -1.184  54.412  1.00  0.00     0.240 A 
HETATM   25  F1  UNL     1      21.579  -2.378  54.047  1.00  0.00    -0.239 F 
HETATM   26  C8  UNL     1      22.850  -0.562  53.244  1.00  0.00     0.065 A 
HETATM   27 CL1  UNL     1      21.712  -0.314  51.948  1.00  0.00    -0.084 Cl
HETATM   28  C9  UNL     1      24.154  -0.242  53.212  1.00  0.00     0.120 A 
ENDBRANCH  20  21
ENDBRANCH  13  14
ENDBRANCH   1  12
BRANCH   3  29
HETATM   29  C15 UNL     1      26.551   5.849  49.166  1.00  0.00     0.119 C 
HETATM   30  C16 UNL     1      27.612   4.936  48.580  1.00  0.00     0.026 C 
ENDBRANCH   3  29
TORSDOF 4
ENDMDL
MODEL 2
REMARK VINA RESULT:      -9.4      2.840      4.447
REMARK  4 active torsions:
REMARK  status: ('A' for Active; 'I' for Inactive)
REMARK    1  A    between atoms: C4_6  and  N3_7 
REMARK    2  A    between atoms: C10_15  and  C11_16 
REMARK    3  A    between atoms: C12_17  and  C13_18 
REMARK    4  A    between atoms: N4_20  and  C15_21 
ROOT
HETATM    1  C13 UNL     1      23.858   3.005  51.576  1.00  0.00     0.099 C 
HETATM    2  C14 UNL     1      25.036   3.238  50.923  1.00  0.00     0.125 C 
HETATM    3  N4  UNL     1      25.727   4.290  50.135  1.00  0.00    -0.377 N 
HETATM    4  C17 UNL     1      25.296   5.839  49.909  1.00  0.00     0.216 C 
HETATM    5  C18 UNL     1      24.126   5.651  50.581  1.00  0.00    -0.085 C 
HETATM    6  C19 UNL     1      23.317   5.498  51.052  1.00  0.00    -0.077 C 
HETATM    7  C20 UNL     1      22.162   5.251  51.733  1.00  0.00     0.196 C 
HETATM    8  C21 UNL     1      20.881   5.206  51.011  1.00  0.00     0.429 C 
HETATM    9  O1  UNL     1      19.824   5.244  50.418  1.00  0.00    -0.427 OA
HETATM   10  N5  UNL     1      22.562   3.664  51.887  1.00  0.00    -0.364 N 
HETATM   11  H19 UNL     1      21.962   2.938  52.205  1.00  0.00     0.161 HD
ENDROOT
BRANCH   1  12
HETATM   12  C12 UNL     1      23.883   1.681  52.152  1.00  0.00    -0.046 C 
HETATM   13  C11 UNL     1      23.892   0.575  52.613  1.00  0.00    -0.081 C 
BRANCH  13  14
HETATM   14  C10 UNL     1      23.894  -0.805  53.166  1.00  0.00     0.186 A 
HETATM   15  C2  UNL     1      22.672  -0.993  54.025  1.00  0.00     0.049 A 
HETATM   16  C1  UNL     1      21.499  -0.964  53.374  1.00  0.00     0.042 C 
HETATM   17  N1  UNL     1      22.614  -1.196  55.434  1.00  0.00    -0.246 NA
HETATM   18  C3  UNL     1      23.782  -1.233  56.028  1.00  0.00     0.235 A 
HETATM   19  N2  UNL     1      25.033  -1.085  55.368  1.00  0.00    -0.226 NA
HETATM   20  C4  UNL     1      25.059  -0.898  54.082  1.00  0.00     0.133 A 
BRANCH  20  21
HETATM   21  N3  UNL     1      26.427  -0.786  53.686  1.00  0.00    -0.318 N 
HETATM   22  C5  UNL     1      27.326  -1.711  53.093  1.00  0.00     0.097 A 
HETATM   23  C6  UNL     1      28.543  -1.341  52.828  1.00  0.00     0.033 A 
HETATM   24  C7  UNL     1      29.139  -0.013  53.081  1.00  0.00     0.240 A 
HETATM   25  F1  UNL     1      30.264  -0.119  53.884  1.00  0.00    -0.239 F 
HETATM   26  C8  UNL     1      28.142   0.892  53.700  1.00  0.00     0.065 A 
HETATM   27 CL1  UNL     1      28.843   2.460  53.999  1.00  0.00    -0.084 Cl
HETATM   28  C9  UNL     1      26.879   0.533  53.982  1.00  0.00     0.120 A 
ENDBRANCH  20  21
ENDBRANCH  13  14
ENDBRANCH   1  12
BRANCH   3  29
HETATM   29  C15 UNL     1      26.893   3.816  49.544  1.00  0.00     0.119 C 
HETATM   30  C16 UNL     1      27.560   4.858  48.665  1.00  0.00     0.026 C 
ENDBRANCH   3  29
TORSDOF 4
ENDMDL
MODEL 3
REMARK VINA RESULT:      -9.3      2.016      3.266
REMARK  4 active torsions:
REMARK  status: ('A' for Active; 'I' for Inactive)
REMARK    1  A    between atoms: C4_6  and  N3_7 
REMARK    2  A    between atoms: C10_15  and  C11_16 
REMARK    3  A    between atoms: C12_17  and  C13_18 
REMARK    4  A    between atoms: N4_20  and  C15_21 
ROOT
HETATM    1  C13 UNL     1      24.449   3.645  51.699  1.00  0.00     0.099 C 
HETATM    2  C14 UNL     1      23.115   3.444  51.921  1.00  0.00     0.125 C 
HETATM    3  N4  UNL     1      21.787   3.925  51.466  1.00  0.00    -0.377 N 
HETATM    4  C17 UNL     1      21.430   4.889  50.209  1.00  0.00     0.216 C 
HETATM    5  C18 UNL     1      22.751   5.087  49.939  1.00  0.00    -0.085 C 
HETATM    6  C19 UNL     1      23.676   5.212  49.768  1.00  0.00    -0.077 C 
HETATM    7  C20 UNL     1      25.011   5.375  49.545  1.00  0.00     0.196 C 
HETATM    8  C21 UNL     1      25.650   6.667  49.839  1.00  0.00     0.429 C 
HETATM    9  O1  UNL     1      26.152   7.756  50.017  1.00  0.00    -0.427 OA
HETATM   10  N5  UNL     1      25.368   4.468  50.869  1.00  0.00    -0.364 N 
HETATM   11  H19 UNL     1      26.266   4.371  51.285  1.00  0.00     0.161 HD
ENDROOT
BRANCH   1  12
HETATM   12  C12 UNL     1      25.215   2.770  52.554  1.00  0.00    -0.046 C 
HETATM   13  C11 UNL     1      25.836   2.044  53.278  1.00  0.00    -0.081 C 
BRANCH  13  14
HETATM   14  C10 UNL     1      26.587   1.142  54.190  1.00  0.00     0.186 A 
HETATM   15  C2  UNL     1      28.020   1.064  53.735  1.00  0.00     0.049 A 
HETATM   16  C1  UNL     1      28.722   2.203  53.842  1.00  0.00     0.042 C 
HETATM   17  N1  UNL     1      28.713  -0.064  53.210  1.00  0.00    -0.246 NA
HETATM   18  C3  UNL     1      27.995  -1.159  53.136  1.00  0.00     0.235 A 
HETATM   19  N2  UNL     1      26.633  -1.264  53.534  1.00  0.00    -0.226 NA
HETATM   20  C4  UNL     1      26.023  -0.219  54.007  1.00  0.00     0.133 A 
BRANCH  20  21
HETATM   21  N3  UNL     1      24.684  -0.604  54.324  1.00  0.00    -0.318 N 
HETATM   22  C5  UNL     1      24.117  -1.228  55.466  1.00  0.00     0.097 A 
HETATM   23  C6  UNL     1      22.840  -1.467  55.496  1.00  0.00     0.033 A 
HETATM   24  C7  UNL     1      21.856  -1.158  54.439  1.00  0.00     0.240 A 
HETATM   25  F1  UNL     1      21.186  -2.302  54.035  1.00  0.00    -0.239 F 
HETATM   26  C8  UNL     1      22.523  -0.511  53.284  1.00  0.00     0.065 A 
HETATM   27 CL1  UNL     1      21.364  -0.145  52.035  1.00  0.00    -0.084 Cl
HETATM   28  C9  UNL     1      23.840  -0.253  53.230  1.00  0.00     0.120 A 
ENDBRANCH  20  21
ENDBRANCH  13  14
ENDBRANCH   1  12
BRANCH   3  29
HETATM   29  C15 UNL     1      20.756   3.443  52.266  1.00  0.00     0.119 C 
HETATM   30  C16 UNL     1      19.402   3.544  51.588  1.00  0.00     0.026 C 
ENDBRANCH   3  29
TORSDOF 4
ENDMDL
MODEL 4
REMARK VINA RESULT:      -9.2      2.716      6.939
REMARK  4 active torsions:
REMARK  status: ('A' for Active; 'I' for Inactive)
REMARK    1  A    between atoms: C4_6  and  N3_7 
REMARK    2  A    between atoms: C10_15  and  C11_16 
REMARK    3  A    between atoms: C12_17  and  C13_18 
REMARK    4  A    between atoms: N4_20  and  C15_21 
ROOT
HETATM    1  C13 UNL     1      25.942   1.225  52.490  1.00  0.00     0.099 C 
HETATM    2  C14 UNL     1      24.785   0.611  52.882  1.00  0.00     0.125 C 
HETATM    3  N4  UNL     1      24.271  -0.326  53.912  1.00  0.00    -0.377 N 
HETATM    4  C17 UNL     1      25.015  -0.881  55.245  1.00  0.00     0.216 C 
HETATM    5  C18 UNL     1      26.176  -0.256  54.901  1.00  0.00    -0.085 C 
HETATM    6  C19 UNL     1      26.975   0.186  54.643  1.00  0.00    -0.077 C 
HETATM    7  C20 UNL     1      28.109   0.832  54.249  1.00  0.00     0.196 C 
HETATM    8  C21 UNL     1      29.263   0.056  53.768  1.00  0.00     0.429 C 
HETATM    9  O1  UNL     1      30.232  -0.594  53.442  1.00  0.00    -0.427 OA
HETATM   10  N5  UNL     1      27.378   1.321  52.860  1.00  0.00    -0.364 N 
HETATM   11  H19 UNL     1      27.829   1.740  52.079  1.00  0.00     0.161 HD
ENDROOT
BRANCH   1  12
HETATM   12  C12 UNL     1      25.678   2.052  51.336  1.00  0.00    -0.046 C 
HETATM   13  C11 UNL     1      25.439   2.731  50.378  1.00  0.00    -0.081 C 
BRANCH  13  14
HETATM   14  C10 UNL     1      25.120   3.569  49.193  1.00  0.00     0.186 A 
HETATM   15  C2  UNL     1      25.933   4.836  49.253  1.00  0.00     0.049 A 
HETATM   16  C1  UNL     1      27.260   4.676  49.122  1.00  0.00     0.042 C 
HETATM   17  N1  UNL     1      25.466   6.169  49.428  1.00  0.00    -0.246 NA
HETATM   18  C3  UNL     1      24.164   6.282  49.536  1.00  0.00     0.235 A 
HETATM   19  N2  UNL     1      23.249   5.193  49.489  1.00  0.00    -0.226 NA
HETATM   20  C4  UNL     1      23.702   3.985  49.331  1.00  0.00     0.133 A 
BRANCH  20  21
HETATM   21  N3  UNL     1      22.581   3.100  49.318  1.00  0.00    -0.318 N 
HETATM   22  C5  UNL     1      22.238   2.007  48.479  1.00  0.00     0.097 A 
HETATM   23  C6  UNL     1      21.135   1.355  48.694  1.00  0.00     0.033 A 
HETATM   24  C7  UNL     1      20.143   1.622  49.754  1.00  0.00     0.240 A 
HETATM   25  F1  UNL     1      18.887   1.853  49.212  1.00  0.00    -0.239 F 
HETATM   26  C8  UNL     1      20.568   2.774  50.585  1.00  0.00     0.065 A 
HETATM   27 CL1  UNL     1      19.399   3.091  51.837  1.00  0.00    -0.084 Cl
HETATM   28  C9  UNL     1      21.704   3.462  50.382  1.00  0.00     0.120 A 
ENDBRANCH  20  21
ENDBRANCH  13  14
ENDBRANCH   1  12
BRANCH   3  29
HETATM   29  C15 UNL     1      22.972  -0.741  53.638  1.00  0.00     0.119 C 
HETATM   30  C16 UNL     1      22.325   0.075  52.534  1.00  0.00     0.026 C 
ENDBRANCH   3  29
TORSDOF 4
ENDMDL
MODEL 5
REMARK VINA RESULT:      -9.1      3.030      5.844
REMARK  4 active torsions:
REMARK  status: ('A' for Active; 'I' for Inactive)
REMARK    1  A    between atoms: C4_6  and  N3_7 
REMARK    2  A    between atoms: C10_15  and  C11_16 
REMARK    3  A    between atoms: C12_17  and  C13_18 
REMARK    4  A    between atoms: N4_20  and  C15_21 
ROOT
HETATM    1  C13 UNL     1      22.037   1.353  52.490  1.00  0.00     0.099 C 
HETATM    2  C14 UNL     1      21.166   1.444  51.440  1.00  0.00     0.125 C 
HETATM    3  N4  UNL     1      19.868   0.900  50.971  1.00  0.00    -0.377 N 
HETATM    4  C17 UNL     1      18.790  -0.003  51.783  1.00  0.00     0.216 C 
HETATM    5  C18 UNL     1      19.619  -0.089  52.861  1.00  0.00    -0.085 C 
HETATM    6  C19 UNL     1      20.211  -0.137  53.601  1.00  0.00    -0.077 C 
HETATM    7  C20 UNL     1      21.081  -0.189  54.649  1.00  0.00     0.196 C 
HETATM    8  C21 UNL     1      21.774  -1.448  54.963  1.00  0.00     0.429 C 
HETATM    9  O1  UNL     1      22.284  -2.507  55.258  1.00  0.00    -0.427 OA
HETATM   10  N5  UNL     1      22.203   0.654  53.792  1.00  0.00    -0.364 N 
HETATM   11  H19 UNL     1      23.155   0.787  54.048  1.00  0.00     0.161 HD
ENDROOT
BRANCH   1  12
HETATM   12  C12 UNL     1      23.164   2.224  52.256  1.00  0.00    -0.046 C 
HETATM   13  C11 UNL     1      24.100   2.941  52.040  1.00  0.00    -0.081 C 
BRANCH  13  14
HETATM   14  C10 UNL     1      25.257   3.827  51.751  1.00  0.00     0.186 A 
HETATM   15  C2  UNL     1      24.960   4.638  50.517  1.00  0.00     0.049 A 
HETATM   16  C1  UNL     1      23.961   5.527  50.638  1.00  0.00     0.042 C 
HETATM   17  N1  UNL     1      25.606   4.574  49.249  1.00  0.00    -0.246 NA
HETATM   18  C3  UNL     1      26.585   3.705  49.179  1.00  0.00     0.235 A 
HETATM   19  N2  UNL     1      27.005   2.868  50.251  1.00  0.00    -0.226 NA
HETATM   20  C4  UNL     1      26.396   2.944  51.397  1.00  0.00     0.133 A 
BRANCH  20  21
HETATM   21  N3  UNL     1      27.015   2.007  52.280  1.00  0.00    -0.318 N 
HETATM   22  C5  UNL     1      27.877   2.174  53.395  1.00  0.00     0.097 A 
HETATM   23  C6  UNL     1      28.302   1.129  54.038  1.00  0.00     0.033 A 
HETATM   24  C7  UNL     1      27.988  -0.283  53.739  1.00  0.00     0.240 A 
HETATM   25  F1  UNL     1      29.146  -1.014  53.522  1.00  0.00    -0.239 F 
HETATM   26  C8  UNL     1      27.087  -0.375  52.566  1.00  0.00     0.065 A 
HETATM   27 CL1  UNL     1      26.714  -2.040  52.210  1.00  0.00    -0.084 Cl
HETATM   28  C9  UNL     1      26.634   0.690  51.885  1.00  0.00     0.120 A 
ENDBRANCH  20  21
ENDBRANCH  13  14
ENDBRANCH   1  12
BRANCH   3  29
HETATM   29  C15 UNL     1      19.600   1.254  49.652  1.00  0.00     0.119 C 
HETATM   30  C16 UNL     1      20.865   1.477  48.845  1.00  0.00     0.026 C 
ENDBRANCH   3  29
TORSDOF 4
ENDMDL
MODEL 6
REMARK VINA RESULT:      -9.0      3.532      5.704
REMARK  4 active torsions:
REMARK  status: ('A' for Active; 'I' for Inactive)
REMARK    1  A    between atoms: C4_6  and  N3_7 
REMARK    2  A    between atoms: C10_15  and  C11_16 
REMARK    3  A    between atoms: C12_17  and  C13_18 
REMARK    4  A    between atoms: N4_20  and  C15_21 
ROOT
HETATM    1  C13 UNL     1      26.416   5.212  49.532  1.00  0.00     0.099 C 
HETATM    2  C14 UNL     1      25.622   6.289  49.812  1.00  0.00     0.125 C 
HETATM    3  N4  UNL     1      25.595   7.767  49.669  1.00  0.00    -0.377 N 
HETATM    4  C17 UNL     1      26.597   8.726  48.827  1.00  0.00     0.216 C 
HETATM    5  C18 UNL     1      27.395   7.670  48.502  1.00  0.00    -0.085 C 
HETATM    6  C19 UNL     1      27.937   6.921  48.288  1.00  0.00    -0.077 C 
HETATM    7  C20 UNL     1      28.697   5.829  47.995  1.00  0.00     0.196 C 
HETATM    8  C21 UNL     1      30.020   5.668  48.620  1.00  0.00     0.429 C 
HETATM    9  O1  UNL     1      31.136   5.583  49.083  1.00  0.00    -0.427 OA
HETATM   10  N5  UNL     1      27.727   4.875  48.919  1.00  0.00    -0.364 N 
HETATM   11  H19 UNL     1      27.918   3.937  49.191  1.00  0.00     0.161 HD
ENDROOT
BRANCH   1  12
HETATM   12  C12 UNL     1      25.763   4.006  49.982  1.00  0.00    -0.046 C 
HETATM   13  C11 UNL     1      25.239   2.993  50.351  1.00  0.00    -0.081 C 
BRANCH  13  14
HETATM   14  C10 UNL     1      24.608   1.726  50.805  1.00  0.00     0.186 A 
HETATM   15  C2  UNL     1      23.111   1.872  50.746  1.00  0.00     0.049 A 
HETATM   16  C1  UNL     1      22.593   2.005  49.515  1.00  0.00     0.042 C 
HETATM   17  N1  UNL     1      22.188   1.885  51.830  1.00  0.00    -0.246 NA
HETATM   18  C3  UNL     1      22.733   1.737  53.013  1.00  0.00     0.235 A 
HETATM   19  N2  UNL     1      24.127   1.575  53.249  1.00  0.00    -0.226 NA
HETATM   20  C4  UNL     1      24.949   1.569  52.242  1.00  0.00     0.133 A 
BRANCH  20  21
HETATM   21  N3  UNL     1      26.268   1.390  52.760  1.00  0.00    -0.318 N 
HETATM   22  C5  UNL     1      27.206   2.301  53.313  1.00  0.00     0.097 A 
HETATM   23  C6  UNL     1      28.360   1.863  53.719  1.00  0.00     0.033 A 
HETATM   24  C7  UNL     1      28.844   0.469  53.674  1.00  0.00     0.240 A 
HETATM   25  F1  UNL     1      30.029   0.376  52.960  1.00  0.00    -0.239 F 
HETATM   26  C8  UNL     1      27.812  -0.418  53.085  1.00  0.00     0.065 A 
HETATM   27 CL1  UNL     1      28.380  -2.065  53.030  1.00  0.00    -0.084 Cl
HETATM   28  C9  UNL     1      26.613   0.010  52.659  1.00  0.00     0.120 A 
ENDBRANCH  20  21
ENDBRANCH  13  14
ENDBRANCH   1  12
BRANCH   3  29
HETATM   29  C15 UNL     1      24.541   8.339  50.374  1.00  0.00     0.119 C 
HETATM   30  C16 UNL     1      23.392   7.370  50.585  1.00  0.00     0.026 C 
ENDBRANCH   3  29
TORSDOF 4
ENDMDL
MODEL 7
REMARK VINA RESULT:      -8.6      3.043      5.912
REMARK  4 active torsions:
REMARK  status: ('A' for Active; 'I' for Inactive)
REMARK    1  A    between atoms: C4_6  and  N3_7 
REMARK    2  A    between atoms: C10_15  and  C11_16 
REMARK    3  A    between atoms: C12_17  and  C13_18 
REMARK    4  A    between atoms: N4_20  and  C15_21 
ROOT
HETATM    1  C13 UNL     1      21.436   1.892  51.518  1.00  0.00     0.099 C 
HETATM    2  C14 UNL     1      21.349   1.144  52.659  1.00  0.00     0.125 C 
HETATM    3  N4  UNL     1      20.442   0.186  53.341  1.00  0.00    -0.377 N 
HETATM    4  C17 UNL     1      19.112  -0.543  52.763  1.00  0.00     0.216 C 
HETATM    5  C18 UNL     1      19.186   0.162  51.599  1.00  0.00    -0.085 C 
HETATM    6  C19 UNL     1      19.255   0.664  50.797  1.00  0.00    -0.077 C 
HETATM    7  C20 UNL     1      19.379   1.398  49.655  1.00  0.00     0.196 C 
HETATM    8  C21 UNL     1      18.423   2.480  49.372  1.00  0.00     0.429 C 
HETATM    9  O1  UNL     1      17.588   3.320  49.115  1.00  0.00    -0.427 OA
HETATM   10  N5  UNL     1      20.676   2.195  50.277  1.00  0.00    -0.364 N 
HETATM   11  H19 UNL     1      21.106   3.003  49.889  1.00  0.00     0.161 HD
ENDROOT
BRANCH   1  12
HETATM   12  C12 UNL     1      22.677   2.630  51.523  1.00  0.00    -0.046 C 
HETATM   13  C11 UNL     1      23.714   3.231  51.510  1.00  0.00    -0.081 C 
BRANCH  13  14
HETATM   14  C10 UNL     1      25.004   3.967  51.473  1.00  0.00     0.186 A 
HETATM   15  C2  UNL     1      24.988   4.935  50.320  1.00  0.00     0.049 A 
HETATM   16  C1  UNL     1      24.105   5.941  50.424  1.00  0.00     0.042 C 
HETATM   17  N1  UNL     1      25.789   4.910  49.143  1.00  0.00    -0.246 NA
HETATM   18  C3  UNL     1      26.647   3.920  49.089  1.00  0.00     0.235 A 
HETATM   19  N2  UNL     1      26.804   2.926  50.094  1.00  0.00    -0.226 NA
HETATM   20  C4  UNL     1      26.058   2.970  51.158  1.00  0.00     0.133 A 
BRANCH  20  21
HETATM   21  N3  UNL     1      26.423   1.868  51.990  1.00  0.00    -0.318 N 
HETATM   22  C5  UNL     1      25.861   0.576  52.161  1.00  0.00     0.097 A 
HETATM   23  C6  UNL     1      26.405  -0.253  53.001  1.00  0.00     0.033 A 
HETATM   24  C7  UNL     1      27.593  -0.007  53.843  1.00  0.00     0.240 A 
HETATM   25  F1  UNL     1      27.297  -0.189  55.186  1.00  0.00    -0.239 F 
HETATM   26  C8  UNL     1      28.120   1.359  53.610  1.00  0.00     0.065 A 
HETATM   27 CL1  UNL     1      29.522   1.653  54.602  1.00  0.00    -0.084 Cl
HETATM   28  C9  UNL     1      27.576   2.232  52.747  1.00  0.00     0.120 A 
ENDBRANCH  20  21
ENDBRANCH  13  14
ENDBRANCH   1  12
BRANCH   3  29
HETATM   29  C15 UNL     1      20.850  -0.080  54.644  1.00  0.00     0.119 C 
HETATM   30  C16 UNL     1      21.725  -1.316  54.736  1.00  0.00     0.026 C 
ENDBRANCH   3  29
TORSDOF 4
ENDMDL
MODEL 8
REMARK VINA RESULT:      -8.5      3.240      7.245
REMARK  4 active torsions:
REMARK  status: ('A' for Active; 'I' for Inactive)
REMARK    1  A    between atoms: C4_6  and  N3_7 
REMARK    2  A    between atoms: C10_15  and  C11_16 
REMARK    3  A    between atoms: C12_17  and  C13_18 
REMARK    4  A    between atoms: N4_20  and  C15_21 
ROOT
HETATM    1  C13 UNL     1      23.868   1.150  51.959  1.00  0.00     0.099 C 
HETATM    2  C14 UNL     1      22.534   0.888  52.101  1.00  0.00     0.125 C 
HETATM    3  N4  UNL     1      21.608   0.005  52.854  1.00  0.00    -0.377 N 
HETATM    4  C17 UNL     1      21.933  -0.983  54.101  1.00  0.00     0.216 C 
HETATM    5  C18 UNL     1      23.266  -0.721  54.009  1.00  0.00    -0.085 C 
HETATM    6  C19 UNL     1      24.191  -0.525  53.927  1.00  0.00    -0.077 C 
HETATM    7  C20 UNL     1      25.514  -0.226  53.788  1.00  0.00     0.196 C 
HETATM    8  C21 UNL     1      26.442  -1.239  53.262  1.00  0.00     0.429 C 
HETATM    9  O1  UNL     1      27.209  -2.103  52.896  1.00  0.00    -0.427 OA
HETATM   10  N5  UNL     1      25.190   0.707  52.473  1.00  0.00    -0.364 N 
HETATM   11  H19 UNL     1      25.863   1.085  51.846  1.00  0.00     0.161 HD
ENDROOT
BRANCH   1  12
HETATM   12  C12 UNL     1      24.049   2.204  50.990  1.00  0.00    -0.046 C 
HETATM   13  C11 UNL     1      24.179   3.086  50.189  1.00  0.00    -0.081 C 
BRANCH  13  14
HETATM   14  C10 UNL     1      24.321   4.189  49.203  1.00  0.00     0.186 A 
HETATM   15  C2  UNL     1      25.602   4.932  49.475  1.00  0.00     0.049 A 
HETATM   16  C1  UNL     1      26.729   4.233  49.264  1.00  0.00     0.042 C 
HETATM   17  N1  UNL     1      25.759   6.274  49.924  1.00  0.00    -0.246 NA
HETATM   18  C3  UNL     1      24.634   6.924  50.103  1.00  0.00     0.235 A 
HETATM   19  N2  UNL     1      23.338   6.379  49.882  1.00  0.00    -0.226 NA
HETATM   20  C4  UNL     1      23.223   5.151  49.474  1.00  0.00     0.133 A 
BRANCH  20  21
HETATM   21  N3  UNL     1      21.829   4.869  49.334  1.00  0.00    -0.318 N 
HETATM   22  C5  UNL     1      20.764   4.841  50.272  1.00  0.00     0.097 A 
HETATM   23  C6  UNL     1      19.563   4.551  49.868  1.00  0.00     0.033 A 
HETATM   24  C7  UNL     1      19.147   4.231  48.488  1.00  0.00     0.240 A 
HETATM   25  F1  UNL     1      18.535   2.987  48.430  1.00  0.00    -0.239 F 
HETATM   26  C8  UNL     1      20.311   4.280  47.571  1.00  0.00     0.065 A 
HETATM   27 CL1  UNL     1      19.823   3.902  45.941  1.00  0.00    -0.084 Cl
HETATM   28  C9  UNL     1      21.560   4.577  47.965  1.00  0.00     0.120 A 
ENDBRANCH  20  21
ENDBRANCH  13  14
ENDBRANCH   1  12
BRANCH   3  29
HETATM   29  C15 UNL     1      20.303   0.090  52.377  1.00  0.00     0.119 C 
HETATM   30  C16 UNL     1      20.223   0.790  51.033  1.00  0.00     0.026 C 
ENDBRANCH   3  29
TORSDOF 4
ENDMDL
MODEL 9
REMARK VINA RESULT:      -8.4      2.527      3.793
REMARK  4 active torsions:
REMARK  status: ('A' for Active; 'I' for Inactive)
REMARK    1  A    between atoms: C4_6  and  N3_7 
REMARK    2  A    between atoms: C10_15  and  C11_16 
REMARK    3  A    between atoms: C12_17  and  C13_18 
REMARK    4  A    between atoms: N4_20  and  C15_21 
ROOT
HETATM    1  C13 UNL     1      25.106   4.689  50.203  1.00  0.00     0.099 C 
HETATM    2  C14 UNL     1      23.904   4.422  49.608  1.00  0.00     0.125 C 
HETATM    3  N4  UNL     1      22.992   4.954  48.565  1.00  0.00    -0.377 N 
HETATM    4  C17 UNL     1      23.263   6.134  47.483  1.00  0.00     0.216 C 
HETATM    5  C18 UNL     1      24.480   6.407  48.030  1.00  0.00    -0.085 C 
HETATM    6  C19 UNL     1      25.325   6.582  48.426  1.00  0.00    -0.077 C 
HETATM    7  C20 UNL     1      26.532   6.811  49.015  1.00  0.00     0.196 C 
HETATM    8  C21 UNL     1      26.742   8.036  49.804  1.00  0.00     0.429 C 
HETATM    9  O1  UNL     1      26.926   9.080  50.391  1.00  0.00    -0.427 OA
HETATM   10  N5  UNL     1      26.219   5.674  50.161  1.00  0.00    -0.364 N 
HETATM   11  H19 UNL     1      26.747   5.518  50.988  1.00  0.00     0.161 HD
ENDROOT
BRANCH   1  12
HETATM   12  C12 UNL     1      25.383   3.682  51.198  1.00  0.00    -0.046 C 
HETATM   13  C11 UNL     1      25.606   2.859  52.041  1.00  0.00    -0.081 C 
BRANCH  13  14
HETATM   14  C10 UNL     1      25.871   1.851  53.100  1.00  0.00     0.186 A 
HETATM   15  C2  UNL     1      27.336   1.503  53.093  1.00  0.00     0.049 A 
HETATM   16  C1  UNL     1      28.166   2.496  53.450  1.00  0.00     0.042 C 
HETATM   17  N1  UNL     1      27.940   0.258  52.757  1.00  0.00    -0.246 NA
HETATM   18  C3  UNL     1      27.093  -0.688  52.430  1.00  0.00     0.235 A 
HETATM   19  N2  UNL     1      25.679  -0.535  52.396  1.00  0.00    -0.226 NA
HETATM   20  C4  UNL     1      25.153   0.613  52.705  1.00  0.00     0.133 A 
BRANCH  20  21
HETATM   21  N3  UNL     1      23.735   0.486  52.590  1.00  0.00    -0.318 N 
HETATM   22  C5  UNL     1      22.789   1.104  51.730  1.00  0.00     0.097 A 
HETATM   23  C6  UNL     1      21.531   0.799  51.838  1.00  0.00     0.033 A 
HETATM   24  C7  UNL     1      20.931  -0.156  52.791  1.00  0.00     0.240 A 
HETATM   25  F1  UNL     1      19.959   0.460  53.566  1.00  0.00    -0.239 F 
HETATM   26  C8  UNL     1      21.977  -0.756  53.652  1.00  0.00     0.065 A 
HETATM   27 CL1  UNL     1      21.272  -1.883  54.778  1.00  0.00    -0.084 Cl
HETATM   28  C9  UNL     1      23.284  -0.457  53.559  1.00  0.00     0.120 A 
ENDBRANCH  20  21
ENDBRANCH  13  14
ENDBRANCH   1  12
BRANCH   3  29
HETATM   29  C15 UNL     1      21.761   4.307  48.570  1.00  0.00     0.119 C 
HETATM   30  C16 UNL     1      21.769   3.040  47.734  1.00  0.00     0.026 C 
ENDBRANCH   3  29
TORSDOF 4
ENDMDL
