MODEL 1
REMARK VINA RESULT:      -8.0      0.000      0.000
REMARK  7 active torsions:
REMARK  status: ('A' for Active; 'I' for Inactive)
REMARK    1  A    between atoms: C2_2  and  S1_3 
REMARK    2  A    between atoms: S1_3  and  C3_4 
REMARK    3  A    between atoms: C9_13  and  O2_14 
REMARK    4  A    between atoms: O2_14  and  C10_15 
REMARK    5  A    between atoms: C10_15  and  S2_16 
REMARK    6  A    between atoms: S2_16  and  C11_17 
REMARK    7  A    between atoms: C14_20  and  O3_21 
ROOT
HETATM    1  C3  UNL     1      24.388   0.800  53.294  1.00  0.00     0.038 C 
HETATM    2  C4  UNL     1      25.385  -0.015  53.741  1.00  0.00     0.032 C 
HETATM    3  C5  UNL     1      26.352   0.171  52.576  1.00  0.00    -0.009 C 
HETATM    4  C6  UNL     1      27.642   0.277  53.172  1.00  0.00     0.122 C 
HETATM    5  C7  UNL     1      28.957  -0.241  53.554  1.00  0.00     0.106 C 
HETATM    6  N1  UNL     1      29.964  -0.654  53.837  1.00  0.00    -0.191 NA
HETATM    7  C8  UNL     1      27.584   1.828  53.706  1.00  0.00     0.265 C 
HETATM    8  O1  UNL     1      28.372   2.643  54.328  1.00  0.00    -0.267 OA
HETATM    9  N2  UNL     1      26.211   2.495  53.373  1.00  0.00    -0.317 N 
HETATM   10  C9  UNL     1      24.945   2.113  52.679  1.00  0.00     0.191 C 
HETATM   11  C17 UNL     1      25.258   1.510  51.292  1.00  0.00     0.040 C 
HETATM   12  C18 UNL     1      26.466   0.883  51.233  1.00  0.00     0.014 C 
HETATM   13  H7  UNL     1      26.228   3.526  53.784  1.00  0.00     0.166 HD
ENDROOT
BRANCH   1  14
HETATM   14  S1  UNL     1      22.566   0.759  53.234  1.00  0.00    -0.129 SA
BRANCH  14  15
HETATM   15  C2  UNL     1      21.947  -0.911  53.407  1.00  0.00     0.075 C 
HETATM   16  C1  UNL     1      22.029  -1.480  54.789  1.00  0.00     0.016 C 
ENDBRANCH  14  15
ENDBRANCH   1  14
BRANCH  10  17
HETATM   17  O2  UNL     1      24.052   3.085  52.663  1.00  0.00    -0.342 OA
BRANCH  17  18
HETATM   18  C10 UNL     1      23.626   3.526  51.445  1.00  0.00     0.251 C 
BRANCH  18  19
HETATM   19  S2  UNL     1      23.963   5.302  51.149  1.00  0.00    -0.104 SA
BRANCH  19  20
HETATM   20  C11 UNL     1      25.407   5.453  50.108  1.00  0.00     0.002 A 
HETATM   21  C12 UNL     1      25.740   6.771  49.794  1.00  0.00     0.021 A 
HETATM   22  C13 UNL     1      26.842   7.027  48.990  1.00  0.00     0.038 A 
HETATM   23  C14 UNL     1      27.624   5.994  48.491  1.00  0.00     0.065 A 
HETATM   24  C15 UNL     1      27.269   4.709  48.818  1.00  0.00     0.038 A 
HETATM   25  C16 UNL     1      26.178   4.405  49.615  1.00  0.00     0.021 A 
BRANCH  23  26
HETATM   26  O3  UNL     1      28.743   6.197  47.678  1.00  0.00    -0.361 OA
HETATM   27  H12 UNL     1      28.548   6.482  46.719  1.00  0.00     0.217 HD
ENDBRANCH  23  26
ENDBRANCH  19  20
ENDBRANCH  18  19
ENDBRANCH  17  18
ENDBRANCH  10  17
TORSDOF 7
ENDMDL
MODEL 2
REMARK VINA RESULT:      -8.0      3.719      6.973
REMARK  7 active torsions:
REMARK  status: ('A' for Active; 'I' for Inactive)
REMARK    1  A    between atoms: C2_2  and  S1_3 
REMARK    2  A    between atoms: S1_3  and  C3_4 
REMARK    3  A    between atoms: C9_13  and  O2_14 
REMARK    4  A    between atoms: O2_14  and  C10_15 
REMARK    5  A    between atoms: C10_15  and  S2_16 
REMARK    6  A    between atoms: S2_16  and  C11_17 
REMARK    7  A    between atoms: C14_20  and  O3_21 
ROOT
HETATM    1  C3  UNL     1      21.471   2.894  52.359  1.00  0.00     0.038 C 
HETATM    2  C4  UNL     1      20.254   2.360  52.658  1.00  0.00     0.032 C 
HETATM    3  C5  UNL     1      20.393   1.060  51.873  1.00  0.00    -0.009 C 
HETATM    4  C6  UNL     1      19.837   0.052  52.715  1.00  0.00     0.122 C 
HETATM    5  C7  UNL     1      18.782  -0.873  53.132  1.00  0.00     0.106 C 
HETATM    6  N1  UNL     1      17.962  -1.581  53.437  1.00  0.00    -0.191 NA
HETATM    7  C8  UNL     1      21.076  -0.154  53.771  1.00  0.00     0.265 C 
HETATM    8  O1  UNL     1      21.325  -0.895  54.801  1.00  0.00    -0.267 OA
HETATM    9  N2  UNL     1      22.271   0.799  53.443  1.00  0.00    -0.317 N 
HETATM   10  C9  UNL     1      22.601   1.829  52.414  1.00  0.00     0.191 C 
HETATM   11  C17 UNL     1      22.349   1.269  50.997  1.00  0.00     0.040 C 
HETATM   12  C18 UNL     1      21.363   0.329  50.953  1.00  0.00     0.014 C 
HETATM   13  H7  UNL     1      23.057   0.630  54.207  1.00  0.00     0.166 HD
ENDROOT
BRANCH   1  14
HETATM   14  S1  UNL     1      22.128   4.538  51.919  1.00  0.00    -0.129 SA
BRANCH  14  15
HETATM   15  C2  UNL     1      22.028   4.827  50.156  1.00  0.00     0.075 C 
HETATM   16  C1  UNL     1      20.795   4.297  49.494  1.00  0.00     0.016 C 
ENDBRANCH  14  15
ENDBRANCH   1  14
BRANCH  10  17
HETATM   17  O2  UNL     1      23.796   2.364  52.584  1.00  0.00    -0.342 OA
BRANCH  17  18
HETATM   18  C10 UNL     1      24.837   1.805  51.904  1.00  0.00     0.251 C 
BRANCH  18  19
HETATM   19  S2  UNL     1      26.446   1.964  52.765  1.00  0.00    -0.104 SA
BRANCH  19  20
HETATM   20  C11 UNL     1      27.196   0.349  52.897  1.00  0.00     0.002 A 
HETATM   21  C12 UNL     1      26.358  -0.696  52.510  1.00  0.00     0.021 A 
HETATM   22  C13 UNL     1      26.820  -2.004  52.566  1.00  0.00     0.038 A 
HETATM   23  C14 UNL     1      28.106  -2.294  53.000  1.00  0.00     0.065 A 
HETATM   24  C15 UNL     1      28.906  -1.243  53.374  1.00  0.00     0.038 A 
HETATM   25  C16 UNL     1      28.489   0.077  53.336  1.00  0.00     0.021 A 
BRANCH  23  26
HETATM   26  O3  UNL     1      28.621  -3.592  53.074  1.00  0.00    -0.361 OA
HETATM   27  H12 UNL     1      28.234  -4.261  52.409  1.00  0.00     0.217 HD
ENDBRANCH  23  26
ENDBRANCH  19  20
ENDBRANCH  18  19
ENDBRANCH  17  18
ENDBRANCH  10  17
TORSDOF 7
ENDMDL
MODEL 3
REMARK VINA RESULT:      -7.7      2.743      4.488
REMARK  7 active torsions:
REMARK  status: ('A' for Active; 'I' for Inactive)
REMARK    1  A    between atoms: C2_2  and  S1_3 
REMARK    2  A    between atoms: S1_3  and  C3_4 
REMARK    3  A    between atoms: C9_13  and  O2_14 
REMARK    4  A    between atoms: O2_14  and  C10_15 
REMARK    5  A    between atoms: C10_15  and  S2_16 
REMARK    6  A    between atoms: S2_16  and  C11_17 
REMARK    7  A    between atoms: C14_20  and  O3_21 
ROOT
HETATM    1  C3  UNL     1      24.554   0.477  53.707  1.00  0.00     0.038 C 
HETATM    2  C4  UNL     1      25.649  -0.257  54.055  1.00  0.00     0.032 C 
HETATM    3  C5  UNL     1      26.480  -0.009  52.801  1.00  0.00    -0.009 C 
HETATM    4  C6  UNL     1      27.811   0.198  53.268  1.00  0.00     0.122 C 
HETATM    5  C7  UNL     1      29.192  -0.217  53.520  1.00  0.00     0.106 C 
HETATM    6  N1  UNL     1      30.251  -0.551  53.703  1.00  0.00    -0.191 NA
HETATM    7  C8  UNL     1      27.689   1.744  53.804  1.00  0.00     0.265 C 
HETATM    8  O1  UNL     1      28.471   2.621  54.345  1.00  0.00    -0.267 OA
HETATM    9  N2  UNL     1      26.243   2.305  53.606  1.00  0.00    -0.317 N 
HETATM   10  C9  UNL     1      24.948   1.824  53.040  1.00  0.00     0.191 C 
HETATM   11  C17 UNL     1      25.169   1.234  51.629  1.00  0.00     0.040 C 
HETATM   12  C18 UNL     1      26.410   0.699  51.453  1.00  0.00     0.014 C 
HETATM   13  H7  UNL     1      26.223   3.337  54.013  1.00  0.00     0.166 HD
ENDROOT
BRANCH   1  14
HETATM   14  S1  UNL     1      22.743   0.299  53.826  1.00  0.00    -0.129 SA
BRANCH  14  15
HETATM   15  C2  UNL     1      22.286  -1.332  54.404  1.00  0.00     0.075 C 
HETATM   16  C1  UNL     1      20.838  -1.676  54.254  1.00  0.00     0.016 C 
ENDBRANCH  14  15
ENDBRANCH   1  14
BRANCH  10  17
HETATM   17  O2  UNL     1      23.987   2.726  53.110  1.00  0.00    -0.342 OA
BRANCH  17  18
HETATM   18  C10 UNL     1      24.158   3.881  52.407  1.00  0.00     0.251 C 
BRANCH  18  19
HETATM   19  S2  UNL     1      22.794   4.234  51.236  1.00  0.00    -0.104 SA
BRANCH  19  20
HETATM   20  C11 UNL     1      21.672   2.845  51.215  1.00  0.00     0.002 A 
HETATM   21  C12 UNL     1      20.602   2.970  52.101  1.00  0.00     0.021 A 
HETATM   22  C13 UNL     1      19.656   1.958  52.184  1.00  0.00     0.038 A 
HETATM   23  C14 UNL     1      19.753   0.818  51.398  1.00  0.00     0.065 A 
HETATM   24  C15 UNL     1      20.818   0.724  50.536  1.00  0.00     0.038 A 
HETATM   25  C16 UNL     1      21.786   1.708  50.420  1.00  0.00     0.021 A 
BRANCH  23  26
HETATM   26  O3  UNL     1      18.829  -0.230  51.441  1.00  0.00    -0.361 OA
HETATM   27  H12 UNL     1      19.029  -1.023  50.831  1.00  0.00     0.217 HD
ENDBRANCH  23  26
ENDBRANCH  19  20
ENDBRANCH  18  19
ENDBRANCH  17  18
ENDBRANCH  10  17
TORSDOF 7
ENDMDL
MODEL 4
REMARK VINA RESULT:      -7.6      2.798      2.931
REMARK  7 active torsions:
REMARK  status: ('A' for Active; 'I' for Inactive)
REMARK    1  A    between atoms: C2_2  and  S1_3 
REMARK    2  A    between atoms: S1_3  and  C3_4 
REMARK    3  A    between atoms: C9_13  and  O2_14 
REMARK    4  A    between atoms: O2_14  and  C10_15 
REMARK    5  A    between atoms: C10_15  and  S2_16 
REMARK    6  A    between atoms: S2_16  and  C11_17 
REMARK    7  A    between atoms: C14_20  and  O3_21 
ROOT
HETATM    1  C3  UNL     1      24.437   0.209  53.129  1.00  0.00     0.038 C 
HETATM    2  C4  UNL     1      25.349  -0.794  53.276  1.00  0.00     0.032 C 
HETATM    3  C5  UNL     1      26.444  -0.220  52.385  1.00  0.00    -0.009 C 
HETATM    4  C6  UNL     1      27.663  -0.471  53.079  1.00  0.00     0.122 C 
HETATM    5  C7  UNL     1      28.909  -1.203  53.320  1.00  0.00     0.106 C 
HETATM    6  N1  UNL     1      29.863  -1.774  53.489  1.00  0.00    -0.191 NA
HETATM    7  C8  UNL     1      27.602   0.719  54.207  1.00  0.00     0.265 C 
HETATM    8  O1  UNL     1      28.345   1.139  55.179  1.00  0.00    -0.267 OA
HETATM    9  N2  UNL     1      26.299   1.571  54.068  1.00  0.00    -0.317 N 
HETATM   10  C9  UNL     1      25.105   1.610  53.172  1.00  0.00     0.191 C 
HETATM   11  C17 UNL     1      25.548   1.613  51.692  1.00  0.00     0.040 C 
HETATM   12  C18 UNL     1      26.733   0.972  51.480  1.00  0.00     0.014 C 
HETATM   13  H7  UNL     1      26.306   2.334  54.873  1.00  0.00     0.166 HD
ENDROOT
BRANCH   1  14
HETATM   14  S1  UNL     1      22.632   0.339  52.901  1.00  0.00    -0.129 SA
BRANCH  14  15
HETATM   15  C2  UNL     1      21.751  -0.221  54.354  1.00  0.00     0.075 C 
HETATM   16  C1  UNL     1      21.672  -1.707  54.516  1.00  0.00     0.016 C 
ENDBRANCH  14  15
ENDBRANCH   1  14
BRANCH  10  17
HETATM   17  O2  UNL     1      24.254   2.569  53.488  1.00  0.00    -0.342 OA
BRANCH  17  18
HETATM   18  C10 UNL     1      24.234   3.677  52.694  1.00  0.00     0.251 C 
BRANCH  18  19
HETATM   19  S2  UNL     1      22.560   4.122  52.099  1.00  0.00    -0.104 SA
BRANCH  19  20
HETATM   20  C11 UNL     1      22.442   3.743  50.358  1.00  0.00     0.002 A 
HETATM   21  C12 UNL     1      22.162   4.850  49.557  1.00  0.00     0.021 A 
HETATM   22  C13 UNL     1      22.044   4.691  48.183  1.00  0.00     0.038 A 
HETATM   23  C14 UNL     1      22.200   3.447  47.587  1.00  0.00     0.065 A 
HETATM   24  C15 UNL     1      22.474   2.378  48.404  1.00  0.00     0.038 A 
HETATM   25  C16 UNL     1      22.600   2.487  49.778  1.00  0.00     0.021 A 
BRANCH  23  26
HETATM   26  O3  UNL     1      22.091   3.232  46.210  1.00  0.00    -0.361 OA
HETATM   27  H12 UNL     1      22.710   2.519  45.823  1.00  0.00     0.217 HD
ENDBRANCH  23  26
ENDBRANCH  19  20
ENDBRANCH  18  19
ENDBRANCH  17  18
ENDBRANCH  10  17
TORSDOF 7
ENDMDL
MODEL 5
REMARK VINA RESULT:      -7.4      2.939      6.965
REMARK  7 active torsions:
REMARK  status: ('A' for Active; 'I' for Inactive)
REMARK    1  A    between atoms: C2_2  and  S1_3 
REMARK    2  A    between atoms: S1_3  and  C3_4 
REMARK    3  A    between atoms: C9_13  and  O2_14 
REMARK    4  A    between atoms: O2_14  and  C10_15 
REMARK    5  A    between atoms: C10_15  and  S2_16 
REMARK    6  A    between atoms: S2_16  and  C11_17 
REMARK    7  A    between atoms: C14_20  and  O3_21 
ROOT
HETATM    1  C3  UNL     1      25.364   2.792  50.898  1.00  0.00     0.038 C 
HETATM    2  C4  UNL     1      26.509   2.316  51.463  1.00  0.00     0.032 C 
HETATM    3  C5  UNL     1      26.075   2.392  52.923  1.00  0.00    -0.009 C 
HETATM    4  C6  UNL     1      26.562   1.195  53.522  1.00  0.00     0.122 C 
HETATM    5  C7  UNL     1      27.501   0.425  54.342  1.00  0.00     0.106 C 
HETATM    6  N1  UNL     1      28.229  -0.150  54.977  1.00  0.00    -0.191 NA
HETATM    7  C8  UNL     1      25.441   0.126  52.979  1.00  0.00     0.265 C 
HETATM    8  O1  UNL     1      25.203  -1.139  53.103  1.00  0.00    -0.267 OA
HETATM    9  N2  UNL     1      24.380   0.825  52.068  1.00  0.00    -0.317 N 
HETATM   10  C9  UNL     1      24.096   2.206  51.577  1.00  0.00     0.191 C 
HETATM   11  C17 UNL     1      24.085   3.201  52.759  1.00  0.00     0.040 C 
HETATM   12  C18 UNL     1      24.899   2.829  53.788  1.00  0.00     0.014 C 
HETATM   13  H7  UNL     1      23.675   0.047  51.713  1.00  0.00     0.166 HD
ENDROOT
BRANCH   1  14
HETATM   14  S1  UNL     1      24.926   3.931  49.543  1.00  0.00    -0.129 SA
BRANCH  14  15
HETATM   15  C2  UNL     1      26.179   5.189  49.321  1.00  0.00     0.075 C 
HETATM   16  C1  UNL     1      27.489   4.695  48.793  1.00  0.00     0.016 C 
ENDBRANCH  14  15
ENDBRANCH   1  14
BRANCH  10  17
HETATM   17  O2  UNL     1      23.029   2.269  50.803  1.00  0.00    -0.342 OA
BRANCH  17  18
HETATM   18  C10 UNL     1      21.832   2.529  51.402  1.00  0.00     0.251 C 
BRANCH  18  19
HETATM   19  S2  UNL     1      20.392   1.874  50.478  1.00  0.00    -0.104 SA
BRANCH  19  20
HETATM   20  C11 UNL     1      19.530   0.695  51.507  1.00  0.00     0.002 A 
HETATM   21  C12 UNL     1      20.291   0.213  52.571  1.00  0.00     0.021 A 
HETATM   22  C13 UNL     1      19.739  -0.711  53.448  1.00  0.00     0.038 A 
HETATM   23  C14 UNL     1      18.437  -1.165  53.286  1.00  0.00     0.065 A 
HETATM   24  C15 UNL     1      17.714  -0.671  52.229  1.00  0.00     0.038 A 
HETATM   25  C16 UNL     1      18.223   0.250  51.329  1.00  0.00     0.021 A 
BRANCH  23  26
HETATM   26  O3  UNL     1      17.832  -2.093  54.139  1.00  0.00    -0.361 OA
HETATM   27  H12 UNL     1      16.813  -2.074  54.164  1.00  0.00     0.217 HD
ENDBRANCH  23  26
ENDBRANCH  19  20
ENDBRANCH  18  19
ENDBRANCH  17  18
ENDBRANCH  10  17
TORSDOF 7
ENDMDL
MODEL 6
REMARK VINA RESULT:      -7.4      2.651      6.099
REMARK  7 active torsions:
REMARK  status: ('A' for Active; 'I' for Inactive)
REMARK    1  A    between atoms: C2_2  and  S1_3 
REMARK    2  A    between atoms: S1_3  and  C3_4 
REMARK    3  A    between atoms: C9_13  and  O2_14 
REMARK    4  A    between atoms: O2_14  and  C10_15 
REMARK    5  A    between atoms: C10_15  and  S2_16 
REMARK    6  A    between atoms: S2_16  and  C11_17 
REMARK    7  A    between atoms: C14_20  and  O3_21 
ROOT
HETATM    1  C3  UNL     1      22.719   2.297  49.762  1.00  0.00     0.038 C 
HETATM    2  C4  UNL     1      23.600   2.892  48.908  1.00  0.00     0.032 C 
HETATM    3  C5  UNL     1      23.973   4.084  49.782  1.00  0.00    -0.009 C 
HETATM    4  C6  UNL     1      25.381   4.239  49.624  1.00  0.00     0.122 C 
HETATM    5  C7  UNL     1      26.577   4.880  49.073  1.00  0.00     0.106 C 
HETATM    6  N1  UNL     1      27.485   5.387  48.643  1.00  0.00    -0.191 NA
HETATM    7  C8  UNL     1      25.913   3.031  50.599  1.00  0.00     0.265 C 
HETATM    8  O1  UNL     1      27.055   2.555  50.976  1.00  0.00    -0.267 OA
HETATM    9  N2  UNL     1      24.722   2.249  51.242  1.00  0.00    -0.317 N 
HETATM   10  C9  UNL     1      23.231   2.318  51.229  1.00  0.00     0.191 C 
HETATM   11  C17 UNL     1      22.760   3.758  51.532  1.00  0.00     0.040 C 
HETATM   12  C18 UNL     1      23.646   4.714  51.131  1.00  0.00     0.014 C 
HETATM   13  H7  UNL     1      25.149   1.434  51.861  1.00  0.00     0.166 HD
ENDROOT
BRANCH   1  14
HETATM   14  S1  UNL     1      21.098   1.473  49.636  1.00  0.00    -0.129 SA
BRANCH  14  15
HETATM   15  C2  UNL     1      19.918   2.490  48.756  1.00  0.00     0.075 C 
HETATM   16  C1  UNL     1      19.960   3.948  49.090  1.00  0.00     0.016 C 
ENDBRANCH  14  15
ENDBRANCH   1  14
BRANCH  10  17
HETATM   17  O2  UNL     1      22.665   1.390  51.978  1.00  0.00    -0.342 OA
BRANCH  17  18
HETATM   18  C10 UNL     1      23.169   1.201  53.230  1.00  0.00     0.251 C 
BRANCH  18  19
HETATM   19  S2  UNL     1      23.838  -0.482  53.505  1.00  0.00    -0.104 SA
BRANCH  19  20
HETATM   20  C11 UNL     1      25.610  -0.378  53.697  1.00  0.00     0.002 A 
HETATM   21  C12 UNL     1      26.323  -1.172  52.799  1.00  0.00     0.021 A 
HETATM   22  C13 UNL     1      27.710  -1.184  52.843  1.00  0.00     0.038 A 
HETATM   23  C14 UNL     1      28.406  -0.416  53.766  1.00  0.00     0.065 A 
HETATM   24  C15 UNL     1      27.676   0.355  54.636  1.00  0.00     0.038 A 
HETATM   25  C16 UNL     1      26.291   0.397  54.631  1.00  0.00     0.021 A 
BRANCH  23  26
HETATM   26  O3  UNL     1      29.801  -0.389  53.852  1.00  0.00    -0.361 OA
HETATM   27  H12 UNL     1      30.270  -1.288  53.731  1.00  0.00     0.217 HD
ENDBRANCH  23  26
ENDBRANCH  19  20
ENDBRANCH  18  19
ENDBRANCH  17  18
ENDBRANCH  10  17
TORSDOF 7
ENDMDL
MODEL 7
REMARK VINA RESULT:      -7.4      3.305      7.246
REMARK  7 active torsions:
REMARK  status: ('A' for Active; 'I' for Inactive)
REMARK    1  A    between atoms: C2_2  and  S1_3 
REMARK    2  A    between atoms: S1_3  and  C3_4 
REMARK    3  A    between atoms: C9_13  and  O2_14 
REMARK    4  A    between atoms: O2_14  and  C10_15 
REMARK    5  A    between atoms: C10_15  and  S2_16 
REMARK    6  A    between atoms: S2_16  and  C11_17 
REMARK    7  A    between atoms: C14_20  and  O3_21 
ROOT
HETATM    1  C3  UNL     1      23.702   2.952  50.321  1.00  0.00     0.038 C 
HETATM    2  C4  UNL     1      22.559   2.983  49.578  1.00  0.00     0.032 C 
HETATM    3  C5  UNL     1      21.892   1.742  50.161  1.00  0.00    -0.009 C 
HETATM    4  C6  UNL     1      20.518   2.091  50.314  1.00  0.00     0.122 C 
HETATM    5  C7  UNL     1      19.109   2.075  49.917  1.00  0.00     0.106 C 
HETATM    6  N1  UNL     1      18.030   2.049  49.600  1.00  0.00    -0.191 NA
HETATM    7  C8  UNL     1      20.604   2.999  51.678  1.00  0.00     0.265 C 
HETATM    8  O1  UNL     1      19.779   3.645  52.435  1.00  0.00    -0.267 OA
HETATM    9  N2  UNL     1      22.073   3.110  52.199  1.00  0.00    -0.317 N 
HETATM   10  C9  UNL     1      23.418   2.594  51.806  1.00  0.00     0.191 C 
HETATM   11  C17 UNL     1      23.360   1.067  51.585  1.00  0.00     0.040 C 
HETATM   12  C18 UNL     1      22.140   0.625  51.167  1.00  0.00     0.014 C 
HETATM   13  H7  UNL     1      22.064   3.756  53.100  1.00  0.00     0.166 HD
ENDROOT
BRANCH   1  14
HETATM   14  S1  UNL     1      25.481   3.230  50.033  1.00  0.00    -0.129 SA
BRANCH  14  15
HETATM   15  C2  UNL     1      25.780   4.839  49.311  1.00  0.00     0.075 C 
HETATM   16  C1  UNL     1      25.232   5.996  50.087  1.00  0.00     0.016 C 
ENDBRANCH  14  15
ENDBRANCH   1  14
BRANCH  10  17
HETATM   17  O2  UNL     1      24.380   2.992  52.617  1.00  0.00    -0.342 OA
BRANCH  17  18
HETATM   18  C10 UNL     1      24.949   2.052  53.424  1.00  0.00     0.251 C 
BRANCH  18  19
HETATM   19  S2  UNL     1      26.780   2.125  53.457  1.00  0.00    -0.104 SA
BRANCH  19  20
HETATM   20  C11 UNL     1      27.430   0.468  53.312  1.00  0.00     0.002 A 
HETATM   21  C12 UNL     1      26.492  -0.470  52.878  1.00  0.00     0.021 A 
HETATM   22  C13 UNL     1      26.869  -1.797  52.724  1.00  0.00     0.038 A 
HETATM   23  C14 UNL     1      28.166  -2.212  52.992  1.00  0.00     0.065 A 
HETATM   24  C15 UNL     1      29.065  -1.264  53.417  1.00  0.00     0.038 A 
HETATM   25  C16 UNL     1      28.735   0.070  53.587  1.00  0.00     0.021 A 
BRANCH  23  26
HETATM   26  O3  UNL     1      28.598  -3.534  52.853  1.00  0.00    -0.361 OA
HETATM   27  H12 UNL     1      28.624  -3.893  51.898  1.00  0.00     0.217 HD
ENDBRANCH  23  26
ENDBRANCH  19  20
ENDBRANCH  18  19
ENDBRANCH  17  18
ENDBRANCH  10  17
TORSDOF 7
ENDMDL
MODEL 8
REMARK VINA RESULT:      -7.3      2.971      6.865
REMARK  7 active torsions:
REMARK  status: ('A' for Active; 'I' for Inactive)
REMARK    1  A    between atoms: C2_2  and  S1_3 
REMARK    2  A    between atoms: S1_3  and  C3_4 
REMARK    3  A    between atoms: C9_13  and  O2_14 
REMARK    4  A    between atoms: O2_14  and  C10_15 
REMARK    5  A    between atoms: C10_15  and  S2_16 
REMARK    6  A    between atoms: S2_16  and  C11_17 
REMARK    7  A    between atoms: C14_20  and  O3_21 
ROOT
HETATM    1  C3  UNL     1      23.121   4.181  49.905  1.00  0.00     0.038 C 
HETATM    2  C4  UNL     1      23.393   4.947  48.812  1.00  0.00     0.032 C 
HETATM    3  C5  UNL     1      24.055   6.118  49.529  1.00  0.00    -0.009 C 
HETATM    4  C6  UNL     1      25.170   6.475  48.716  1.00  0.00     0.122 C 
HETATM    5  C7  UNL     1      25.862   7.311  47.732  1.00  0.00     0.106 C 
HETATM    6  N1  UNL     1      26.380   7.965  46.978  1.00  0.00    -0.191 NA
HETATM    7  C8  UNL     1      26.223   5.290  49.136  1.00  0.00     0.265 C 
HETATM    8  O1  UNL     1      27.434   4.951  48.835  1.00  0.00    -0.267 OA
HETATM    9  N2  UNL     1      25.594   4.310  50.179  1.00  0.00    -0.317 N 
HETATM   10  C9  UNL     1      24.302   4.174  50.915  1.00  0.00     0.191 C 
HETATM   11  C17 UNL     1      23.930   5.512  51.592  1.00  0.00     0.040 C 
HETATM   12  C18 UNL     1      24.405   6.605  50.931  1.00  0.00     0.014 C 
HETATM   13  H7  UNL     1      26.343   3.522  50.397  1.00  0.00     0.166 HD
ENDROOT
BRANCH   1  14
HETATM   14  S1  UNL     1      21.736   3.152  50.495  1.00  0.00    -0.129 SA
BRANCH  14  15
HETATM   15  C2  UNL     1      21.772   1.525  49.750  1.00  0.00     0.075 C 
HETATM   16  C1  UNL     1      21.874   1.512  48.257  1.00  0.00     0.016 C 
ENDBRANCH  14  15
ENDBRANCH   1  14
BRANCH  10  17
HETATM   17  O2  UNL     1      24.275   3.129  51.721  1.00  0.00    -0.342 OA
BRANCH  17  18
HETATM   18  C10 UNL     1      25.262   2.200  51.578  1.00  0.00     0.251 C 
BRANCH  18  19
HETATM   19  S2  UNL     1      26.356   2.061  53.041  1.00  0.00    -0.104 SA
BRANCH  19  20
HETATM   20  C11 UNL     1      27.125   0.449  53.041  1.00  0.00     0.002 A 
HETATM   21  C12 UNL     1      26.279  -0.579  52.627  1.00  0.00     0.021 A 
HETATM   22  C13 UNL     1      26.754  -1.883  52.582  1.00  0.00     0.038 A 
HETATM   23  C14 UNL     1      28.060  -2.185  52.940  1.00  0.00     0.065 A 
HETATM   24  C15 UNL     1      28.868  -1.150  53.343  1.00  0.00     0.038 A 
HETATM   25  C16 UNL     1      28.438   0.165  53.405  1.00  0.00     0.021 A 
BRANCH  23  26
HETATM   26  O3  UNL     1      28.589  -3.479  52.912  1.00  0.00    -0.361 OA
HETATM   27  H12 UNL     1      29.228  -3.713  53.672  1.00  0.00     0.217 HD
ENDBRANCH  23  26
ENDBRANCH  19  20
ENDBRANCH  18  19
ENDBRANCH  17  18
ENDBRANCH  10  17
TORSDOF 7
ENDMDL
MODEL 9
REMARK VINA RESULT:      -7.3      2.248      3.214
REMARK  7 active torsions:
REMARK  status: ('A' for Active; 'I' for Inactive)
REMARK    1  A    between atoms: C2_2  and  S1_3 
REMARK    2  A    between atoms: S1_3  and  C3_4 
REMARK    3  A    between atoms: C9_13  and  O2_14 
REMARK    4  A    between atoms: O2_14  and  C10_15 
REMARK    5  A    between atoms: C10_15  and  S2_16 
REMARK    6  A    between atoms: S2_16  and  C11_17 
REMARK    7  A    between atoms: C14_20  and  O3_21 
ROOT
HETATM    1  C3  UNL     1      23.728   3.886  52.333  1.00  0.00     0.038 C 
HETATM    2  C4  UNL     1      24.222   3.353  53.486  1.00  0.00     0.032 C 
HETATM    3  C5  UNL     1      24.391   1.917  53.004  1.00  0.00    -0.009 C 
HETATM    4  C6  UNL     1      25.639   1.484  53.541  1.00  0.00     0.122 C 
HETATM    5  C7  UNL     1      26.472   0.753  54.498  1.00  0.00     0.106 C 
HETATM    6  N1  UNL     1      27.097   0.183  55.239  1.00  0.00    -0.191 NA
HETATM    7  C8  UNL     1      26.670   2.225  52.502  1.00  0.00     0.265 C 
HETATM    8  O1  UNL     1      27.950   2.300  52.335  1.00  0.00    -0.267 OA
HETATM    9  N2  UNL     1      25.899   3.062  51.431  1.00  0.00    -0.317 N 
HETATM   10  C9  UNL     1      24.476   3.351  51.081  1.00  0.00     0.191 C 
HETATM   11  C17 UNL     1      23.674   2.035  50.976  1.00  0.00     0.040 C 
HETATM   12  C18 UNL     1      24.154   1.042  51.778  1.00  0.00     0.014 C 
HETATM   13  H7  UNL     1      26.651   3.556  50.783  1.00  0.00     0.166 HD
ENDROOT
BRANCH   1  14
HETATM   14  S1  UNL     1      22.421   5.070  51.870  1.00  0.00    -0.129 SA
BRANCH  14  15
HETATM   15  C2  UNL     1      20.867   4.237  51.563  1.00  0.00     0.075 C 
HETATM   16  C1  UNL     1      20.569   3.091  52.478  1.00  0.00     0.016 C 
ENDBRANCH  14  15
ENDBRANCH   1  14
BRANCH  10  17
HETATM   17  O2  UNL     1      24.354   4.149  50.036  1.00  0.00    -0.342 OA
BRANCH  17  18
HETATM   18  C10 UNL     1      25.482   4.428  49.324  1.00  0.00     0.251 C 
BRANCH  18  19
HETATM   19  S2  UNL     1      25.719   6.215  48.998  1.00  0.00    -0.104 SA
BRANCH  19  20
HETATM   20  C11 UNL     1      27.381   6.480  48.397  1.00  0.00     0.002 A 
HETATM   21  C12 UNL     1      28.194   5.349  48.472  1.00  0.00     0.021 A 
HETATM   22  C13 UNL     1      29.511   5.421  48.037  1.00  0.00     0.038 A 
HETATM   23  C14 UNL     1      30.035   6.600  47.525  1.00  0.00     0.065 A 
HETATM   24  C15 UNL     1      29.209   7.694  47.465  1.00  0.00     0.038 A 
HETATM   25  C16 UNL     1      27.890   7.671  47.888  1.00  0.00     0.021 A 
BRANCH  23  26
HETATM   26  O3  UNL     1      31.352   6.726  47.073  1.00  0.00    -0.361 OA
HETATM   27  H12 UNL     1      31.473   6.755  46.061  1.00  0.00     0.217 HD
ENDBRANCH  23  26
ENDBRANCH  19  20
ENDBRANCH  18  19
ENDBRANCH  17  18
ENDBRANCH  10  17
TORSDOF 7
ENDMDL
