MODEL 1
REMARK VINA RESULT:      -6.8      0.000      0.000
REMARK  6 active torsions:
REMARK  status: ('A' for Active; 'I' for Inactive)
REMARK    1  A    between atoms: O1_2  and  C2_3 
REMARK    2  A    between atoms: C8_9  and  C9_10 
REMARK    3  A    between atoms: C9_10  and  N1_11 
REMARK    4  A    between atoms: N1_11  and  C10_12 
REMARK       I    between atoms: N1_11  and  C11_14 
REMARK    5  A    between atoms: C10_12  and  P1_13 
REMARK       I    between atoms: C11_14  and  N2_16 
REMARK    6  A    between atoms: N2_16  and  C12_17 
ROOT
HETATM    1  N1  UNL     1      25.401   3.658  50.348  1.00  0.00    -0.326 N 
HETATM    2  C11 UNL     1      25.938   2.697  51.253  1.00  0.00     0.323 C 
HETATM    3  O2  UNL     1      27.165   2.319  51.227  1.00  0.00    -0.247 OA
HETATM    4  N2  UNL     1      25.277   1.986  52.321  1.00  0.00    -0.309 N 
HETATM    5  H16 UNL     1      24.264   2.236  52.418  1.00  0.00     0.170 HD
ENDROOT
BRANCH   1   6
HETATM    6  C9  UNL     1      24.052   4.173  50.263  1.00  0.00     0.169 C 
BRANCH   6   7
HETATM    7  C8  UNL     1      23.186   3.135  49.680  1.00  0.00    -0.006 A 
HETATM    8  C2  UNL     1      22.355   2.360  50.459  1.00  0.00     0.082 A 
HETATM    9  C3  UNL     1      21.525   1.358  49.948  1.00  0.00    -0.028 A 
HETATM   10  C4  UNL     1      20.648   0.564  50.870  1.00  0.00     0.051 C 
HETATM   11  C5  UNL     1      21.579   1.174  48.590  1.00  0.00     0.009 A 
HETATM   12  C6  UNL     1      22.387   1.914  47.765  1.00  0.00     0.001 A 
HETATM   13  C7  UNL     1      23.176   2.884  48.344  1.00  0.00     0.012 A 
BRANCH   8  14
HETATM   14  O1  UNL     1      22.304   2.551  51.827  1.00  0.00    -0.355 OA
HETATM   15  C1  UNL     1      21.494   3.547  52.408  1.00  0.00     0.210 C 
ENDBRANCH   8  14
ENDBRANCH   6   7
ENDBRANCH   1   6
BRANCH   1  16
HETATM   16  C10 UNL     1      26.355   4.183  49.390  1.00  0.00     0.155 C 
BRANCH  16  17
HETATM   17  P1  UNL     1      25.928   5.994  49.161  1.00  0.00    -0.122 P 
HETATM   18  H14 UNL     1      25.492   6.563  50.436  1.00  0.00     0.056 HD
HETATM   19  H15 UNL     1      24.849   6.171  48.198  1.00  0.00     0.056 HD
ENDBRANCH  16  17
ENDBRANCH   1  16
BRANCH   4  20
HETATM   20  C12 UNL     1      26.383   1.195  52.816  1.00  0.00     0.036 A 
HETATM   21  C13 UNL     1      27.237   1.766  53.740  1.00  0.00     0.029 A 
HETATM   22  C14 UNL     1      28.273   0.978  54.200  1.00  0.00     0.002 A 
HETATM   23  C15 UNL     1      28.376  -0.308  53.708  1.00  0.00     0.000 A 
HETATM   24  C16 UNL     1      27.528  -0.887  52.785  1.00  0.00     0.002 A 
HETATM   25  C17 UNL     1      26.494  -0.089  52.331  1.00  0.00     0.029 A 
ENDBRANCH   4  20
TORSDOF 6
ENDMDL
MODEL 2
REMARK VINA RESULT:      -6.8      2.995      4.404
REMARK  6 active torsions:
REMARK  status: ('A' for Active; 'I' for Inactive)
REMARK    1  A    between atoms: O1_2  and  C2_3 
REMARK    2  A    between atoms: C8_9  and  C9_10 
REMARK    3  A    between atoms: C9_10  and  N1_11 
REMARK    4  A    between atoms: N1_11  and  C10_12 
REMARK       I    between atoms: N1_11  and  C11_14 
REMARK    5  A    between atoms: C10_12  and  P1_13 
REMARK       I    between atoms: C11_14  and  N2_16 
REMARK    6  A    between atoms: N2_16  and  C12_17 
ROOT
HETATM    1  N1  UNL     1      23.812  -0.375  53.402  1.00  0.00    -0.326 N 
HETATM    2  C11 UNL     1      25.229  -0.488  53.286  1.00  0.00     0.323 C 
HETATM    3  O2  UNL     1      25.973  -0.955  54.222  1.00  0.00    -0.247 OA
HETATM    4  N2  UNL     1      26.080  -0.131  52.176  1.00  0.00    -0.309 N 
HETATM    5  H16 UNL     1      25.552   0.259  51.360  1.00  0.00     0.170 HD
ENDROOT
BRANCH   1   6
HETATM    6  C9  UNL     1      22.858   0.125  52.438  1.00  0.00     0.169 C 
BRANCH   6   7
HETATM    7  C8  UNL     1      23.198   1.522  52.119  1.00  0.00    -0.006 A 
HETATM    8  C2  UNL     1      23.026   2.041  50.854  1.00  0.00     0.082 A 
HETATM    9  C3  UNL     1      23.346   3.356  50.506  1.00  0.00    -0.028 A 
HETATM   10  C4  UNL     1      23.123   3.840  49.104  1.00  0.00     0.051 C 
HETATM   11  C5  UNL     1      23.856   4.133  51.514  1.00  0.00     0.009 A 
HETATM   12  C6  UNL     1      24.049   3.671  52.792  1.00  0.00     0.001 A 
HETATM   13  C7  UNL     1      23.709   2.363  53.056  1.00  0.00     0.012 A 
BRANCH   8  14
HETATM   14  O1  UNL     1      22.511   1.254  49.842  1.00  0.00    -0.355 OA
HETATM   15  C1  UNL     1      21.123   1.090  49.662  1.00  0.00     0.210 C 
ENDBRANCH   8  14
ENDBRANCH   6   7
ENDBRANCH   1   6
BRANCH   1  16
HETATM   16  C10 UNL     1      23.273  -0.836  54.667  1.00  0.00     0.155 C 
BRANCH  16  17
HETATM   17  P1  UNL     1      21.451  -1.162  54.375  1.00  0.00    -0.122 P 
HETATM   18  H14 UNL     1      20.986  -2.212  55.281  1.00  0.00     0.056 HD
HETATM   19  H15 UNL     1      21.198  -1.604  53.009  1.00  0.00     0.056 HD
ENDBRANCH  16  17
ENDBRANCH   1  16
BRANCH   4  20
HETATM   20  C12 UNL     1      27.369  -0.500  52.723  1.00  0.00     0.036 A 
HETATM   21  C13 UNL     1      27.745  -1.828  52.679  1.00  0.00     0.029 A 
HETATM   22  C14 UNL     1      28.986  -2.141  53.197  1.00  0.00     0.002 A 
HETATM   23  C15 UNL     1      29.749  -1.113  53.714  1.00  0.00     0.000 A 
HETATM   24  C16 UNL     1      29.382   0.216  53.763  1.00  0.00     0.002 A 
HETATM   25  C17 UNL     1      28.137   0.519  53.241  1.00  0.00     0.029 A 
ENDBRANCH   4  20
TORSDOF 6
ENDMDL
MODEL 3
REMARK VINA RESULT:      -6.8      2.773      3.821
REMARK  6 active torsions:
REMARK  status: ('A' for Active; 'I' for Inactive)
REMARK    1  A    between atoms: O1_2  and  C2_3 
REMARK    2  A    between atoms: C8_9  and  C9_10 
REMARK    3  A    between atoms: C9_10  and  N1_11 
REMARK    4  A    between atoms: N1_11  and  C10_12 
REMARK       I    between atoms: N1_11  and  C11_14 
REMARK    5  A    between atoms: C10_12  and  P1_13 
REMARK       I    between atoms: C11_14  and  N2_16 
REMARK    6  A    between atoms: N2_16  and  C12_17 
ROOT
HETATM    1  N1  UNL     1      22.956   0.134  53.047  1.00  0.00    -0.326 N 
HETATM    2  C11 UNL     1      24.368   0.155  53.241  1.00  0.00     0.323 C 
HETATM    3  O2  UNL     1      25.052  -0.894  53.524  1.00  0.00    -0.247 OA
HETATM    4  N2  UNL     1      25.278   1.273  53.168  1.00  0.00    -0.309 N 
HETATM    5  H16 UNL     1      24.803   2.177  52.937  1.00  0.00     0.170 HD
ENDROOT
BRANCH   1   6
HETATM    6  C9  UNL     1      22.066   1.228  52.724  1.00  0.00     0.169 C 
BRANCH   6   7
HETATM    7  C8  UNL     1      22.151   1.494  51.279  1.00  0.00    -0.006 A 
HETATM    8  C2  UNL     1      22.945   2.498  50.771  1.00  0.00     0.082 A 
HETATM    9  C3  UNL     1      23.047   2.792  49.408  1.00  0.00    -0.028 A 
HETATM   10  C4  UNL     1      23.941   3.902  48.941  1.00  0.00     0.051 C 
HETATM   11  C5  UNL     1      22.294   2.009  48.571  1.00  0.00     0.009 A 
HETATM   12  C6  UNL     1      21.485   0.996  49.020  1.00  0.00     0.001 A 
HETATM   13  C7  UNL     1      21.438   0.768  50.377  1.00  0.00     0.012 A 
BRANCH   8  14
HETATM   14  O1  UNL     1      23.703   3.284  51.619  1.00  0.00    -0.355 OA
HETATM   15  C1  UNL     1      23.163   4.415  52.264  1.00  0.00     0.210 C 
ENDBRANCH   8  14
ENDBRANCH   6   7
ENDBRANCH   1   6
BRANCH   1  16
HETATM   16  C10 UNL     1      22.347  -1.174  53.191  1.00  0.00     0.155 C 
BRANCH  16  17
HETATM   17  P1  UNL     1      20.745  -0.909  54.125  1.00  0.00    -0.122 P 
HETATM   18  H14 UNL     1      19.826  -0.111  53.312  1.00  0.00     0.056 HD
HETATM   19  H15 UNL     1      20.967  -0.199  55.378  1.00  0.00     0.056 HD
ENDBRANCH  16  17
ENDBRANCH   1  16
BRANCH   4  20
HETATM   20  C12 UNL     1      26.525   0.599  53.464  1.00  0.00     0.036 A 
HETATM   21  C13 UNL     1      27.125  -0.139  52.464  1.00  0.00     0.029 A 
HETATM   22  C14 UNL     1      28.319  -0.757  52.777  1.00  0.00     0.002 A 
HETATM   23  C15 UNL     1      28.818  -0.592  54.054  1.00  0.00     0.000 A 
HETATM   24  C16 UNL     1      28.225   0.144  55.061  1.00  0.00     0.002 A 
HETATM   25  C17 UNL     1      27.029   0.759  54.736  1.00  0.00     0.029 A 
ENDBRANCH   4  20
TORSDOF 6
ENDMDL
MODEL 4
REMARK VINA RESULT:      -6.6      2.542      4.276
REMARK  6 active torsions:
REMARK  status: ('A' for Active; 'I' for Inactive)
REMARK    1  A    between atoms: O1_2  and  C2_3 
REMARK    2  A    between atoms: C8_9  and  C9_10 
REMARK    3  A    between atoms: C9_10  and  N1_11 
REMARK    4  A    between atoms: N1_11  and  C10_12 
REMARK       I    between atoms: N1_11  and  C11_14 
REMARK    5  A    between atoms: C10_12  and  P1_13 
REMARK       I    between atoms: C11_14  and  N2_16 
REMARK    6  A    between atoms: N2_16  and  C12_17 
ROOT
HETATM    1  N1  UNL     1      24.787   3.244  51.241  1.00  0.00    -0.326 N 
HETATM    2  C11 UNL     1      25.755   2.467  51.942  1.00  0.00     0.323 C 
HETATM    3  O2  UNL     1      25.829   2.431  53.224  1.00  0.00    -0.247 OA
HETATM    4  N2  UNL     1      26.792   1.614  51.413  1.00  0.00    -0.309 N 
HETATM    5  H16 UNL     1      26.804   1.582  50.366  1.00  0.00     0.170 HD
ENDROOT
BRANCH   1   6
HETATM    6  C9  UNL     1      24.589   3.378  49.814  1.00  0.00     0.169 C 
BRANCH   6   7
HETATM    7  C8  UNL     1      25.517   4.400  49.303  1.00  0.00    -0.006 A 
HETATM    8  C2  UNL     1      25.089   5.662  48.958  1.00  0.00     0.082 A 
HETATM    9  C3  UNL     1      25.934   6.659  48.460  1.00  0.00    -0.028 A 
HETATM   10  C4  UNL     1      25.383   8.010  48.113  1.00  0.00     0.051 C 
HETATM   11  C5  UNL     1      27.253   6.309  48.325  1.00  0.00     0.009 A 
HETATM   12  C6  UNL     1      27.737   5.068  48.652  1.00  0.00     0.001 A 
HETATM   13  C7  UNL     1      26.841   4.140  49.137  1.00  0.00     0.012 A 
BRANCH   8  14
HETATM   14  O1  UNL     1      23.758   6.010  49.098  1.00  0.00    -0.355 OA
HETATM   15  C1  UNL     1      22.805   5.709  48.105  1.00  0.00     0.210 C 
ENDBRANCH   8  14
ENDBRANCH   6   7
ENDBRANCH   1   6
BRANCH   1  16
HETATM   16  C10 UNL     1      23.881   3.991  52.092  1.00  0.00     0.155 C 
BRANCH  16  17
HETATM   17  P1  UNL     1      22.148   3.545  51.537  1.00  0.00    -0.122 P 
HETATM   18  H14 UNL     1      21.960   2.096  51.624  1.00  0.00     0.056 HD
HETATM   19  H15 UNL     1      21.909   3.946  50.157  1.00  0.00     0.056 HD
ENDBRANCH  16  17
ENDBRANCH   1  16
BRANCH   4  20
HETATM   20  C12 UNL     1      27.388   1.151  52.648  1.00  0.00     0.036 A 
HETATM   21  C13 UNL     1      26.899  -0.007  53.219  1.00  0.00     0.029 A 
HETATM   22  C14 UNL     1      27.501  -0.427  54.389  1.00  0.00     0.002 A 
HETATM   23  C15 UNL     1      28.535   0.336  54.894  1.00  0.00     0.000 A 
HETATM   24  C16 UNL     1      29.030   1.494  54.331  1.00  0.00     0.002 A 
HETATM   25  C17 UNL     1      28.421   1.905  53.159  1.00  0.00     0.029 A 
ENDBRANCH   4  20
TORSDOF 6
ENDMDL
MODEL 5
REMARK VINA RESULT:      -6.6      2.672      5.021
REMARK  6 active torsions:
REMARK  status: ('A' for Active; 'I' for Inactive)
REMARK    1  A    between atoms: O1_2  and  C2_3 
REMARK    2  A    between atoms: C8_9  and  C9_10 
REMARK    3  A    between atoms: C9_10  and  N1_11 
REMARK    4  A    between atoms: N1_11  and  C10_12 
REMARK       I    between atoms: N1_11  and  C11_14 
REMARK    5  A    between atoms: C10_12  and  P1_13 
REMARK       I    between atoms: C11_14  and  N2_16 
REMARK    6  A    between atoms: N2_16  and  C12_17 
ROOT
HETATM    1  N1  UNL     1      22.827   2.927  50.667  1.00  0.00    -0.326 N 
HETATM    2  C11 UNL     1      23.940   3.725  50.269  1.00  0.00     0.323 C 
HETATM    3  O2  UNL     1      24.378   3.762  49.062  1.00  0.00    -0.247 OA
HETATM    4  N2  UNL     1      24.761   4.602  51.068  1.00  0.00    -0.309 N 
HETATM    5  H16 UNL     1      24.471   4.635  52.074  1.00  0.00     0.170 HD
ENDROOT
BRANCH   1   6
HETATM    6  C9  UNL     1      22.229   2.790  51.977  1.00  0.00     0.169 C 
BRANCH   6   7
HETATM    7  C8  UNL     1      22.761   1.573  52.613  1.00  0.00    -0.006 A 
HETATM    8  C2  UNL     1      21.935   0.633  53.187  1.00  0.00     0.082 A 
HETATM    9  C3  UNL     1      22.398  -0.530  53.810  1.00  0.00    -0.028 A 
HETATM   10  C4  UNL     1      21.425  -1.503  54.407  1.00  0.00     0.051 C 
HETATM   11  C5  UNL     1      23.759  -0.697  53.824  1.00  0.00     0.009 A 
HETATM   12  C6  UNL     1      24.630   0.205  53.269  1.00  0.00     0.001 A 
HETATM   13  C7  UNL     1      24.097   1.326  52.673  1.00  0.00     0.012 A 
BRANCH   8  14
HETATM   14  O1  UNL     1      20.563   0.806  53.169  1.00  0.00    -0.355 OA
HETATM   15  C1  UNL     1      19.779   0.410  52.067  1.00  0.00     0.210 C 
ENDBRANCH   8  14
ENDBRANCH   6   7
ENDBRANCH   1   6
BRANCH   1  16
HETATM   16  C10 UNL     1      22.222   2.160  49.596  1.00  0.00     0.155 C 
BRANCH  16  17
HETATM   17  P1  UNL     1      20.587   2.991  49.211  1.00  0.00    -0.122 P 
HETATM   18  H14 UNL     1      20.821   4.381  48.818  1.00  0.00     0.056 HD
HETATM   19  H15 UNL     1      19.703   2.996  50.370  1.00  0.00     0.056 HD
ENDBRANCH  16  17
ENDBRANCH   1  16
BRANCH   4  20
HETATM   20  C12 UNL     1      25.678   5.078  50.054  1.00  0.00     0.036 A 
HETATM   21  C13 UNL     1      25.476   6.337  49.525  1.00  0.00     0.029 A 
HETATM   22  C14 UNL     1      26.377   6.763  48.570  1.00  0.00     0.002 A 
HETATM   23  C15 UNL     1      27.402   5.907  48.220  1.00  0.00     0.000 A 
HETATM   24  C16 UNL     1      27.612   4.647  48.742  1.00  0.00     0.002 A 
HETATM   25  C17 UNL     1      26.703   4.230  49.698  1.00  0.00     0.029 A 
ENDBRANCH   4  20
TORSDOF 6
ENDMDL
MODEL 6
REMARK VINA RESULT:      -6.5      2.153      3.287
REMARK  6 active torsions:
REMARK  status: ('A' for Active; 'I' for Inactive)
REMARK    1  A    between atoms: O1_2  and  C2_3 
REMARK    2  A    between atoms: C8_9  and  C9_10 
REMARK    3  A    between atoms: C9_10  and  N1_11 
REMARK    4  A    between atoms: N1_11  and  C10_12 
REMARK       I    between atoms: N1_11  and  C11_14 
REMARK    5  A    between atoms: C10_12  and  P1_13 
REMARK       I    between atoms: C11_14  and  N2_16 
REMARK    6  A    between atoms: N2_16  and  C12_17 
ROOT
HETATM    1  N1  UNL     1      24.660   1.821  52.245  1.00  0.00    -0.326 N 
HETATM    2  C11 UNL     1      25.808   1.099  52.688  1.00  0.00     0.323 C 
HETATM    3  O2  UNL     1      26.760   0.749  51.901  1.00  0.00    -0.247 OA
HETATM    4  N2  UNL     1      26.133   0.635  54.015  1.00  0.00    -0.309 N 
HETATM    5  H16 UNL     1      25.405   0.881  54.727  1.00  0.00     0.170 HD
ENDROOT
BRANCH   1   6
HETATM    6  C9  UNL     1      23.522   2.278  53.012  1.00  0.00     0.169 C 
BRANCH   6   7
HETATM    7  C8  UNL     1      22.531   1.191  53.078  1.00  0.00    -0.006 A 
HETATM    8  C2  UNL     1      21.352   1.239  52.367  1.00  0.00     0.082 A 
HETATM    9  C3  UNL     1      20.380   0.234  52.409  1.00  0.00    -0.028 A 
HETATM   10  C4  UNL     1      19.125   0.367  51.598  1.00  0.00     0.051 C 
HETATM   11  C5  UNL     1      20.663  -0.836  53.218  1.00  0.00     0.009 A 
HETATM   12  C6  UNL     1      21.819  -0.938  53.949  1.00  0.00     0.001 A 
HETATM   13  C7  UNL     1      22.728   0.092  53.854  1.00  0.00     0.012 A 
BRANCH   8  14
HETATM   14  O1  UNL     1      21.072   2.320  51.553  1.00  0.00    -0.355 OA
HETATM   15  C1  UNL     1      20.479   3.495  52.056  1.00  0.00     0.210 C 
ENDBRANCH   8  14
ENDBRANCH   6   7
ENDBRANCH   1   6
BRANCH   1  16
HETATM   16  C10 UNL     1      24.654   2.135  50.830  1.00  0.00     0.155 C 
BRANCH  16  17
HETATM   17  P1  UNL     1      24.325   3.975  50.700  1.00  0.00    -0.122 P 
HETATM   18  H14 UNL     1      24.410   4.394  49.301  1.00  0.00     0.056 HD
HETATM   19  H15 UNL     1      25.300   4.748  51.459  1.00  0.00     0.056 HD
ENDBRANCH  16  17
ENDBRANCH   1  16
BRANCH   4  20
HETATM   20  C12 UNL     1      27.405  -0.003  53.751  1.00  0.00     0.036 A 
HETATM   21  C13 UNL     1      27.404  -1.304  53.289  1.00  0.00     0.029 A 
HETATM   22  C14 UNL     1      28.635  -1.875  53.035  1.00  0.00     0.002 A 
HETATM   23  C15 UNL     1      29.762  -1.110  53.259  1.00  0.00     0.000 A 
HETATM   24  C16 UNL     1      29.773   0.190  53.722  1.00  0.00     0.002 A 
HETATM   25  C17 UNL     1      28.535   0.753  53.973  1.00  0.00     0.029 A 
ENDBRANCH   4  20
TORSDOF 6
ENDMDL
MODEL 7
REMARK VINA RESULT:      -6.1      1.454      2.417
REMARK  6 active torsions:
REMARK  status: ('A' for Active; 'I' for Inactive)
REMARK    1  A    between atoms: O1_2  and  C2_3 
REMARK    2  A    between atoms: C8_9  and  C9_10 
REMARK    3  A    between atoms: C9_10  and  N1_11 
REMARK    4  A    between atoms: N1_11  and  C10_12 
REMARK       I    between atoms: N1_11  and  C11_14 
REMARK    5  A    between atoms: C10_12  and  P1_13 
REMARK       I    between atoms: C11_14  and  N2_16 
REMARK    6  A    between atoms: N2_16  and  C12_17 
ROOT
HETATM    1  N1  UNL     1      25.415   3.764  50.394  1.00  0.00    -0.326 N 
HETATM    2  C11 UNL     1      26.038   2.852  51.295  1.00  0.00     0.323 C 
HETATM    3  O2  UNL     1      27.247   2.443  51.153  1.00  0.00    -0.247 OA
HETATM    4  N2  UNL     1      25.494   2.230  52.479  1.00  0.00    -0.309 N 
HETATM    5  H16 UNL     1      24.504   2.511  52.674  1.00  0.00     0.170 HD
ENDROOT
BRANCH   1   6
HETATM    6  C9  UNL     1      24.074   4.306  50.430  1.00  0.00     0.169 C 
BRANCH   6   7
HETATM    7  C8  UNL     1      23.197   3.449  49.616  1.00  0.00    -0.006 A 
HETATM    8  C2  UNL     1      22.748   3.841  48.374  1.00  0.00     0.082 A 
HETATM    9  C3  UNL     1      21.906   3.064  47.573  1.00  0.00    -0.028 A 
HETATM   10  C4  UNL     1      21.468   3.568  46.230  1.00  0.00     0.051 C 
HETATM   11  C5  UNL     1      21.535   1.853  48.098  1.00  0.00     0.009 A 
HETATM   12  C6  UNL     1      21.950   1.410  49.328  1.00  0.00     0.001 A 
HETATM   13  C7  UNL     1      22.779   2.233  50.057  1.00  0.00     0.012 A 
BRANCH   8  14
HETATM   14  O1  UNL     1      23.126   5.063  47.850  1.00  0.00    -0.355 OA
HETATM   15  C1  UNL     1      22.408   6.244  48.124  1.00  0.00     0.210 C 
ENDBRANCH   8  14
ENDBRANCH   6   7
ENDBRANCH   1   6
BRANCH   1  16
HETATM   16  C10 UNL     1      26.260   4.201  49.299  1.00  0.00     0.155 C 
BRANCH  16  17
HETATM   17  P1  UNL     1      26.179   6.073  49.287  1.00  0.00    -0.122 P 
HETATM   18  H14 UNL     1      24.955   6.510  48.613  1.00  0.00     0.056 HD
HETATM   19  H15 UNL     1      27.312   6.653  48.577  1.00  0.00     0.056 HD
ENDBRANCH  16  17
ENDBRANCH   1  16
BRANCH   4  20
HETATM   20  C12 UNL     1      26.637   1.447  52.896  1.00  0.00     0.036 A 
HETATM   21  C13 UNL     1      26.679   0.110  52.550  1.00  0.00     0.029 A 
HETATM   22  C14 UNL     1      27.790  -0.603  52.953  1.00  0.00     0.002 A 
HETATM   23  C15 UNL     1      28.767   0.067  53.664  1.00  0.00     0.000 A 
HETATM   24  C16 UNL     1      28.734   1.402  54.015  1.00  0.00     0.002 A 
HETATM   25  C17 UNL     1      27.616   2.107  53.606  1.00  0.00     0.029 A 
ENDBRANCH   4  20
TORSDOF 6
ENDMDL
MODEL 8
REMARK VINA RESULT:      -6.1      2.515      5.122
REMARK  6 active torsions:
REMARK  status: ('A' for Active; 'I' for Inactive)
REMARK    1  A    between atoms: O1_2  and  C2_3 
REMARK    2  A    between atoms: C8_9  and  C9_10 
REMARK    3  A    between atoms: C9_10  and  N1_11 
REMARK    4  A    between atoms: N1_11  and  C10_12 
REMARK       I    between atoms: N1_11  and  C11_14 
REMARK    5  A    between atoms: C10_12  and  P1_13 
REMARK       I    between atoms: C11_14  and  N2_16 
REMARK    6  A    between atoms: N2_16  and  C12_17 
ROOT
HETATM    1  N1  UNL     1      22.717   3.279  50.834  1.00  0.00    -0.326 N 
HETATM    2  C11 UNL     1      23.883   3.974  50.398  1.00  0.00     0.323 C 
HETATM    3  O2  UNL     1      24.226   4.061  49.164  1.00  0.00    -0.247 OA
HETATM    4  N2  UNL     1      24.866   4.681  51.184  1.00  0.00    -0.309 N 
HETATM    5  H16 UNL     1      24.663   4.663  52.211  1.00  0.00     0.170 HD
ENDROOT
BRANCH   1   6
HETATM    6  C9  UNL     1      22.213   3.103  52.178  1.00  0.00     0.169 C 
BRANCH   6   7
HETATM    7  C8  UNL     1      22.383   1.693  52.565  1.00  0.00    -0.006 A 
HETATM    8  C2  UNL     1      23.627   1.148  52.793  1.00  0.00     0.082 A 
HETATM    9  C3  UNL     1      23.835  -0.187  53.152  1.00  0.00    -0.028 A 
HETATM   10  C4  UNL     1      25.226  -0.697  53.386  1.00  0.00     0.051 C 
HETATM   11  C5  UNL     1      22.706  -0.956  53.268  1.00  0.00     0.009 A 
HETATM   12  C6  UNL     1      21.442  -0.469  53.052  1.00  0.00     0.001 A 
HETATM   13  C7  UNL     1      21.320   0.858  52.702  1.00  0.00     0.012 A 
BRANCH   8  14
HETATM   14  O1  UNL     1      24.763   1.928  52.676  1.00  0.00    -0.355 OA
HETATM   15  C1  UNL     1      25.420   2.457  53.805  1.00  0.00     0.210 C 
ENDBRANCH   8  14
ENDBRANCH   6   7
ENDBRANCH   1   6
BRANCH   1  16
HETATM   16  C10 UNL     1      21.939   2.679  49.767  1.00  0.00     0.155 C 
BRANCH  16  17
HETATM   17  P1  UNL     1      20.421   3.756  49.551  1.00  0.00    -0.122 P 
HETATM   18  H14 UNL     1      20.112   3.893  48.128  1.00  0.00     0.056 HD
HETATM   19  H15 UNL     1      20.632   5.092  50.095  1.00  0.00     0.056 HD
ENDBRANCH  16  17
ENDBRANCH   1  16
BRANCH   4  20
HETATM   20  C12 UNL     1      25.751   5.130  50.130  1.00  0.00     0.036 A 
HETATM   21  C13 UNL     1      26.724   4.263  49.676  1.00  0.00     0.029 A 
HETATM   22  C14 UNL     1      27.541   4.720  48.660  1.00  0.00     0.002 A 
HETATM   23  C15 UNL     1      27.325   5.997  48.181  1.00  0.00     0.000 A 
HETATM   24  C16 UNL     1      26.355   6.871  48.630  1.00  0.00     0.002 A 
HETATM   25  C17 UNL     1      25.543   6.403  49.647  1.00  0.00     0.029 A 
ENDBRANCH   4  20
TORSDOF 6
ENDMDL
MODEL 9
REMARK VINA RESULT:      -6.0      2.277      3.439
REMARK  6 active torsions:
REMARK  status: ('A' for Active; 'I' for Inactive)
REMARK    1  A    between atoms: O1_2  and  C2_3 
REMARK    2  A    between atoms: C8_9  and  C9_10 
REMARK    3  A    between atoms: C9_10  and  N1_11 
REMARK    4  A    between atoms: N1_11  and  C10_12 
REMARK       I    between atoms: N1_11  and  C11_14 
REMARK    5  A    between atoms: C10_12  and  P1_13 
REMARK       I    between atoms: C11_14  and  N2_16 
REMARK    6  A    between atoms: N2_16  and  C12_17 
ROOT
HETATM    1  N1  UNL     1      23.686   2.072  52.165  1.00  0.00    -0.326 N 
HETATM    2  C11 UNL     1      24.996   1.734  52.614  1.00  0.00     0.323 C 
HETATM    3  O2  UNL     1      25.640   2.429  53.480  1.00  0.00    -0.247 OA
HETATM    4  N2  UNL     1      25.829   0.620  52.229  1.00  0.00    -0.309 N 
HETATM    5  H16 UNL     1      25.378  -0.007  51.522  1.00  0.00     0.170 HD
ENDROOT
BRANCH   1   6
HETATM    6  C9  UNL     1      22.849   1.386  51.205  1.00  0.00     0.169 C 
BRANCH   6   7
HETATM    7  C8  UNL     1      21.821   0.624  51.935  1.00  0.00    -0.006 A 
HETATM    8  C2  UNL     1      20.482   0.737  51.634  1.00  0.00     0.082 A 
HETATM    9  C3  UNL     1      19.475   0.041  52.308  1.00  0.00    -0.028 A 
HETATM   10  C4  UNL     1      18.040   0.221  51.910  1.00  0.00     0.051 C 
HETATM   11  C5  UNL     1      19.894  -0.786  53.318  1.00  0.00     0.009 A 
HETATM   12  C6  UNL     1      21.213  -0.938  53.663  1.00  0.00     0.001 A 
HETATM   13  C7  UNL     1      22.147  -0.218  52.951  1.00  0.00     0.012 A 
BRANCH   8  14
HETATM   14  O1  UNL     1      20.065   1.572  50.614  1.00  0.00    -0.355 OA
HETATM   15  C1  UNL     1      20.371   1.305  49.264  1.00  0.00     0.210 C 
ENDBRANCH   8  14
ENDBRANCH   6   7
ENDBRANCH   1   6
BRANCH   1  16
HETATM   16  C10 UNL     1      23.132   3.269  52.768  1.00  0.00     0.155 C 
BRANCH  16  17
HETATM   17  P1  UNL     1      22.630   4.388  51.351  1.00  0.00    -0.122 P 
HETATM   18  H14 UNL     1      23.683   4.401  50.336  1.00  0.00     0.056 HD
HETATM   19  H15 UNL     1      22.424   5.760  51.800  1.00  0.00     0.056 HD
ENDBRANCH  16  17
ENDBRANCH   1  16
BRANCH   4  20
HETATM   20  C12 UNL     1      26.992   0.884  53.049  1.00  0.00     0.036 A 
HETATM   21  C13 UNL     1      27.761   1.994  52.760  1.00  0.00     0.029 A 
HETATM   22  C14 UNL     1      28.855   2.222  53.572  1.00  0.00     0.002 A 
HETATM   23  C15 UNL     1      29.094   1.333  54.601  1.00  0.00     0.000 A 
HETATM   24  C16 UNL     1      28.332   0.221  54.897  1.00  0.00     0.002 A 
HETATM   25  C17 UNL     1      27.238   0.001  54.078  1.00  0.00     0.029 A 
ENDBRANCH   4  20
TORSDOF 6
ENDMDL
