MODEL 1
REMARK VINA RESULT:      -9.1      0.000      0.000
REMARK  9 active torsions:
REMARK  status: ('A' for Active; 'I' for Inactive)
REMARK    1  A    between atoms: C2_2  and  C4_4 
REMARK    2  A    between atoms: C5_5  and  C6_6 
REMARK       I    between atoms: C6_6  and  N1_8 
REMARK    3  A    between atoms: N1_8  and  C7_9 
REMARK    4  A    between atoms: C8_10  and  C9_11 
REMARK    5  A    between atoms: C10_12  and  C11_13 
REMARK    6  A    between atoms: C11_13  and  O2_14 
REMARK    7  A    between atoms: O2_14  and  C12_15 
REMARK    8  A    between atoms: C15_19  and  N2_20 
REMARK    9  A    between atoms: C17_24  and  C18_25 
ROOT
HETATM    1  C9  UNL     1      23.187   0.745  53.042  1.00  0.00     0.022 A 
HETATM    2  C10 UNL     1      21.872   0.527  53.389  1.00  0.00     0.072 A 
HETATM    3  N3  UNL     1      21.660  -0.393  54.313  1.00  0.00    -0.243 NA
HETATM    4  C16 UNL     1      22.623  -1.096  54.903  1.00  0.00     0.234 A 
HETATM    5  N4  UNL     1      23.897  -0.884  54.567  1.00  0.00    -0.240 NA
HETATM    6  C17 UNL     1      24.218   0.049  53.621  1.00  0.00     0.080 A 
ENDROOT
BRANCH   1   7
HETATM    7  C8  UNL     1      23.619   1.694  52.044  1.00  0.00     0.033 C 
HETATM    8  C7  UNL     1      23.778   2.038  50.789  1.00  0.00     0.092 C 
BRANCH   8   9
HETATM    9  N1  UNL     1      24.324   3.244  50.272  1.00  0.00    -0.334 N 
HETATM   10  C6  UNL     1      25.720   3.564  50.145  1.00  0.00     0.244 C 
HETATM   11  O1  UNL     1      26.565   2.732  50.505  1.00  0.00    -0.268 OA
HETATM   12  H10 UNL     1      23.663   3.987  49.946  1.00  0.00     0.168 HD
BRANCH  10  13
HETATM   13  C5  UNL     1      26.206   4.826  49.609  1.00  0.00     0.071 C 
HETATM   14  C4  UNL     1      27.249   4.722  48.805  1.00  0.00    -0.017 C 
BRANCH  14  15
HETATM   15  C2  UNL     1      27.897   5.890  48.156  1.00  0.00    -0.000 C 
HETATM   16  C1  UNL     1      27.376   7.211  48.668  1.00  0.00     0.013 C 
HETATM   17  C3  UNL     1      29.399   5.785  48.329  1.00  0.00     0.013 C 
ENDBRANCH  14  15
ENDBRANCH  10  13
ENDBRANCH   8   9
ENDBRANCH   1   7
BRANCH   2  18
HETATM   18  C11 UNL     1      20.839   1.313  52.710  1.00  0.00     0.228 C 
BRANCH  18  19
HETATM   19  O2  UNL     1      20.062   0.529  51.860  1.00  0.00    -0.375 OA
BRANCH  19  20
HETATM   20  C12 UNL     1      18.752   0.423  52.274  1.00  0.00     0.182 C 
HETATM   21  C13 UNL     1      17.856   0.751  51.073  1.00  0.00     0.063 C 
HETATM   22  C14 UNL     1      16.632  -0.039  51.457  1.00  0.00     0.173 C 
HETATM   23  O3  UNL     1      17.055  -1.183  52.108  1.00  0.00    -0.355 OA
HETATM   24  C15 UNL     1      18.349  -0.988  52.553  1.00  0.00     0.382 C 
BRANCH  24  25
HETATM   25  N2  UNL     1      18.446  -1.335  53.961  1.00  0.00     0.109 N 
HETATM   26  H21 UNL     1      18.262  -2.381  54.007  1.00  0.00     0.316 HD
HETATM   27  H22 UNL     1      17.604  -0.891  54.415  1.00  0.00     0.316 HD
ENDBRANCH  24  25
ENDBRANCH  19  20
ENDBRANCH  18  19
ENDBRANCH   2  18
BRANCH   6  28
HETATM   28  C18 UNL     1      25.653   0.052  53.490  1.00  0.00    -0.005 A 
HETATM   29  C19 UNL     1      26.331  -1.130  53.165  1.00  0.00     0.017 A 
HETATM   30  C20 UNL     1      27.696  -1.280  53.043  1.00  0.00     0.045 A 
HETATM   31  C21 UNL     1      28.440  -0.149  53.266  1.00  0.00     0.138 A 
HETATM   32  F1  UNL     1      29.787  -0.255  53.155  1.00  0.00    -0.204 F 
HETATM   33  C22 UNL     1      27.897   1.073  53.592  1.00  0.00     0.073 A 
HETATM   34 CL1  UNL     1      28.853   2.511  53.873  1.00  0.00    -0.081 Cl
HETATM   35  C23 UNL     1      26.528   1.098  53.684  1.00  0.00     0.041 A 
ENDBRANCH   6  28
TORSDOF 9
ENDMDL
MODEL 2
REMARK VINA RESULT:      -9.1      1.755      2.721
REMARK  9 active torsions:
REMARK  status: ('A' for Active; 'I' for Inactive)
REMARK    1  A    between atoms: C2_2  and  C4_4 
REMARK    2  A    between atoms: C5_5  and  C6_6 
REMARK       I    between atoms: C6_6  and  N1_8 
REMARK    3  A    between atoms: N1_8  and  C7_9 
REMARK    4  A    between atoms: C8_10  and  C9_11 
REMARK    5  A    between atoms: C10_12  and  C11_13 
REMARK    6  A    between atoms: C11_13  and  O2_14 
REMARK    7  A    between atoms: O2_14  and  C12_15 
REMARK    8  A    between atoms: C15_19  and  N2_20 
REMARK    9  A    between atoms: C17_24  and  C18_25 
ROOT
HETATM    1  C9  UNL     1      23.099   0.922  52.632  1.00  0.00     0.022 A 
HETATM    2  C10 UNL     1      21.757   0.771  52.901  1.00  0.00     0.072 A 
HETATM    3  N3  UNL     1      21.448  -0.103  53.844  1.00  0.00    -0.243 NA
HETATM    4  C16 UNL     1      22.342  -0.819  54.521  1.00  0.00     0.234 A 
HETATM    5  N4  UNL     1      23.642  -0.670  54.260  1.00  0.00    -0.240 NA
HETATM    6  C17 UNL     1      24.061   0.211  53.303  1.00  0.00     0.080 A 
ENDROOT
BRANCH   1   7
HETATM    7  C8  UNL     1      23.632   1.813  51.629  1.00  0.00     0.033 C 
HETATM    8  C7  UNL     1      23.993   2.053  50.393  1.00  0.00     0.092 C 
BRANCH   8   9
HETATM    9  N1  UNL     1      24.530   3.254  49.852  1.00  0.00    -0.334 N 
HETATM   10  C6  UNL     1      25.912   3.651  49.860  1.00  0.00     0.244 C 
HETATM   11  O1  UNL     1      26.753   2.899  50.373  1.00  0.00    -0.268 OA
HETATM   12  H10 UNL     1      23.872   3.931  49.399  1.00  0.00     0.168 HD
BRANCH  10  13
HETATM   13  C5  UNL     1      26.388   4.902  49.290  1.00  0.00     0.071 C 
HETATM   14  C4  UNL     1      27.574   4.832  48.712  1.00  0.00    -0.017 C 
BRANCH  14  15
HETATM   15  C2  UNL     1      28.238   5.996  48.072  1.00  0.00    -0.000 C 
HETATM   16  C1  UNL     1      27.666   7.319  48.521  1.00  0.00     0.013 C 
HETATM   17  C3  UNL     1      29.729   5.923  48.333  1.00  0.00     0.013 C 
ENDBRANCH  14  15
ENDBRANCH  10  13
ENDBRANCH   8   9
ENDBRANCH   1   7
BRANCH   2  18
HETATM   18  C11 UNL     1      20.803   1.569  52.128  1.00  0.00     0.228 C 
BRANCH  18  19
HETATM   19  O2  UNL     1      20.414   2.721  52.808  1.00  0.00    -0.375 OA
BRANCH  19  20
HETATM   20  C12 UNL     1      20.420   3.845  52.010  1.00  0.00     0.182 C 
HETATM   21  C13 UNL     1      21.728   4.600  52.280  1.00  0.00     0.063 C 
HETATM   22  C14 UNL     1      21.883   5.303  50.956  1.00  0.00     0.173 C 
HETATM   23  O3  UNL     1      21.396   4.462  49.973  1.00  0.00    -0.355 OA
HETATM   24  C15 UNL     1      20.572   3.521  50.560  1.00  0.00     0.382 C 
BRANCH  24  25
HETATM   25  N2  UNL     1      19.302   3.468  49.857  1.00  0.00     0.109 N 
HETATM   26  H21 UNL     1      18.872   4.432  49.976  1.00  0.00     0.316 HD
HETATM   27  H22 UNL     1      18.693   2.826  50.432  1.00  0.00     0.316 HD
ENDBRANCH  24  25
ENDBRANCH  19  20
ENDBRANCH  18  19
ENDBRANCH   2  18
BRANCH   6  28
HETATM   28  C18 UNL     1      25.501   0.152  53.265  1.00  0.00    -0.005 A 
HETATM   29  C19 UNL     1      26.148  -1.068  53.028  1.00  0.00     0.017 A 
HETATM   30  C20 UNL     1      27.511  -1.276  53.000  1.00  0.00     0.045 A 
HETATM   31  C21 UNL     1      28.286  -0.168  53.230  1.00  0.00     0.138 A 
HETATM   32  F1  UNL     1      29.631  -0.331  53.210  1.00  0.00    -0.204 F 
HETATM   33  C22 UNL     1      27.775   1.087  53.475  1.00  0.00     0.073 A 
HETATM   34 CL1  UNL     1      28.770   2.495  53.765  1.00  0.00    -0.081 Cl
HETATM   35  C23 UNL     1      26.404   1.169  53.477  1.00  0.00     0.041 A 
ENDBRANCH   6  28
TORSDOF 9
ENDMDL
MODEL 3
REMARK VINA RESULT:      -9.1      1.787      2.626
REMARK  9 active torsions:
REMARK  status: ('A' for Active; 'I' for Inactive)
REMARK    1  A    between atoms: C2_2  and  C4_4 
REMARK    2  A    between atoms: C5_5  and  C6_6 
REMARK       I    between atoms: C6_6  and  N1_8 
REMARK    3  A    between atoms: N1_8  and  C7_9 
REMARK    4  A    between atoms: C8_10  and  C9_11 
REMARK    5  A    between atoms: C10_12  and  C11_13 
REMARK    6  A    between atoms: C11_13  and  O2_14 
REMARK    7  A    between atoms: O2_14  and  C12_15 
REMARK    8  A    between atoms: C15_19  and  N2_20 
REMARK    9  A    between atoms: C17_24  and  C18_25 
ROOT
HETATM    1  C9  UNL     1      23.344   0.863  53.118  1.00  0.00     0.022 A 
HETATM    2  C10 UNL     1      21.991   0.798  53.367  1.00  0.00     0.072 A 
HETATM    3  N3  UNL     1      21.585  -0.221  54.105  1.00  0.00    -0.243 NA
HETATM    4  C16 UNL     1      22.393  -1.154  54.600  1.00  0.00     0.234 A 
HETATM    5  N4  UNL     1      23.704  -1.089  54.358  1.00  0.00    -0.240 NA
HETATM    6  C17 UNL     1      24.221  -0.071  53.606  1.00  0.00     0.080 A 
ENDROOT
BRANCH   1   7
HETATM    7  C8  UNL     1      23.975   1.889  52.321  1.00  0.00     0.033 C 
HETATM    8  C7  UNL     1      24.502   3.083  52.210  1.00  0.00     0.092 C 
BRANCH   8   9
HETATM    9  N1  UNL     1      25.053   3.695  51.050  1.00  0.00    -0.334 N 
HETATM   10  C6  UNL     1      26.346   3.433  50.479  1.00  0.00     0.244 C 
HETATM   11  O1  UNL     1      27.084   2.594  51.015  1.00  0.00    -0.268 OA
HETATM   12  H10 UNL     1      24.477   4.411  50.547  1.00  0.00     0.168 HD
BRANCH  10  13
HETATM   13  C5  UNL     1      26.846   4.104  49.289  1.00  0.00     0.071 C 
HETATM   14  C4  UNL     1      26.593   5.399  49.235  1.00  0.00    -0.017 C 
BRANCH  14  15
HETATM   15  C2  UNL     1      27.017   6.266  48.105  1.00  0.00    -0.000 C 
HETATM   16  C1  UNL     1      26.380   7.633  48.143  1.00  0.00     0.013 C 
HETATM   17  C3  UNL     1      28.529   6.362  48.094  1.00  0.00     0.013 C 
ENDBRANCH  14  15
ENDBRANCH  10  13
ENDBRANCH   8   9
ENDBRANCH   1   7
BRANCH   2  18
HETATM   18  C11 UNL     1      21.132   1.838  52.796  1.00  0.00     0.228 C 
BRANCH  18  19
HETATM   19  O2  UNL     1      20.474   1.399  51.649  1.00  0.00    -0.375 OA
BRANCH  19  20
HETATM   20  C12 UNL     1      20.560   2.294  50.603  1.00  0.00     0.182 C 
HETATM   21  C13 UNL     1      20.929   3.662  51.191  1.00  0.00     0.063 C 
HETATM   22  C14 UNL     1      21.621   4.263  49.995  1.00  0.00     0.173 C 
HETATM   23  O3  UNL     1      22.284   3.245  49.336  1.00  0.00    -0.355 OA
HETATM   24  C15 UNL     1      21.737   2.036  49.721  1.00  0.00     0.382 C 
BRANCH  24  25
HETATM   25  N2  UNL     1      21.401   1.248  48.547  1.00  0.00     0.109 N 
HETATM   26  H21 UNL     1      20.787   1.876  47.951  1.00  0.00     0.316 HD
HETATM   27  H22 UNL     1      20.757   0.490  48.897  1.00  0.00     0.316 HD
ENDBRANCH  24  25
ENDBRANCH  19  20
ENDBRANCH  18  19
ENDBRANCH   2  18
BRANCH   6  28
HETATM   28  C18 UNL     1      25.646  -0.270  53.536  1.00  0.00    -0.005 A 
HETATM   29  C19 UNL     1      26.170  -1.372  52.846  1.00  0.00     0.017 A 
HETATM   30  C20 UNL     1      27.503  -1.702  52.729  1.00  0.00     0.045 A 
HETATM   31  C21 UNL     1      28.382  -0.857  53.357  1.00  0.00     0.138 A 
HETATM   32  F1  UNL     1      29.703  -1.147  53.264  1.00  0.00    -0.204 F 
HETATM   33  C22 UNL     1      27.998   0.258  54.067  1.00  0.00     0.073 A 
HETATM   34 CL1  UNL     1      29.125   1.333  54.863  1.00  0.00    -0.081 Cl
HETATM   35  C23 UNL     1      26.644   0.484  54.111  1.00  0.00     0.041 A 
ENDBRANCH   6  28
TORSDOF 9
ENDMDL
MODEL 4
REMARK VINA RESULT:      -8.9      3.738      6.925
REMARK  9 active torsions:
REMARK  status: ('A' for Active; 'I' for Inactive)
REMARK    1  A    between atoms: C2_2  and  C4_4 
REMARK    2  A    between atoms: C5_5  and  C6_6 
REMARK       I    between atoms: C6_6  and  N1_8 
REMARK    3  A    between atoms: N1_8  and  C7_9 
REMARK    4  A    between atoms: C8_10  and  C9_11 
REMARK    5  A    between atoms: C10_12  and  C11_13 
REMARK    6  A    between atoms: C11_13  and  O2_14 
REMARK    7  A    between atoms: O2_14  and  C12_15 
REMARK    8  A    between atoms: C15_19  and  N2_20 
REMARK    9  A    between atoms: C17_24  and  C18_25 
ROOT
HETATM    1  C9  UNL     1      23.877   0.406  53.367  1.00  0.00     0.022 A 
HETATM    2  C10 UNL     1      24.870  -0.215  54.092  1.00  0.00     0.072 A 
HETATM    3  N3  UNL     1      24.467  -1.051  55.033  1.00  0.00    -0.243 NA
HETATM    4  C16 UNL     1      23.191  -1.311  55.304  1.00  0.00     0.234 A 
HETATM    5  N4  UNL     1      22.230  -0.710  54.600  1.00  0.00    -0.240 NA
HETATM    6  C17 UNL     1      22.547   0.171  53.604  1.00  0.00     0.080 A 
ENDROOT
BRANCH   1   7
HETATM    7  C8  UNL     1      24.116   1.362  52.312  1.00  0.00     0.033 C 
HETATM    8  C7  UNL     1      24.186   1.660  51.038  1.00  0.00     0.092 C 
BRANCH   8   9
HETATM    9  N1  UNL     1      24.505   2.913  50.446  1.00  0.00    -0.334 N 
HETATM   10  C6  UNL     1      25.813   3.364  50.053  1.00  0.00     0.244 C 
HETATM   11  O1  UNL     1      26.785   2.616  50.223  1.00  0.00    -0.268 OA
HETATM   12  H10 UNL     1      23.726   3.591  50.271  1.00  0.00     0.168 HD
BRANCH  10  13
HETATM   13  C5  UNL     1      26.064   4.666  49.456  1.00  0.00     0.071 C 
HETATM   14  C4  UNL     1      27.239   4.788  48.865  1.00  0.00    -0.017 C 
BRANCH  14  15
HETATM   15  C2  UNL     1      27.690   6.036  48.197  1.00  0.00    -0.000 C 
HETATM   16  C1  UNL     1      27.208   7.284  48.897  1.00  0.00     0.013 C 
HETATM   17  C3  UNL     1      29.200   6.018  48.080  1.00  0.00     0.013 C 
ENDBRANCH  14  15
ENDBRANCH  10  13
ENDBRANCH   8   9
ENDBRANCH   1   7
BRANCH   2  18
HETATM   18  C11 UNL     1      26.263   0.106  53.771  1.00  0.00     0.228 C 
BRANCH  18  19
HETATM   19  O2  UNL     1      26.974   0.523  54.895  1.00  0.00    -0.375 OA
BRANCH  19  20
HETATM   20  C12 UNL     1      28.316   0.213  54.828  1.00  0.00     0.182 C 
HETATM   21  C13 UNL     1      28.463  -1.031  53.944  1.00  0.00     0.063 C 
HETATM   22  C14 UNL     1      29.866  -0.810  53.441  1.00  0.00     0.173 C 
HETATM   23  O3  UNL     1      30.050   0.551  53.292  1.00  0.00    -0.355 OA
HETATM   24  C15 UNL     1      29.099   1.214  54.045  1.00  0.00     0.382 C 
BRANCH  24  25
HETATM   25  N2  UNL     1      29.739   2.214  54.882  1.00  0.00     0.109 N 
HETATM   26  H21 UNL     1      29.147   3.090  54.780  1.00  0.00     0.316 HD
HETATM   27  H22 UNL     1      30.648   2.441  54.399  1.00  0.00     0.316 HD
ENDBRANCH  24  25
ENDBRANCH  19  20
ENDBRANCH  18  19
ENDBRANCH   2  18
BRANCH   6  28
HETATM   28  C18 UNL     1      21.309   0.636  53.032  1.00  0.00    -0.005 A 
HETATM   29  C19 UNL     1      20.270  -0.269  52.773  1.00  0.00     0.017 A 
HETATM   30  C20 UNL     1      19.053   0.030  52.199  1.00  0.00     0.045 A 
HETATM   31  C21 UNL     1      18.864   1.345  51.857  1.00  0.00     0.138 A 
HETATM   32  F1  UNL     1      17.679   1.679  51.290  1.00  0.00    -0.204 F 
HETATM   33  C22 UNL     1      19.804   2.331  52.057  1.00  0.00     0.073 A 
HETATM   34 CL1  UNL     1      19.554   4.006  51.620  1.00  0.00    -0.081 Cl
HETATM   35  C23 UNL     1      20.975   1.912  52.637  1.00  0.00     0.041 A 
ENDBRANCH   6  28
TORSDOF 9
ENDMDL
MODEL 5
REMARK VINA RESULT:      -8.7      1.525      2.102
REMARK  9 active torsions:
REMARK  status: ('A' for Active; 'I' for Inactive)
REMARK    1  A    between atoms: C2_2  and  C4_4 
REMARK    2  A    between atoms: C5_5  and  C6_6 
REMARK       I    between atoms: C6_6  and  N1_8 
REMARK    3  A    between atoms: N1_8  and  C7_9 
REMARK    4  A    between atoms: C8_10  and  C9_11 
REMARK    5  A    between atoms: C10_12  and  C11_13 
REMARK    6  A    between atoms: C11_13  and  O2_14 
REMARK    7  A    between atoms: O2_14  and  C12_15 
REMARK    8  A    between atoms: C15_19  and  N2_20 
REMARK    9  A    between atoms: C17_24  and  C18_25 
ROOT
HETATM    1  C9  UNL     1      23.254   0.427  53.408  1.00  0.00     0.022 A 
HETATM    2  C10 UNL     1      21.955   0.302  53.847  1.00  0.00     0.072 A 
HETATM    3  N3  UNL     1      21.746  -0.592  54.798  1.00  0.00    -0.243 NA
HETATM    4  C16 UNL     1      22.699  -1.352  55.331  1.00  0.00     0.234 A 
HETATM    5  N4  UNL     1      23.958  -1.229  54.906  1.00  0.00    -0.240 NA
HETATM    6  C17 UNL     1      24.274  -0.330  53.926  1.00  0.00     0.080 A 
ENDROOT
BRANCH   1   7
HETATM    7  C8  UNL     1      23.678   1.335  52.369  1.00  0.00     0.033 C 
HETATM    8  C7  UNL     1      23.635   1.744  51.124  1.00  0.00     0.092 C 
BRANCH   8   9
HETATM    9  N1  UNL     1      24.338   2.829  50.532  1.00  0.00    -0.334 N 
HETATM   10  C6  UNL     1      23.838   3.722  49.523  1.00  0.00     0.244 C 
HETATM   11  O1  UNL     1      22.682   3.571  49.103  1.00  0.00    -0.268 OA
HETATM   12  H10 UNL     1      25.320   3.013  50.847  1.00  0.00     0.168 HD
BRANCH  10  13
HETATM   13  C5  UNL     1      24.620   4.811  48.959  1.00  0.00     0.071 C 
HETATM   14  C4  UNL     1      25.831   4.946  49.467  1.00  0.00    -0.017 C 
BRANCH  14  15
HETATM   15  C2  UNL     1      26.786   5.995  49.029  1.00  0.00    -0.000 C 
HETATM   16  C1  UNL     1      28.038   5.428  48.405  1.00  0.00     0.013 C 
HETATM   17  C3  UNL     1      26.080   6.945  48.083  1.00  0.00     0.013 C 
ENDBRANCH  14  15
ENDBRANCH  10  13
ENDBRANCH   8   9
ENDBRANCH   1   7
BRANCH   2  18
HETATM   18  C11 UNL     1      20.932   1.148  53.228  1.00  0.00     0.228 C 
BRANCH  18  19
HETATM   19  O2  UNL     1      20.490   0.628  52.013  1.00  0.00    -0.375 OA
BRANCH  19  20
HETATM   20  C12 UNL     1      19.660   1.490  51.329  1.00  0.00     0.182 C 
HETATM   21  C13 UNL     1      18.214   1.059  51.604  1.00  0.00     0.063 C 
HETATM   22  C14 UNL     1      17.523   2.385  51.411  1.00  0.00     0.173 C 
HETATM   23  O3  UNL     1      18.377   3.374  51.861  1.00  0.00    -0.355 OA
HETATM   24  C15 UNL     1      19.662   2.868  51.902  1.00  0.00     0.382 C 
BRANCH  24  25
HETATM   25  N2  UNL     1      20.571   3.767  51.212  1.00  0.00     0.109 N 
HETATM   26  H21 UNL     1      20.365   3.637  50.177  1.00  0.00     0.316 HD
HETATM   27  H22 UNL     1      21.531   3.354  51.352  1.00  0.00     0.316 HD
ENDBRANCH  24  25
ENDBRANCH  19  20
ENDBRANCH  18  19
ENDBRANCH   2  18
BRANCH   6  28
HETATM   28  C18 UNL     1      25.694  -0.425  53.698  1.00  0.00    -0.005 A 
HETATM   29  C19 UNL     1      26.211  -1.460  52.907  1.00  0.00     0.017 A 
HETATM   30  C20 UNL     1      27.543  -1.692  52.637  1.00  0.00     0.045 A 
HETATM   31  C21 UNL     1      28.427  -0.811  53.206  1.00  0.00     0.138 A 
HETATM   32  F1  UNL     1      29.746  -1.004  52.962  1.00  0.00    -0.204 F 
HETATM   33  C22 UNL     1      28.049   0.247  54.001  1.00  0.00     0.073 A 
HETATM   34 CL1  UNL     1      29.183   1.367  54.722  1.00  0.00    -0.081 Cl
HETATM   35  C23 UNL     1      26.696   0.376  54.198  1.00  0.00     0.041 A 
ENDBRANCH   6  28
TORSDOF 9
ENDMDL
MODEL 6
REMARK VINA RESULT:      -8.7      4.105      6.837
REMARK  9 active torsions:
REMARK  status: ('A' for Active; 'I' for Inactive)
REMARK    1  A    between atoms: C2_2  and  C4_4 
REMARK    2  A    between atoms: C5_5  and  C6_6 
REMARK       I    between atoms: C6_6  and  N1_8 
REMARK    3  A    between atoms: N1_8  and  C7_9 
REMARK    4  A    between atoms: C8_10  and  C9_11 
REMARK    5  A    between atoms: C10_12  and  C11_13 
REMARK    6  A    between atoms: C11_13  and  O2_14 
REMARK    7  A    between atoms: O2_14  and  C12_15 
REMARK    8  A    between atoms: C15_19  and  N2_20 
REMARK    9  A    between atoms: C17_24  and  C18_25 
ROOT
HETATM    1  C9  UNL     1      24.325   0.939  52.325  1.00  0.00     0.022 A 
HETATM    2  C10 UNL     1      24.747  -0.166  53.031  1.00  0.00     0.072 A 
HETATM    3  N3  UNL     1      23.796  -0.911  53.566  1.00  0.00    -0.243 NA
HETATM    4  C16 UNL     1      22.496  -0.654  53.460  1.00  0.00     0.234 A 
HETATM    5  N4  UNL     1      22.088   0.417  52.774  1.00  0.00    -0.240 NA
HETATM    6  C17 UNL     1      22.996   1.248  52.182  1.00  0.00     0.080 A 
ENDROOT
BRANCH   1   7
HETATM    7  C8  UNL     1      25.210   1.881  51.682  1.00  0.00     0.033 C 
HETATM    8  C7  UNL     1      25.654   3.104  51.524  1.00  0.00     0.092 C 
BRANCH   8   9
HETATM    9  N1  UNL     1      26.674   3.561  50.645  1.00  0.00    -0.334 N 
HETATM   10  C6  UNL     1      26.488   4.329  49.444  1.00  0.00     0.244 C 
HETATM   11  O1  UNL     1      25.340   4.651  49.107  1.00  0.00    -0.268 OA
HETATM   12  H10 UNL     1      27.668   3.325  50.877  1.00  0.00     0.168 HD
BRANCH  10  13
HETATM   13  C5  UNL     1      27.584   4.757  48.590  1.00  0.00     0.071 C 
HETATM   14  C4  UNL     1      27.734   6.066  48.494  1.00  0.00    -0.017 C 
BRANCH  14  15
HETATM   15  C2  UNL     1      28.792   6.706  47.672  1.00  0.00    -0.000 C 
HETATM   16  C1  UNL     1      28.726   8.214  47.700  1.00  0.00     0.013 C 
HETATM   17  C3  UNL     1      30.148   6.206  48.129  1.00  0.00     0.013 C 
ENDBRANCH  14  15
ENDBRANCH  10  13
ENDBRANCH   8   9
ENDBRANCH   1   7
BRANCH   2  18
HETATM   18  C11 UNL     1      26.188  -0.410  53.135  1.00  0.00     0.228 C 
BRANCH  18  19
HETATM   19  O2  UNL     1      26.634  -0.345  54.453  1.00  0.00    -0.375 OA
BRANCH  19  20
HETATM   20  C12 UNL     1      27.886   0.219  54.571  1.00  0.00     0.182 C 
HETATM   21  C13 UNL     1      28.911  -0.821  54.102  1.00  0.00     0.063 C 
HETATM   22  C14 UNL     1      30.012   0.106  53.652  1.00  0.00     0.173 C 
HETATM   23  O3  UNL     1      29.420   1.237  53.124  1.00  0.00    -0.355 OA
HETATM   24  C15 UNL     1      28.118   1.315  53.583  1.00  0.00     0.382 C 
BRANCH  24  25
HETATM   25  N2  UNL     1      27.865   2.635  54.133  1.00  0.00     0.109 N 
HETATM   26  H21 UNL     1      27.269   2.472  54.997  1.00  0.00     0.316 HD
HETATM   27  H22 UNL     1      27.220   3.104  53.443  1.00  0.00     0.316 HD
ENDBRANCH  24  25
ENDBRANCH  19  20
ENDBRANCH  18  19
ENDBRANCH   2  18
BRANCH   6  28
HETATM   28  C18 UNL     1      22.255   2.290  51.518  1.00  0.00    -0.005 A 
HETATM   29  C19 UNL     1      21.947   3.477  52.196  1.00  0.00     0.017 A 
HETATM   30  C20 UNL     1      21.218   4.535  51.698  1.00  0.00     0.045 A 
HETATM   31  C21 UNL     1      20.762   4.390  50.412  1.00  0.00     0.138 A 
HETATM   32  F1  UNL     1      20.042   5.411  49.885  1.00  0.00    -0.204 F 
HETATM   33  C22 UNL     1      20.996   3.276  49.638  1.00  0.00     0.073 A 
HETATM   34 CL1  UNL     1      20.414   3.100  47.998  1.00  0.00    -0.081 Cl
HETATM   35  C23 UNL     1      21.734   2.289  50.243  1.00  0.00     0.041 A 
ENDBRANCH   6  28
TORSDOF 9
ENDMDL
MODEL 7
REMARK VINA RESULT:      -8.5      4.079      7.012
REMARK  9 active torsions:
REMARK  status: ('A' for Active; 'I' for Inactive)
REMARK    1  A    between atoms: C2_2  and  C4_4 
REMARK    2  A    between atoms: C5_5  and  C6_6 
REMARK       I    between atoms: C6_6  and  N1_8 
REMARK    3  A    between atoms: N1_8  and  C7_9 
REMARK    4  A    between atoms: C8_10  and  C9_11 
REMARK    5  A    between atoms: C10_12  and  C11_13 
REMARK    6  A    between atoms: C11_13  and  O2_14 
REMARK    7  A    between atoms: O2_14  and  C12_15 
REMARK    8  A    between atoms: C15_19  and  N2_20 
REMARK    9  A    between atoms: C17_24  and  C18_25 
ROOT
HETATM    1  C9  UNL     1      23.812   1.222  52.384  1.00  0.00     0.022 A 
HETATM    2  C10 UNL     1      24.453   0.482  53.353  1.00  0.00     0.072 A 
HETATM    3  N3  UNL     1      23.800  -0.575  53.803  1.00  0.00    -0.243 NA
HETATM    4  C16 UNL     1      22.593  -0.943  53.381  1.00  0.00     0.234 A 
HETATM    5  N4  UNL     1      21.974  -0.225  52.442  1.00  0.00    -0.240 NA
HETATM    6  C17 UNL     1      22.570   0.885  51.912  1.00  0.00     0.080 A 
ENDROOT
BRANCH   1   7
HETATM    7  C8  UNL     1      24.355   2.416  51.781  1.00  0.00     0.033 C 
HETATM    8  C7  UNL     1      24.283   3.700  51.528  1.00  0.00     0.092 C 
BRANCH   8   9
HETATM    9  N1  UNL     1      25.197   4.502  50.791  1.00  0.00    -0.334 N 
HETATM   10  C6  UNL     1      24.961   5.831  50.295  1.00  0.00     0.244 C 
HETATM   11  O1  UNL     1      23.867   6.370  50.513  1.00  0.00    -0.268 OA
HETATM   12  H10 UNL     1      26.143   4.105  50.577  1.00  0.00     0.168 HD
BRANCH  10  13
HETATM   13  C5  UNL     1      25.946   6.590  49.541  1.00  0.00     0.071 C 
HETATM   14  C4  UNL     1      26.822   5.858  48.877  1.00  0.00    -0.017 C 
BRANCH  14  15
HETATM   15  C2  UNL     1      27.909   6.440  48.049  1.00  0.00    -0.000 C 
HETATM   16  C1  UNL     1      28.218   7.873  48.406  1.00  0.00     0.013 C 
HETATM   17  C3  UNL     1      29.142   5.566  48.162  1.00  0.00     0.013 C 
ENDBRANCH  14  15
ENDBRANCH  10  13
ENDBRANCH   8   9
ENDBRANCH   1   7
BRANCH   2  18
HETATM   18  C11 UNL     1      25.776   0.926  53.799  1.00  0.00     0.228 C 
BRANCH  18  19
HETATM   19  O2  UNL     1      26.798   0.378  53.027  1.00  0.00    -0.375 OA
BRANCH  19  20
HETATM   20  C12 UNL     1      27.883  -0.024  53.776  1.00  0.00     0.182 C 
HETATM   21  C13 UNL     1      28.404  -1.335  53.174  1.00  0.00     0.063 C 
HETATM   22  C14 UNL     1      29.847  -1.243  53.600  1.00  0.00     0.173 C 
HETATM   23  O3  UNL     1      30.212   0.089  53.567  1.00  0.00    -0.355 OA
HETATM   24  C15 UNL     1      29.068   0.865  53.596  1.00  0.00     0.382 C 
BRANCH  24  25
HETATM   25  N2  UNL     1      29.181   1.876  54.633  1.00  0.00     0.109 N 
HETATM   26  H21 UNL     1      29.915   1.509  55.307  1.00  0.00     0.316 HD
HETATM   27  H22 UNL     1      28.273   1.827  55.168  1.00  0.00     0.316 HD
ENDBRANCH  24  25
ENDBRANCH  19  20
ENDBRANCH  18  19
ENDBRANCH   2  18
BRANCH   6  28
HETATM   28  C18 UNL     1      21.668   1.428  50.928  1.00  0.00    -0.005 A 
HETATM   29  C19 UNL     1      21.811   1.083  49.577  1.00  0.00     0.017 A 
HETATM   30  C20 UNL     1      21.047   1.553  48.531  1.00  0.00     0.045 A 
HETATM   31  C21 UNL     1      20.057   2.441  48.869  1.00  0.00     0.138 A 
HETATM   32  F1  UNL     1      19.283   2.925  47.868  1.00  0.00    -0.204 F 
HETATM   33  C22 UNL     1      19.812   2.860  50.157  1.00  0.00     0.073 A 
HETATM   34 CL1  UNL     1      18.547   3.991  50.581  1.00  0.00    -0.081 Cl
HETATM   35  C23 UNL     1      20.638   2.323  51.113  1.00  0.00     0.041 A 
ENDBRANCH   6  28
TORSDOF 9
ENDMDL
MODEL 8
REMARK VINA RESULT:      -8.4      2.691      3.896
REMARK  9 active torsions:
REMARK  status: ('A' for Active; 'I' for Inactive)
REMARK    1  A    between atoms: C2_2  and  C4_4 
REMARK    2  A    between atoms: C5_5  and  C6_6 
REMARK       I    between atoms: C6_6  and  N1_8 
REMARK    3  A    between atoms: N1_8  and  C7_9 
REMARK    4  A    between atoms: C8_10  and  C9_11 
REMARK    5  A    between atoms: C10_12  and  C11_13 
REMARK    6  A    between atoms: C11_13  and  O2_14 
REMARK    7  A    between atoms: O2_14  and  C12_15 
REMARK    8  A    between atoms: C15_19  and  N2_20 
REMARK    9  A    between atoms: C17_24  and  C18_25 
ROOT
HETATM    1  C9  UNL     1      24.397   1.365  51.995  1.00  0.00     0.022 A 
HETATM    2  C10 UNL     1      23.020   1.420  51.979  1.00  0.00     0.072 A 
HETATM    3  N3  UNL     1      22.398   0.664  52.866  1.00  0.00    -0.243 NA
HETATM    4  C16 UNL     1      23.017  -0.122  53.743  1.00  0.00     0.234 A 
HETATM    5  N4  UNL     1      24.350  -0.174  53.758  1.00  0.00    -0.240 NA
HETATM    6  C17 UNL     1      25.083   0.573  52.880  1.00  0.00     0.080 A 
ENDROOT
BRANCH   1   7
HETATM    7  C8  UNL     1      25.251   2.104  51.096  1.00  0.00     0.033 C 
HETATM    8  C7  UNL     1      25.462   2.678  49.937  1.00  0.00     0.092 C 
BRANCH   8   9
HETATM    9  N1  UNL     1      26.629   3.358  49.494  1.00  0.00    -0.334 N 
HETATM   10  C6  UNL     1      26.694   4.699  48.979  1.00  0.00     0.244 C 
HETATM   11  O1  UNL     1      25.653   5.366  48.903  1.00  0.00    -0.268 OA
HETATM   12  H10 UNL     1      27.544   2.850  49.537  1.00  0.00     0.168 HD
BRANCH  10  13
HETATM   13  C5  UNL     1      27.929   5.328  48.538  1.00  0.00     0.071 C 
HETATM   14  C4  UNL     1      27.799   6.575  48.124  1.00  0.00    -0.017 C 
BRANCH  14  15
HETATM   15  C2  UNL     1      28.936   7.394  47.632  1.00  0.00    -0.000 C 
HETATM   16  C1  UNL     1      30.234   6.625  47.581  1.00  0.00     0.013 C 
HETATM   17  C3  UNL     1      28.584   7.970  46.276  1.00  0.00     0.013 C 
ENDBRANCH  14  15
ENDBRANCH  10  13
ENDBRANCH   8   9
ENDBRANCH   1   7
BRANCH   2  18
HETATM   18  C11 UNL     1      22.375   2.289  50.992  1.00  0.00     0.228 C 
BRANCH  18  19
HETATM   19  O2  UNL     1      21.979   3.504  51.547  1.00  0.00    -0.375 OA
BRANCH  19  20
HETATM   20  C12 UNL     1      22.307   4.588  50.761  1.00  0.00     0.182 C 
HETATM   21  C13 UNL     1      20.999   5.201  50.244  1.00  0.00     0.063 C 
HETATM   22  C14 UNL     1      21.457   6.623  50.044  1.00  0.00     0.173 C 
HETATM   23  O3  UNL     1      22.376   6.912  51.036  1.00  0.00    -0.355 OA
HETATM   24  C15 UNL     1      22.863   5.726  51.552  1.00  0.00     0.382 C 
BRANCH  24  25
HETATM   25  N2  UNL     1      24.315   5.750  51.564  1.00  0.00     0.109 N 
HETATM   26  H21 UNL     1      24.589   6.597  50.984  1.00  0.00     0.316 HD
HETATM   27  H22 UNL     1      24.612   4.918  50.988  1.00  0.00     0.316 HD
ENDBRANCH  24  25
ENDBRANCH  19  20
ENDBRANCH  18  19
ENDBRANCH   2  18
BRANCH   6  28
HETATM   28  C18 UNL     1      26.474   0.312  53.150  1.00  0.00    -0.005 A 
HETATM   29  C19 UNL     1      27.026  -0.941  52.850  1.00  0.00     0.017 A 
HETATM   30  C20 UNL     1      28.324  -1.338  53.087  1.00  0.00     0.045 A 
HETATM   31  C21 UNL     1      29.135  -0.399  53.673  1.00  0.00     0.138 A 
HETATM   32  F1  UNL     1      30.421  -0.751  53.922  1.00  0.00    -0.204 F 
HETATM   33  C22 UNL     1      28.718   0.867  54.017  1.00  0.00     0.073 A 
HETATM   34 CL1  UNL     1      29.759   2.058  54.762  1.00  0.00    -0.081 Cl
HETATM   35  C23 UNL     1      27.404   1.146  53.731  1.00  0.00     0.041 A 
ENDBRANCH   6  28
TORSDOF 9
ENDMDL
MODEL 9
REMARK VINA RESULT:      -8.2      3.754      8.764
REMARK  9 active torsions:
REMARK  status: ('A' for Active; 'I' for Inactive)
REMARK    1  A    between atoms: C2_2  and  C4_4 
REMARK    2  A    between atoms: C5_5  and  C6_6 
REMARK       I    between atoms: C6_6  and  N1_8 
REMARK    3  A    between atoms: N1_8  and  C7_9 
REMARK    4  A    between atoms: C8_10  and  C9_11 
REMARK    5  A    between atoms: C10_12  and  C11_13 
REMARK    6  A    between atoms: C11_13  and  O2_14 
REMARK    7  A    between atoms: O2_14  and  C12_15 
REMARK    8  A    between atoms: C15_19  and  N2_20 
REMARK    9  A    between atoms: C17_24  and  C18_25 
ROOT
HETATM    1  C9  UNL     1      24.917   2.879  50.916  1.00  0.00     0.022 A 
HETATM    2  C10 UNL     1      26.263   2.724  51.160  1.00  0.00     0.072 A 
HETATM    3  N3  UNL     1      27.080   3.352  50.331  1.00  0.00    -0.243 NA
HETATM    4  C16 UNL     1      26.676   4.099  49.307  1.00  0.00     0.234 A 
HETATM    5  N4  UNL     1      25.370   4.249  49.073  1.00  0.00    -0.240 NA
HETATM    6  C17 UNL     1      24.447   3.640  49.876  1.00  0.00     0.080 A 
ENDROOT
BRANCH   1   7
HETATM    7  C8  UNL     1      23.872   2.262  51.699  1.00  0.00     0.033 C 
HETATM    8  C7  UNL     1      23.436   1.769  52.832  1.00  0.00     0.092 C 
BRANCH   8   9
HETATM    9  N1  UNL     1      22.159   1.210  53.112  1.00  0.00    -0.334 N 
HETATM   10  C6  UNL     1      21.845  -0.189  53.226  1.00  0.00     0.244 C 
HETATM   11  O1  UNL     1      22.748  -1.024  53.078  1.00  0.00    -0.268 OA
HETATM   12  H10 UNL     1      21.352   1.863  53.253  1.00  0.00     0.168 HD
BRANCH  10  13
HETATM   13  C5  UNL     1      20.509  -0.688  53.510  1.00  0.00     0.071 C 
HETATM   14  C4  UNL     1      19.564  -0.233  52.708  1.00  0.00    -0.017 C 
BRANCH  14  15
HETATM   15  C2  UNL     1      18.135  -0.619  52.831  1.00  0.00    -0.000 C 
HETATM   16  C1  UNL     1      17.375  -0.482  51.534  1.00  0.00     0.013 C 
HETATM   17  C3  UNL     1      18.047  -2.031  53.374  1.00  0.00     0.013 C 
ENDBRANCH  14  15
ENDBRANCH  10  13
ENDBRANCH   8   9
ENDBRANCH   1   7
BRANCH   2  18
HETATM   18  C11 UNL     1      26.669   1.885  52.290  1.00  0.00     0.228 C 
BRANCH  18  19
HETATM   19  O2  UNL     1      26.880   0.562  51.907  1.00  0.00    -0.375 OA
BRANCH  19  20
HETATM   20  C12 UNL     1      27.369  -0.223  52.929  1.00  0.00     0.182 C 
HETATM   21  C13 UNL     1      28.751   0.321  53.313  1.00  0.00     0.063 C 
HETATM   22  C14 UNL     1      28.802  -0.130  54.750  1.00  0.00     0.173 C 
HETATM   23  O3  UNL     1      27.520  -0.055  55.260  1.00  0.00    -0.355 OA
HETATM   24  C15 UNL     1      26.623  -0.033  54.209  1.00  0.00     0.382 C 
BRANCH  24  25
HETATM   25  N2  UNL     1      25.592  -1.035  54.416  1.00  0.00     0.109 N 
HETATM   26  H21 UNL     1      25.721  -1.741  53.633  1.00  0.00     0.316 HD
HETATM   27  H22 UNL     1      24.683  -0.548  54.195  1.00  0.00     0.316 HD
ENDBRANCH  24  25
ENDBRANCH  19  20
ENDBRANCH  18  19
ENDBRANCH   2  18
BRANCH   6  28
HETATM   28  C18 UNL     1      23.143   3.999  49.380  1.00  0.00    -0.005 A 
HETATM   29  C19 UNL     1      22.549   3.247  48.357  1.00  0.00     0.017 A 
HETATM   30  C20 UNL     1      21.329   3.496  47.765  1.00  0.00     0.045 A 
HETATM   31  C21 UNL     1      20.650   4.590  48.240  1.00  0.00     0.138 A 
HETATM   32  F1  UNL     1      19.446   4.867  47.684  1.00  0.00    -0.204 F 
HETATM   33  C22 UNL     1      21.122   5.409  49.241  1.00  0.00     0.073 A 
HETATM   34 CL1  UNL     1      20.249   6.799  49.843  1.00  0.00    -0.081 Cl
HETATM   35  C23 UNL     1      22.347   5.059  49.753  1.00  0.00     0.041 A 
ENDBRANCH   6  28
TORSDOF 9
ENDMDL
