MODEL 1
REMARK VINA RESULT:      -8.8      0.000      0.000
REMARK  6 active torsions:
REMARK  status: ('A' for Active; 'I' for Inactive)
REMARK    1  A    between atoms: C2_2  and  C3_3 
REMARK    2  A    between atoms: C3_3  and  C4_4 
REMARK    3  A    between atoms: C3_3  and  O2_29 
REMARK    4  A    between atoms: C5_5  and  N1_6 
REMARK    5  A    between atoms: C12_16  and  O1_17 
REMARK    6  A    between atoms: O2_29  and  C23_30 
ROOT
HETATM    1  N1  UNL     1      24.848   0.307  52.870  1.00  0.00    -0.365 N 
HETATM    2  C6  UNL     1      24.298  -0.375  54.068  1.00  0.00     0.168 C 
HETATM    3  C7  UNL     1      22.840  -0.606  53.950  1.00  0.00     0.024 A 
HETATM    4  C8  UNL     1      22.000  -1.649  54.277  1.00  0.00     0.149 A 
HETATM    5  N2  UNL     1      20.679  -1.594  54.027  1.00  0.00    -0.075 NA
HETATM    6  C9  UNL     1      20.084  -0.545  53.453  1.00  0.00     0.718 A 
HETATM    7  N3  UNL     1      20.821   0.522  53.099  1.00  0.00    -0.045 NA
HETATM    8  C10 UNL     1      22.135   0.450  53.355  1.00  0.00     0.156 A 
HETATM    9  N4  UNL     1      22.914   1.545  52.919  1.00  0.00    -0.341 N 
HETATM   10  C11 UNL     1      23.030   2.954  53.128  1.00  0.00     0.158 C 
HETATM   11  C12 UNL     1      22.151   3.663  52.133  1.00  0.00     0.136 C 
HETATM   12  C13 UNL     1      22.747   3.669  50.791  1.00  0.00     0.038 C 
HETATM   13  C14 UNL     1      23.281   2.429  50.199  1.00  0.00    -0.005 C 
HETATM   14  C15 UNL     1      22.302   1.406  49.738  1.00  0.00     0.031 C 
HETATM   15  C16 UNL     1      21.198   1.887  48.912  1.00  0.00    -0.030 C 
HETATM   16  C17 UNL     1      19.842   1.905  48.943  1.00  0.00    -0.025 C 
HETATM   17  C18 UNL     1      19.420   1.232  50.200  1.00  0.00     0.055 C 
HETATM   18  C19 UNL     1      18.176   1.001  50.680  1.00  0.00     0.021 C 
HETATM   19  C20 UNL     1      18.404   0.299  51.967  1.00  0.00     0.300 C 
HETATM   20  N5  UNL     1      18.741  -0.311  53.081  1.00  0.00    -0.230 NA
HETATM   21  C21 UNL     1      24.398   1.765  50.995  1.00  0.00     0.052 C 
HETATM   22  C22 UNL     1      23.813   0.813  52.008  1.00  0.00     0.188 C 
ENDROOT
BRANCH   1  23
HETATM   23  C5  UNL     1      26.249   0.304  52.850  1.00  0.00     0.087 C 
HETATM   24  C4  UNL     1      27.138  -0.556  53.360  1.00  0.00     0.026 C 
BRANCH  24  25
HETATM   25  C3  UNL     1      28.595  -0.384  53.233  1.00  0.00     0.177 C 
BRANCH  25  26
HETATM   26  C2  UNL     1      29.304  -1.709  53.373  1.00  0.00    -0.001 C 
HETATM   27  C1  UNL     1      28.606  -2.785  52.989  1.00  0.00     0.010 C 
ENDBRANCH  25  26
BRANCH  25  28
HETATM   28  O2  UNL     1      29.069   0.448  54.297  1.00  0.00    -0.315 OA
BRANCH  28  29
HETATM   29  C23 UNL     1      29.184   1.808  54.209  1.00  0.00     0.399 C 
HETATM   30  O3  UNL     1      28.378   2.773  54.202  1.00  0.00    -0.276 OA
ENDBRANCH  28  29
ENDBRANCH  25  28
ENDBRANCH  24  25
ENDBRANCH   1  23
BRANCH  11  31
HETATM   31  O1  UNL     1      20.887   3.124  52.263  1.00  0.00    -0.394 OA
HETATM   32  H13 UNL     1      20.855   2.158  52.071  1.00  0.00     0.210 HD
ENDBRANCH  11  31
TORSDOF 6
ENDMDL
MODEL 2
REMARK VINA RESULT:      -8.8      3.038      4.543
REMARK  6 active torsions:
REMARK  status: ('A' for Active; 'I' for Inactive)
REMARK    1  A    between atoms: C2_2  and  C3_3 
REMARK    2  A    between atoms: C3_3  and  C4_4 
REMARK    3  A    between atoms: C3_3  and  O2_29 
REMARK    4  A    between atoms: C5_5  and  N1_6 
REMARK    5  A    between atoms: C12_16  and  O1_17 
REMARK    6  A    between atoms: O2_29  and  C23_30 
ROOT
HETATM    1  N1  UNL     1      24.444   2.958  50.551  1.00  0.00    -0.365 N 
HETATM    2  C6  UNL     1      25.184   2.458  51.736  1.00  0.00     0.168 C 
HETATM    3  C7  UNL     1      24.399   1.458  52.495  1.00  0.00     0.024 A 
HETATM    4  C8  UNL     1      24.704   0.270  53.124  1.00  0.00     0.149 A 
HETATM    5  N2  UNL     1      23.757  -0.468  53.732  1.00  0.00    -0.075 NA
HETATM    6  C9  UNL     1      22.469  -0.115  53.778  1.00  0.00     0.718 A 
HETATM    7  N3  UNL     1      22.075   1.030  53.193  1.00  0.00    -0.045 NA
HETATM    8  C10 UNL     1      23.031   1.750  52.591  1.00  0.00     0.156 A 
HETATM    9  N4  UNL     1      22.600   2.917  51.920  1.00  0.00    -0.341 N 
HETATM   10  C11 UNL     1      21.948   4.157  52.197  1.00  0.00     0.158 C 
HETATM   11  C12 UNL     1      20.463   3.968  52.040  1.00  0.00     0.136 C 
HETATM   12  C13 UNL     1      20.072   3.916  50.626  1.00  0.00     0.038 C 
HETATM   13  C14 UNL     1      20.794   3.050  49.676  1.00  0.00    -0.005 C 
HETATM   14  C15 UNL     1      20.571   1.581  49.772  1.00  0.00     0.031 C 
HETATM   15  C16 UNL     1      19.183   1.137  49.853  1.00  0.00    -0.030 C 
HETATM   16  C17 UNL     1      18.392   0.431  50.699  1.00  0.00    -0.025 C 
HETATM   17  C18 UNL     1      19.235   0.023  51.855  1.00  0.00     0.055 C 
HETATM   18  C19 UNL     1      18.905  -0.693  52.954  1.00  0.00     0.021 C 
HETATM   19  C20 UNL     1      20.164  -0.767  53.736  1.00  0.00     0.300 C 
HETATM   20  N5  UNL     1      21.337  -0.757  54.328  1.00  0.00    -0.230 NA
HETATM   21  C21 UNL     1      22.283   3.347  49.539  1.00  0.00     0.052 C 
HETATM   22  C22 UNL     1      23.061   2.561  50.565  1.00  0.00     0.188 C 
ENDROOT
BRANCH   1  23
HETATM   23  C5  UNL     1      25.258   3.704  49.688  1.00  0.00     0.087 C 
HETATM   24  C4  UNL     1      25.640   4.985  49.721  1.00  0.00     0.026 C 
BRANCH  24  25
HETATM   25  C3  UNL     1      26.513   5.596  48.706  1.00  0.00     0.177 C 
BRANCH  25  26
HETATM   26  C2  UNL     1      27.834   4.869  48.627  1.00  0.00    -0.001 C 
HETATM   27  C1  UNL     1      28.888   5.615  48.274  1.00  0.00     0.010 C 
ENDBRANCH  25  26
BRANCH  25  28
HETATM   28  O2  UNL     1      26.812   6.944  49.085  1.00  0.00    -0.315 OA
BRANCH  28  29
HETATM   29  C23 UNL     1      26.099   7.650  50.015  1.00  0.00     0.399 C 
HETATM   30  O3  UNL     1      25.742   8.849  50.143  1.00  0.00    -0.276 OA
ENDBRANCH  28  29
ENDBRANCH  25  28
ENDBRANCH  24  25
ENDBRANCH   1  23
BRANCH  11  31
HETATM   31  O1  UNL     1      20.111   2.897  52.836  1.00  0.00    -0.394 OA
HETATM   32  H13 UNL     1      20.745   2.737  53.574  1.00  0.00     0.210 HD
ENDBRANCH  11  31
TORSDOF 6
ENDMDL
MODEL 3
REMARK VINA RESULT:      -8.6      1.566      2.419
REMARK  6 active torsions:
REMARK  status: ('A' for Active; 'I' for Inactive)
REMARK    1  A    between atoms: C2_2  and  C3_3 
REMARK    2  A    between atoms: C3_3  and  C4_4 
REMARK    3  A    between atoms: C3_3  and  O2_29 
REMARK    4  A    between atoms: C5_5  and  N1_6 
REMARK    5  A    between atoms: C12_16  and  O1_17 
REMARK    6  A    between atoms: O2_29  and  C23_30 
ROOT
HETATM    1  N1  UNL     1      24.880   0.689  52.784  1.00  0.00    -0.365 N 
HETATM    2  C6  UNL     1      23.881   0.074  53.692  1.00  0.00     0.168 C 
HETATM    3  C7  UNL     1      22.496   0.287  53.213  1.00  0.00     0.024 A 
HETATM    4  C8  UNL     1      21.364  -0.498  53.158  1.00  0.00     0.149 A 
HETATM    5  N2  UNL     1      20.214  -0.039  52.632  1.00  0.00    -0.075 NA
HETATM    6  C9  UNL     1      20.076   1.192  52.130  1.00  0.00     0.718 A 
HETATM    7  N3  UNL     1      21.126   2.032  52.141  1.00  0.00    -0.045 NA
HETATM    8  C10 UNL     1      22.263   1.557  52.668  1.00  0.00     0.156 A 
HETATM    9  N4  UNL     1      23.381   2.421  52.614  1.00  0.00    -0.341 N 
HETATM   10  C11 UNL     1      23.790   3.706  53.084  1.00  0.00     0.158 C 
HETATM   11  C12 UNL     1      23.412   4.740  52.057  1.00  0.00     0.136 C 
HETATM   12  C13 UNL     1      24.322   4.714  50.904  1.00  0.00     0.038 C 
HETATM   13  C14 UNL     1      24.660   3.442  50.240  1.00  0.00    -0.005 C 
HETATM   14  C15 UNL     1      23.611   2.800  49.401  1.00  0.00     0.031 C 
HETATM   15  C16 UNL     1      22.922   3.662  48.446  1.00  0.00    -0.030 C 
HETATM   16  C17 UNL     1      21.656   4.067  48.176  1.00  0.00    -0.025 C 
HETATM   17  C18 UNL     1      20.762   3.416  49.171  1.00  0.00     0.055 C 
HETATM   18  C19 UNL     1      19.419   3.505  49.313  1.00  0.00     0.021 C 
HETATM   19  C20 UNL     1      19.116   2.636  50.477  1.00  0.00     0.300 C 
HETATM   20  N5  UNL     1      18.983   1.841  51.514  1.00  0.00    -0.230 NA
HETATM   21  C21 UNL     1      25.323   2.404  51.138  1.00  0.00     0.052 C 
HETATM   22  C22 UNL     1      24.271   1.560  51.814  1.00  0.00     0.188 C 
ENDROOT
BRANCH   1  23
HETATM   23  C5  UNL     1      26.189   0.285  53.077  1.00  0.00     0.087 C 
HETATM   24  C4  UNL     1      26.959   0.496  54.150  1.00  0.00     0.026 C 
BRANCH  24  25
HETATM   25  C3  UNL     1      28.333  -0.020  54.275  1.00  0.00     0.177 C 
BRANCH  25  26
HETATM   26  C2  UNL     1      29.328   1.114  54.329  1.00  0.00    -0.001 C 
HETATM   27  C1  UNL     1      28.910   2.278  53.814  1.00  0.00     0.010 C 
ENDBRANCH  25  26
BRANCH  25  28
HETATM   28  O2  UNL     1      28.657  -0.792  53.114  1.00  0.00    -0.315 OA
BRANCH  28  29
HETATM   29  C23 UNL     1      29.208  -2.044  53.160  1.00  0.00     0.399 C 
HETATM   30  O3  UNL     1      28.834  -3.168  53.582  1.00  0.00    -0.276 OA
ENDBRANCH  28  29
ENDBRANCH  25  28
ENDBRANCH  24  25
ENDBRANCH   1  23
BRANCH  11  31
HETATM   31  O1  UNL     1      22.065   4.578  51.806  1.00  0.00    -0.394 OA
HETATM   32  H13 UNL     1      21.532   5.380  52.016  1.00  0.00     0.210 HD
ENDBRANCH  11  31
TORSDOF 6
ENDMDL
MODEL 4
REMARK VINA RESULT:      -7.8      3.645      6.050
REMARK  6 active torsions:
REMARK  status: ('A' for Active; 'I' for Inactive)
REMARK    1  A    between atoms: C2_2  and  C3_3 
REMARK    2  A    between atoms: C3_3  and  C4_4 
REMARK    3  A    between atoms: C3_3  and  O2_29 
REMARK    4  A    between atoms: C5_5  and  N1_6 
REMARK    5  A    between atoms: C12_16  and  O1_17 
REMARK    6  A    between atoms: O2_29  and  C23_30 
ROOT
HETATM    1  N1  UNL     1      25.405   2.565  51.278  1.00  0.00    -0.365 N 
HETATM    2  C6  UNL     1      26.525   2.693  50.313  1.00  0.00     0.168 C 
HETATM    3  C7  UNL     1      26.474   3.978  49.578  1.00  0.00     0.024 A 
HETATM    4  C8  UNL     1      27.420   4.898  49.178  1.00  0.00     0.149 A 
HETATM    5  N2  UNL     1      27.077   6.023  48.527  1.00  0.00    -0.075 NA
HETATM    6  C9  UNL     1      25.816   6.337  48.219  1.00  0.00     0.718 A 
HETATM    7  N3  UNL     1      24.822   5.501  48.567  1.00  0.00    -0.045 NA
HETATM    8  C10 UNL     1      25.183   4.385  49.215  1.00  0.00     0.156 A 
HETATM    9  N4  UNL     1      24.129   3.544  49.639  1.00  0.00    -0.341 N 
HETATM   10  C11 UNL     1      23.052   2.784  49.089  1.00  0.00     0.158 C 
HETATM   11  C12 UNL     1      21.828   3.658  49.020  1.00  0.00     0.136 C 
HETATM   12  C13 UNL     1      21.215   3.835  50.343  1.00  0.00     0.038 C 
HETATM   13  C14 UNL     1      22.036   4.207  51.510  1.00  0.00    -0.005 C 
HETATM   14  C15 UNL     1      22.546   5.604  51.580  1.00  0.00     0.031 C 
HETATM   15  C16 UNL     1      21.574   6.664  51.331  1.00  0.00    -0.030 C 
HETATM   16  C17 UNL     1      21.401   7.697  50.469  1.00  0.00    -0.025 C 
HETATM   17  C18 UNL     1      22.561   7.696  49.537  1.00  0.00     0.055 C 
HETATM   18  C19 UNL     1      22.842   8.527  48.507  1.00  0.00     0.021 C 
HETATM   19  C20 UNL     1      24.125   8.016  47.964  1.00  0.00     0.300 C 
HETATM   20  N5  UNL     1      25.255   7.466  47.581  1.00  0.00    -0.230 NA
HETATM   21  C21 UNL     1      23.150   3.224  51.851  1.00  0.00     0.052 C 
HETATM   22  C22 UNL     1      24.402   3.579  51.087  1.00  0.00     0.188 C 
ENDROOT
BRANCH   1  23
HETATM   23  C5  UNL     1      25.577   1.485  52.154  1.00  0.00     0.087 C 
HETATM   24  C4  UNL     1      26.561   0.587  52.267  1.00  0.00     0.026 C 
BRANCH  24  25
HETATM   25  C3  UNL     1      26.562  -0.493  53.268  1.00  0.00     0.177 C 
BRANCH  25  26
HETATM   26  C2  UNL     1      25.700  -0.126  54.452  1.00  0.00    -0.001 C 
HETATM   27  C1  UNL     1      24.734  -1.000  54.760  1.00  0.00     0.010 C 
ENDBRANCH  25  26
BRANCH  25  28
HETATM   28  O2  UNL     1      27.890  -0.673  53.771  1.00  0.00    -0.315 OA
BRANCH  28  29
HETATM   29  C23 UNL     1      28.428   0.065  54.789  1.00  0.00     0.399 C 
HETATM   30  O3  UNL     1      28.890   1.230  54.899  1.00  0.00    -0.276 OA
ENDBRANCH  28  29
ENDBRANCH  25  28
ENDBRANCH  24  25
ENDBRANCH   1  23
BRANCH  11  31
HETATM   31  O1  UNL     1      22.191   4.798  48.331  1.00  0.00    -0.394 OA
HETATM   32  H13 UNL     1      22.968   5.259  48.726  1.00  0.00     0.210 HD
ENDBRANCH  11  31
TORSDOF 6
ENDMDL
MODEL 5
REMARK VINA RESULT:      -7.5      1.992      3.255
REMARK  6 active torsions:
REMARK  status: ('A' for Active; 'I' for Inactive)
REMARK    1  A    between atoms: C2_2  and  C3_3 
REMARK    2  A    between atoms: C3_3  and  C4_4 
REMARK    3  A    between atoms: C3_3  and  O2_29 
REMARK    4  A    between atoms: C5_5  and  N1_6 
REMARK    5  A    between atoms: C12_16  and  O1_17 
REMARK    6  A    between atoms: O2_29  and  C23_30 
ROOT
HETATM    1  N1  UNL     1      21.846   0.073  52.547  1.00  0.00    -0.365 N 
HETATM    2  C6  UNL     1      20.770  -0.408  53.447  1.00  0.00     0.168 C 
HETATM    3  C7  UNL     1      19.425  -0.177  52.870  1.00  0.00     0.024 A 
HETATM    4  C8  UNL     1      18.259  -0.911  52.821  1.00  0.00     0.149 A 
HETATM    5  N2  UNL     1      17.164  -0.451  52.189  1.00  0.00    -0.075 NA
HETATM    6  C9  UNL     1      17.117   0.732  51.569  1.00  0.00     0.718 A 
HETATM    7  N3  UNL     1      18.206   1.521  51.565  1.00  0.00    -0.045 NA
HETATM    8  C10 UNL     1      19.287   1.046  52.199  1.00  0.00     0.156 A 
HETATM    9  N4  UNL     1      20.449   1.848  52.131  1.00  0.00    -0.341 N 
HETATM   10  C11 UNL     1      20.898   3.151  52.505  1.00  0.00     0.158 C 
HETATM   11  C12 UNL     1      20.630   4.100  51.367  1.00  0.00     0.136 C 
HETATM   12  C13 UNL     1      21.598   3.924  50.277  1.00  0.00     0.038 C 
HETATM   13  C14 UNL     1      21.906   2.581  49.753  1.00  0.00    -0.005 C 
HETATM   14  C15 UNL     1      20.872   1.911  48.917  1.00  0.00     0.031 C 
HETATM   15  C16 UNL     1      20.282   2.710  47.848  1.00  0.00    -0.030 C 
HETATM   16  C17 UNL     1      19.054   3.146  47.468  1.00  0.00    -0.025 C 
HETATM   17  C18 UNL     1      18.075   2.633  48.464  1.00  0.00     0.055 C 
HETATM   18  C19 UNL     1      16.733   2.797  48.518  1.00  0.00     0.021 C 
HETATM   19  C20 UNL     1      16.323   2.056  49.737  1.00  0.00     0.300 C 
HETATM   20  N5  UNL     1      16.093   1.369  50.833  1.00  0.00    -0.230 NA
HETATM   21  C21 UNL     1      22.466   1.603  50.779  1.00  0.00     0.052 C 
HETATM   22  C22 UNL     1      21.336   0.876  51.467  1.00  0.00     0.188 C 
ENDROOT
BRANCH   1  23
HETATM   23  C5  UNL     1      23.115  -0.362  52.952  1.00  0.00     0.087 C 
HETATM   24  C4  UNL     1      24.101   0.271  53.599  1.00  0.00     0.026 C 
BRANCH  24  25
HETATM   25  C3  UNL     1      25.384  -0.366  53.941  1.00  0.00     0.177 C 
BRANCH  25  26
HETATM   26  C2  UNL     1      26.369   0.656  54.454  1.00  0.00    -0.001 C 
HETATM   27  C1  UNL     1      26.257   1.884  53.932  1.00  0.00     0.010 C 
ENDBRANCH  25  26
BRANCH  25  28
HETATM   28  O2  UNL     1      25.962  -0.934  52.760  1.00  0.00    -0.315 OA
BRANCH  28  29
HETATM   29  C23 UNL     1      27.185  -1.546  52.729  1.00  0.00     0.399 C 
HETATM   30  O3  UNL     1      27.610  -2.704  52.976  1.00  0.00    -0.276 OA
ENDBRANCH  28  29
ENDBRANCH  25  28
ENDBRANCH  24  25
ENDBRANCH   1  23
BRANCH  11  31
HETATM   31  O1  UNL     1      19.292   3.977  51.053  1.00  0.00    -0.394 OA
HETATM   32  H13 UNL     1      18.694   4.253  51.787  1.00  0.00     0.210 HD
ENDBRANCH  11  31
TORSDOF 6
ENDMDL
MODEL 6
REMARK VINA RESULT:      -7.4      3.172      7.131
REMARK  6 active torsions:
REMARK  status: ('A' for Active; 'I' for Inactive)
REMARK    1  A    between atoms: C2_2  and  C3_3 
REMARK    2  A    between atoms: C3_3  and  C4_4 
REMARK    3  A    between atoms: C3_3  and  O2_29 
REMARK    4  A    between atoms: C5_5  and  N1_6 
REMARK    5  A    between atoms: C12_16  and  O1_17 
REMARK    6  A    between atoms: O2_29  and  C23_30 
ROOT
HETATM    1  N1  UNL     1      20.793   0.340  52.825  1.00  0.00    -0.365 N 
HETATM    2  C6  UNL     1      22.008  -0.505  52.928  1.00  0.00     0.168 C 
HETATM    3  C7  UNL     1      23.238   0.257  52.611  1.00  0.00     0.024 A 
HETATM    4  C8  UNL     1      24.510   0.299  53.141  1.00  0.00     0.149 A 
HETATM    5  N2  UNL     1      25.449   1.130  52.655  1.00  0.00    -0.075 NA
HETATM    6  C9  UNL     1      25.231   1.966  51.636  1.00  0.00     0.718 A 
HETATM    7  N3  UNL     1      24.021   1.996  51.051  1.00  0.00    -0.045 NA
HETATM    8  C10 UNL     1      23.098   1.163  51.549  1.00  0.00     0.156 A 
HETATM    9  N4  UNL     1      21.809   1.248  50.976  1.00  0.00    -0.341 N 
HETATM   10  C11 UNL     1      21.164   1.082  49.712  1.00  0.00     0.158 C 
HETATM   11  C12 UNL     1      21.164   2.404  48.993  1.00  0.00     0.136 C 
HETATM   12  C13 UNL     1      20.159   3.321  49.546  1.00  0.00     0.038 C 
HETATM   13  C14 UNL     1      20.057   3.538  51.000  1.00  0.00    -0.005 C 
HETATM   14  C15 UNL     1      21.124   4.344  51.656  1.00  0.00     0.031 C 
HETATM   15  C16 UNL     1      21.472   5.607  51.013  1.00  0.00    -0.030 C 
HETATM   16  C17 UNL     1      22.566   6.203  50.476  1.00  0.00    -0.025 C 
HETATM   17  C18 UNL     1      23.699   5.247  50.605  1.00  0.00     0.055 C 
HETATM   18  C19 UNL     1      24.989   5.381  50.220  1.00  0.00     0.021 C 
HETATM   19  C20 UNL     1      25.623   4.098  50.615  1.00  0.00     0.300 C 
HETATM   20  N5  UNL     1      26.061   2.924  51.011  1.00  0.00    -0.230 NA
HETATM   21  C21 UNL     1      19.768   2.285  51.819  1.00  0.00     0.052 C 
HETATM   22  C22 UNL     1      21.061   1.606  52.195  1.00  0.00     0.188 C 
ENDROOT
BRANCH   1  23
HETATM   23  C5  UNL     1      19.660  -0.285  53.363  1.00  0.00     0.087 C 
HETATM   24  C4  UNL     1      18.665  -0.962  52.780  1.00  0.00     0.026 C 
BRANCH  24  25
HETATM   25  C3  UNL     1      17.543  -1.555  53.527  1.00  0.00     0.177 C 
BRANCH  25  26
HETATM   26  C2  UNL     1      17.744  -3.040  53.705  1.00  0.00    -0.001 C 
HETATM   27  C1  UNL     1      16.720  -3.814  53.325  1.00  0.00     0.010 C 
ENDBRANCH  25  26
BRANCH  25  28
HETATM   28  O2  UNL     1      16.335  -1.393  52.777  1.00  0.00    -0.315 OA
BRANCH  28  29
HETATM   29  C23 UNL     1      15.580  -0.252  52.782  1.00  0.00     0.399 C 
HETATM   30  O3  UNL     1      15.500   0.768  52.052  1.00  0.00    -0.276 OA
ENDBRANCH  28  29
ENDBRANCH  25  28
ENDBRANCH  24  25
ENDBRANCH   1  23
BRANCH  11  31
HETATM   31  O1  UNL     1      22.473   2.841  48.962  1.00  0.00    -0.394 OA
HETATM   32  H13 UNL     1      22.960   2.668  49.802  1.00  0.00     0.210 HD
ENDBRANCH  11  31
TORSDOF 6
ENDMDL
MODEL 7
REMARK VINA RESULT:      -7.4      3.111      8.381
REMARK  6 active torsions:
REMARK  status: ('A' for Active; 'I' for Inactive)
REMARK    1  A    between atoms: C2_2  and  C3_3 
REMARK    2  A    between atoms: C3_3  and  C4_4 
REMARK    3  A    between atoms: C3_3  and  O2_29 
REMARK    4  A    between atoms: C5_5  and  N1_6 
REMARK    5  A    between atoms: C12_16  and  O1_17 
REMARK    6  A    between atoms: O2_29  and  C23_30 
ROOT
HETATM    1  N1  UNL     1      17.887   1.934  51.334  1.00  0.00    -0.365 N 
HETATM    2  C6  UNL     1      17.725   0.499  51.675  1.00  0.00     0.168 C 
HETATM    3  C7  UNL     1      18.935  -0.053  52.326  1.00  0.00     0.024 A 
HETATM    4  C8  UNL     1      19.154  -0.919  53.377  1.00  0.00     0.149 A 
HETATM    5  N2  UNL     1      20.397  -1.235  53.781  1.00  0.00    -0.075 NA
HETATM    6  C9  UNL     1      21.501  -0.746  53.209  1.00  0.00     0.718 A 
HETATM    7  N3  UNL     1      21.389   0.105  52.174  1.00  0.00    -0.045 NA
HETATM    8  C10 UNL     1      20.143   0.409  51.786  1.00  0.00     0.156 A 
HETATM    9  N4  UNL     1      20.031   1.357  50.744  1.00  0.00    -0.341 N 
HETATM   10  C11 UNL     1      20.415   1.529  49.379  1.00  0.00     0.158 C 
HETATM   11  C12 UNL     1      21.764   2.196  49.336  1.00  0.00     0.136 C 
HETATM   12  C13 UNL     1      21.667   3.630  49.637  1.00  0.00     0.038 C 
HETATM   13  C14 UNL     1      20.906   4.105  50.807  1.00  0.00    -0.005 C 
HETATM   14  C15 UNL     1      21.499   3.882  52.155  1.00  0.00     0.031 C 
HETATM   15  C16 UNL     1      22.899   4.257  52.320  1.00  0.00    -0.030 C 
HETATM   16  C17 UNL     1      24.072   3.670  52.667  1.00  0.00    -0.025 C 
HETATM   17  C18 UNL     1      23.783   2.237  52.945  1.00  0.00     0.055 C 
HETATM   18  C19 UNL     1      24.622   1.246  53.327  1.00  0.00     0.021 C 
HETATM   19  C20 UNL     1      23.749   0.051  53.440  1.00  0.00     0.300 C 
HETATM   20  N5  UNL     1      22.872  -0.925  53.502  1.00  0.00    -0.230 NA
HETATM   21  C21 UNL     1      19.431   3.721  50.813  1.00  0.00     0.052 C 
HETATM   22  C22 UNL     1      19.250   2.375  51.470  1.00  0.00     0.188 C 
ENDROOT
BRANCH   1  23
HETATM   23  C5  UNL     1      16.679   2.534  50.956  1.00  0.00     0.087 C 
HETATM   24  C4  UNL     1      15.482   2.561  51.553  1.00  0.00     0.026 C 
BRANCH  24  25
HETATM   25  C3  UNL     1      14.312   3.256  50.990  1.00  0.00     0.177 C 
BRANCH  25  26
HETATM   26  C2  UNL     1      14.743   4.419  50.129  1.00  0.00    -0.001 C 
HETATM   27  C1  UNL     1      13.859   4.818  49.207  1.00  0.00     0.010 C 
ENDBRANCH  25  26
BRANCH  25  28
HETATM   28  O2  UNL     1      13.528   3.805  52.055  1.00  0.00    -0.315 OA
BRANCH  28  29
HETATM   29  C23 UNL     1      13.956   3.891  53.351  1.00  0.00     0.399 C 
HETATM   30  O3  UNL     1      14.080   4.819  54.191  1.00  0.00    -0.276 OA
ENDBRANCH  28  29
ENDBRANCH  25  28
ENDBRANCH  24  25
ENDBRANCH   1  23
BRANCH  11  31
HETATM   31  O1  UNL     1      22.608   1.438  50.122  1.00  0.00    -0.394 OA
HETATM   32  H13 UNL     1      23.281   0.941  49.601  1.00  0.00     0.210 HD
ENDBRANCH  11  31
TORSDOF 6
ENDMDL
MODEL 8
REMARK VINA RESULT:      -7.4      3.098      5.040
REMARK  6 active torsions:
REMARK  status: ('A' for Active; 'I' for Inactive)
REMARK    1  A    between atoms: C2_2  and  C3_3 
REMARK    2  A    between atoms: C3_3  and  C4_4 
REMARK    3  A    between atoms: C3_3  and  O2_29 
REMARK    4  A    between atoms: C5_5  and  N1_6 
REMARK    5  A    between atoms: C12_16  and  O1_17 
REMARK    6  A    between atoms: O2_29  and  C23_30 
ROOT
HETATM    1  N1  UNL     1      24.848   2.530  50.991  1.00  0.00    -0.365 N 
HETATM    2  C6  UNL     1      25.688   3.621  50.441  1.00  0.00     0.168 C 
HETATM    3  C7  UNL     1      24.882   4.809  50.078  1.00  0.00     0.024 A 
HETATM    4  C8  UNL     1      25.058   6.170  50.205  1.00  0.00     0.149 A 
HETATM    5  N2  UNL     1      24.120   7.043  49.798  1.00  0.00    -0.075 NA
HETATM    6  C9  UNL     1      22.962   6.671  49.245  1.00  0.00     0.718 A 
HETATM    7  N3  UNL     1      22.700   5.363  49.076  1.00  0.00    -0.045 NA
HETATM    8  C10 UNL     1      23.645   4.508  49.489  1.00  0.00     0.156 A 
HETATM    9  N4  UNL     1      23.334   3.134  49.373  1.00  0.00    -0.341 N 
HETATM   10  C11 UNL     1      23.009   2.170  48.370  1.00  0.00     0.158 C 
HETATM   11  C12 UNL     1      21.515   2.141  48.194  1.00  0.00     0.136 C 
HETATM   12  C13 UNL     1      20.854   1.428  49.295  1.00  0.00     0.038 C 
HETATM   13  C14 UNL     1      21.190   1.731  50.698  1.00  0.00    -0.005 C 
HETATM   14  C15 UNL     1      20.701   3.019  51.264  1.00  0.00     0.031 C 
HETATM   15  C16 UNL     1      19.295   3.337  51.037  1.00  0.00    -0.030 C 
HETATM   16  C17 UNL     1      18.559   4.318  50.457  1.00  0.00    -0.025 C 
HETATM   17  C18 UNL     1      19.511   5.324  49.915  1.00  0.00     0.055 C 
HETATM   18  C19 UNL     1      19.264   6.478  49.253  1.00  0.00     0.021 C 
HETATM   19  C20 UNL     1      20.610   7.036  48.973  1.00  0.00     0.300 C 
HETATM   20  N5  UNL     1      21.853   7.419  48.789  1.00  0.00    -0.230 NA
HETATM   21  C21 UNL     1      22.653   1.517  51.069  1.00  0.00     0.052 C 
HETATM   22  C22 UNL     1      23.443   2.774  50.799  1.00  0.00     0.188 C 
ENDROOT
BRANCH   1  23
HETATM   23  C5  UNL     1      25.611   1.508  51.572  1.00  0.00     0.087 C 
HETATM   24  C4  UNL     1      26.873   1.492  52.015  1.00  0.00     0.026 C 
BRANCH  24  25
HETATM   25  C3  UNL     1      27.509   0.302  52.604  1.00  0.00     0.177 C 
BRANCH  25  26
HETATM   26  C2  UNL     1      26.480  -0.761  52.906  1.00  0.00    -0.001 C 
HETATM   27  C1  UNL     1      26.770  -1.991  52.463  1.00  0.00     0.010 C 
ENDBRANCH  25  26
BRANCH  25  28
HETATM   28  O2  UNL     1      28.110   0.655  53.855  1.00  0.00    -0.315 OA
BRANCH  28  29
HETATM   29  C23 UNL     1      29.003   1.680  54.009  1.00  0.00     0.399 C 
HETATM   30  O3  UNL     1      29.504   2.286  54.991  1.00  0.00    -0.276 OA
ENDBRANCH  28  29
ENDBRANCH  25  28
ENDBRANCH  24  25
ENDBRANCH   1  23
BRANCH  11  31
HETATM   31  O1  UNL     1      21.117   3.440  47.950  1.00  0.00    -0.394 OA
HETATM   32  H13 UNL     1      21.504   4.090  48.582  1.00  0.00     0.210 HD
ENDBRANCH  11  31
TORSDOF 6
ENDMDL
MODEL 9
REMARK VINA RESULT:      -7.3      4.315      6.842
REMARK  6 active torsions:
REMARK  status: ('A' for Active; 'I' for Inactive)
REMARK    1  A    between atoms: C2_2  and  C3_3 
REMARK    2  A    between atoms: C3_3  and  C4_4 
REMARK    3  A    between atoms: C3_3  and  O2_29 
REMARK    4  A    between atoms: C5_5  and  N1_6 
REMARK    5  A    between atoms: C12_16  and  O1_17 
REMARK    6  A    between atoms: O2_29  and  C23_30 
ROOT
HETATM    1  N1  UNL     1      24.540   3.572  51.216  1.00  0.00    -0.365 N 
HETATM    2  C6  UNL     1      25.733   3.539  50.335  1.00  0.00     0.168 C 
HETATM    3  C7  UNL     1      25.815   4.739  49.472  1.00  0.00     0.024 A 
HETATM    4  C8  UNL     1      26.842   5.560  49.056  1.00  0.00     0.149 A 
HETATM    5  N2  UNL     1      26.617   6.627  48.269  1.00  0.00    -0.075 NA
HETATM    6  C9  UNL     1      25.402   6.973  47.832  1.00  0.00     0.718 A 
HETATM    7  N3  UNL     1      24.337   6.232  48.183  1.00  0.00    -0.045 NA
HETATM    8  C10 UNL     1      24.580   5.173  48.968  1.00  0.00     0.156 A 
HETATM    9  N4  UNL     1      23.449   4.439  49.390  1.00  0.00    -0.341 N 
HETATM   10  C11 UNL     1      22.371   3.683  48.837  1.00  0.00     0.158 C 
HETATM   11  C12 UNL     1      21.211   4.608  48.583  1.00  0.00     0.136 C 
HETATM   12  C13 UNL     1      20.515   4.957  49.828  1.00  0.00     0.038 C 
HETATM   13  C14 UNL     1      21.269   5.406  51.013  1.00  0.00    -0.005 C 
HETATM   14  C15 UNL     1      21.857   6.774  50.981  1.00  0.00     0.031 C 
HETATM   15  C16 UNL     1      20.972   7.852  50.549  1.00  0.00    -0.030 C 
HETATM   16  C17 UNL     1      20.926   8.795  49.575  1.00  0.00    -0.025 C 
HETATM   17  C18 UNL     1      22.149   8.634  48.744  1.00  0.00     0.055 C 
HETATM   18  C19 UNL     1      22.554   9.335  47.660  1.00  0.00     0.021 C 
HETATM   19  C20 UNL     1      23.840   8.702  47.275  1.00  0.00     0.300 C 
HETATM   20  N5  UNL     1      24.960   8.056  47.040  1.00  0.00    -0.230 NA
HETATM   21  C21 UNL     1      22.294   4.407  51.539  1.00  0.00     0.052 C 
HETATM   22  C22 UNL     1      23.617   4.612  50.844  1.00  0.00     0.188 C 
ENDROOT
BRANCH   1  23
HETATM   23  C5  UNL     1      24.581   2.584  52.208  1.00  0.00     0.087 C 
HETATM   24  C4  UNL     1      24.600   1.249  52.125  1.00  0.00     0.026 C 
BRANCH  24  25
HETATM   25  C3  UNL     1      24.644   0.365  53.301  1.00  0.00     0.177 C 
BRANCH  25  26
HETATM   26  C2  UNL     1      25.680  -0.717  53.120  1.00  0.00    -0.001 C 
HETATM   27  C1  UNL     1      26.632  -0.463  52.214  1.00  0.00     0.010 C 
ENDBRANCH  25  26
BRANCH  25  28
HETATM   28  O2  UNL     1      23.382  -0.298  53.444  1.00  0.00    -0.315 OA
BRANCH  28  29
HETATM   29  C23 UNL     1      22.980  -0.934  54.587  1.00  0.00     0.399 C 
HETATM   30  O3  UNL     1      21.878  -1.324  55.050  1.00  0.00    -0.276 OA
ENDBRANCH  28  29
ENDBRANCH  25  28
ENDBRANCH  24  25
ENDBRANCH   1  23
BRANCH  11  31
HETATM   31  O1  UNL     1      21.692   5.648  47.813  1.00  0.00    -0.394 OA
HETATM   32  H13 UNL     1      21.053   5.949  47.125  1.00  0.00     0.210 HD
ENDBRANCH  11  31
TORSDOF 6
ENDMDL
