MODEL 1
REMARK VINA RESULT:      -8.8      0.000      0.000
REMARK  5 active torsions:
REMARK  status: ('A' for Active; 'I' for Inactive)
REMARK    1  A    between atoms: C6_6  and  N1_7 
REMARK    2  A    between atoms: N1_7  and  C7_8 
REMARK    3  A    between atoms: N2_9  and  C8_10 
REMARK    4  A    between atoms: N3_11  and  C9_12 
REMARK    5  A    between atoms: C9_12  and  N4_13 
ROOT
HETATM    1  C9  UNL     1      23.110   3.751  49.709  1.00  0.00     0.424 C 
ENDROOT
BRANCH   1   2
HETATM    2  N3  UNL     1      23.850   4.863  50.209  1.00  0.00    -0.253 NA
HETATM    3  C8  UNL     1      25.130   5.014  50.104  1.00  0.00     0.230 C 
BRANCH   3   4
HETATM    4  N2  UNL     1      25.810   3.981  49.438  1.00  0.00    -0.237 NA
HETATM    5  C7  UNL     1      26.533   3.138  50.061  1.00  0.00     0.208 C 
BRANCH   5   6
HETATM    6  N1  UNL     1      26.712   3.167  51.467  1.00  0.00    -0.351 N 
HETATM    7  H7  UNL     1      26.565   4.096  51.971  1.00  0.00     0.166 HD
BRANCH   6   8
HETATM    8  C6  UNL     1      27.098   1.983  52.143  1.00  0.00     0.033 A 
HETATM    9  C5  UNL     1      28.081   2.191  53.116  1.00  0.00     0.029 A 
HETATM   10  C4  UNL     1      28.571   1.128  53.833  1.00  0.00     0.003 A 
HETATM   11  C3  UNL     1      28.158  -0.176  53.667  1.00  0.00     0.007 A 
HETATM   12  C2  UNL     1      27.183  -0.361  52.699  1.00  0.00    -0.060 A 
HETATM   13  C1  UNL     1      26.668  -1.713  52.440  1.00  0.00     0.048 C 
HETATM   14  C21 UNL     1      26.686   0.706  51.973  1.00  0.00     0.036 A 
ENDBRANCH   6   8
ENDBRANCH   5   6
ENDBRANCH   3   4
ENDBRANCH   1   2
BRANCH   1  15
HETATM   15  N4  UNL     1      22.404   2.969  50.665  1.00  0.00     0.130 NA
HETATM   16  C10 UNL     1      23.349   2.242  51.498  1.00  0.00     0.282 C 
HETATM   17  C11 UNL     1      22.496   1.368  52.217  1.00  0.00     0.069 C 
HETATM   18  C12 UNL     1      22.447   0.353  53.174  1.00  0.00    -0.050 A 
HETATM   19  C13 UNL     1      23.527  -0.136  53.854  1.00  0.00     0.007 A 
HETATM   20  C17 UNL     1      21.122  -0.150  53.336  1.00  0.00    -0.050 A 
HETATM   21  C14 UNL     1      23.374  -1.167  54.749  1.00  0.00     0.001 A 
HETATM   22  C15 UNL     1      22.129  -1.676  54.931  1.00  0.00     0.001 A 
HETATM   23  C16 UNL     1      21.076  -1.173  54.246  1.00  0.00     0.007 A 
HETATM   24  C18 UNL     1      19.909   0.329  52.675  1.00  0.00     0.065 C 
HETATM   25  C19 UNL     1      19.831   0.641  51.217  1.00  0.00     0.174 C 
HETATM   26  O1  UNL     1      20.448   1.535  50.571  1.00  0.00    -0.362 OA
HETATM   27  C20 UNL     1      21.337   2.253  50.034  1.00  0.00     0.442 C 
ENDBRANCH   1  15
TORSDOF 5
ENDMDL
MODEL 2
REMARK VINA RESULT:      -8.2      2.404      6.198
REMARK  5 active torsions:
REMARK  status: ('A' for Active; 'I' for Inactive)
REMARK    1  A    between atoms: C6_6  and  N1_7 
REMARK    2  A    between atoms: N1_7  and  C7_8 
REMARK    3  A    between atoms: N2_9  and  C8_10 
REMARK    4  A    between atoms: N3_11  and  C9_12 
REMARK    5  A    between atoms: C9_12  and  N4_13 
ROOT
HETATM    1  C9  UNL     1      23.605   2.081  52.480  1.00  0.00     0.424 C 
ENDROOT
BRANCH   1   2
HETATM    2  N3  UNL     1      22.923   0.962  51.917  1.00  0.00    -0.253 NA
HETATM    3  C8  UNL     1      22.694  -0.155  52.526  1.00  0.00     0.230 C 
BRANCH   3   4
HETATM    4  N2  UNL     1      23.169  -0.236  53.845  1.00  0.00    -0.237 NA
HETATM    5  C7  UNL     1      24.358  -0.603  54.112  1.00  0.00     0.208 C 
BRANCH   5   6
HETATM    6  N1  UNL     1      25.299  -0.956  53.113  1.00  0.00    -0.351 N 
HETATM    7  H7  UNL     1      24.977  -1.606  52.330  1.00  0.00     0.166 HD
BRANCH   6   8
HETATM    8  C6  UNL     1      26.625  -0.463  53.199  1.00  0.00     0.033 A 
HETATM    9  C5  UNL     1      27.600  -1.464  53.124  1.00  0.00     0.029 A 
HETATM   10  C4  UNL     1      28.928  -1.134  53.221  1.00  0.00     0.003 A 
HETATM   11  C3  UNL     1      29.398   0.150  53.391  1.00  0.00     0.007 A 
HETATM   12  C2  UNL     1      28.417   1.127  53.463  1.00  0.00    -0.060 A 
HETATM   13  C1  UNL     1      28.808   2.532  53.643  1.00  0.00     0.048 C 
HETATM   14  C21 UNL     1      27.077   0.801  53.367  1.00  0.00     0.036 A 
ENDBRANCH   6   8
ENDBRANCH   5   6
ENDBRANCH   3   4
ENDBRANCH   1   2
BRANCH   1  15
HETATM   15  N4  UNL     1      23.877   3.172  51.609  1.00  0.00     0.130 NA
HETATM   16  C10 UNL     1      25.164   2.974  50.961  1.00  0.00     0.282 C 
HETATM   17  C11 UNL     1      25.370   4.224  50.328  1.00  0.00     0.069 C 
HETATM   18  C12 UNL     1      26.242   4.971  49.535  1.00  0.00    -0.050 A 
HETATM   19  C13 UNL     1      27.417   4.508  49.010  1.00  0.00     0.007 A 
HETATM   20  C17 UNL     1      25.777   6.308  49.362  1.00  0.00    -0.050 A 
HETATM   21  C14 UNL     1      28.223   5.341  48.274  1.00  0.00     0.001 A 
HETATM   22  C15 UNL     1      27.818   6.623  48.088  1.00  0.00     0.001 A 
HETATM   23  C16 UNL     1      26.650   7.056  48.616  1.00  0.00     0.007 A 
HETATM   24  C18 UNL     1      24.526   6.880  49.860  1.00  0.00     0.065 C 
HETATM   25  C19 UNL     1      24.013   6.663  51.244  1.00  0.00     0.174 C 
HETATM   26  O1  UNL     1      23.650   5.581  51.788  1.00  0.00    -0.362 OA
HETATM   27  C20 UNL     1      23.612   4.414  52.268  1.00  0.00     0.442 C 
ENDBRANCH   1  15
TORSDOF 5
ENDMDL
MODEL 3
REMARK VINA RESULT:      -8.2      2.108      5.338
REMARK  5 active torsions:
REMARK  status: ('A' for Active; 'I' for Inactive)
REMARK    1  A    between atoms: C6_6  and  N1_7 
REMARK    2  A    between atoms: N1_7  and  C7_8 
REMARK    3  A    between atoms: N2_9  and  C8_10 
REMARK    4  A    between atoms: N3_11  and  C9_12 
REMARK    5  A    between atoms: C9_12  and  N4_13 
ROOT
HETATM    1  C9  UNL     1      21.659   1.122  52.811  1.00  0.00     0.424 C 
ENDROOT
BRANCH   1   2
HETATM    2  N3  UNL     1      21.773  -0.245  52.421  1.00  0.00    -0.253 NA
HETATM    3  C8  UNL     1      22.380  -1.165  53.096  1.00  0.00     0.230 C 
BRANCH   3   4
HETATM    4  N2  UNL     1      22.963  -0.747  54.304  1.00  0.00    -0.237 NA
HETATM    5  C7  UNL     1      24.215  -0.546  54.414  1.00  0.00     0.208 C 
BRANCH   5   6
HETATM    6  N1  UNL     1      25.123  -0.723  53.340  1.00  0.00    -0.351 N 
HETATM    7  H7  UNL     1      24.808  -1.320  52.513  1.00  0.00     0.166 HD
BRANCH   6   8
HETATM    8  C6  UNL     1      26.408  -0.131  53.410  1.00  0.00     0.033 A 
HETATM    9  C5  UNL     1      26.379   1.268  53.425  1.00  0.00     0.029 A 
HETATM   10  C4  UNL     1      27.553   1.977  53.464  1.00  0.00     0.003 A 
HETATM   11  C3  UNL     1      28.806   1.402  53.492  1.00  0.00     0.007 A 
HETATM   12  C2  UNL     1      28.813   0.016  53.477  1.00  0.00    -0.060 A 
HETATM   13  C1  UNL     1      30.096  -0.700  53.505  1.00  0.00     0.048 C 
HETATM   14  C21 UNL     1      27.633  -0.703  53.436  1.00  0.00     0.036 A 
ENDBRANCH   6   8
ENDBRANCH   5   6
ENDBRANCH   3   4
ENDBRANCH   1   2
BRANCH   1  15
HETATM   15  N4  UNL     1      22.077   2.096  51.863  1.00  0.00     0.130 NA
HETATM   16  C10 UNL     1      23.483   1.904  51.548  1.00  0.00     0.282 C 
HETATM   17  C11 UNL     1      23.777   3.064  50.790  1.00  0.00     0.069 C 
HETATM   18  C12 UNL     1      24.775   3.754  50.101  1.00  0.00    -0.050 A 
HETATM   19  C13 UNL     1      26.055   3.309  49.921  1.00  0.00     0.007 A 
HETATM   20  C17 UNL     1      24.308   5.016  49.628  1.00  0.00    -0.050 A 
HETATM   21  C14 UNL     1      26.973   4.087  49.258  1.00  0.00     0.001 A 
HETATM   22  C15 UNL     1      26.569   5.297  48.794  1.00  0.00     0.001 A 
HETATM   23  C16 UNL     1      25.296   5.714  48.984  1.00  0.00     0.007 A 
HETATM   24  C18 UNL     1      22.955   5.559  49.749  1.00  0.00     0.065 C 
HETATM   25  C19 UNL     1      22.152   5.502  51.006  1.00  0.00     0.174 C 
HETATM   26  O1  UNL     1      21.720   4.484  51.617  1.00  0.00    -0.362 OA
HETATM   27  C20 UNL     1      21.621   3.396  52.251  1.00  0.00     0.442 C 
ENDBRANCH   1  15
TORSDOF 5
ENDMDL
MODEL 4
REMARK VINA RESULT:      -8.2      2.617      4.511
REMARK  5 active torsions:
REMARK  status: ('A' for Active; 'I' for Inactive)
REMARK    1  A    between atoms: C6_6  and  N1_7 
REMARK    2  A    between atoms: N1_7  and  C7_8 
REMARK    3  A    between atoms: N2_9  and  C8_10 
REMARK    4  A    between atoms: N3_11  and  C9_12 
REMARK    5  A    between atoms: C9_12  and  N4_13 
ROOT
HETATM    1  C9  UNL     1      21.580   5.658  51.273  1.00  0.00     0.424 C 
ENDROOT
BRANCH   1   2
HETATM    2  N3  UNL     1      21.621   6.127  49.927  1.00  0.00    -0.253 NA
HETATM    3  C8  UNL     1      22.312   7.138  49.511  1.00  0.00     0.230 C 
BRANCH   3   4
HETATM    4  N2  UNL     1      23.069   7.800  50.491  1.00  0.00    -0.237 NA
HETATM    5  C7  UNL     1      24.278   8.147  50.288  1.00  0.00     0.208 C 
BRANCH   5   6
HETATM    6  N1  UNL     1      24.958   7.898  49.070  1.00  0.00    -0.351 N 
HETATM    7  H7  UNL     1      24.749   8.538  48.242  1.00  0.00     0.166 HD
BRANCH   6   8
HETATM    8  C6  UNL     1      25.859   6.809  48.986  1.00  0.00     0.033 A 
HETATM    9  C5  UNL     1      27.076   7.136  48.376  1.00  0.00     0.029 A 
HETATM   10  C4  UNL     1      28.036   6.171  48.203  1.00  0.00     0.003 A 
HETATM   11  C3  UNL     1      27.895   4.857  48.595  1.00  0.00     0.007 A 
HETATM   12  C2  UNL     1      26.684   4.554  49.197  1.00  0.00    -0.060 A 
HETATM   13  C1  UNL     1      26.428   3.181  49.656  1.00  0.00     0.048 C 
HETATM   14  C21 UNL     1      25.713   5.521  49.374  1.00  0.00     0.036 A 
ENDBRANCH   6   8
ENDBRANCH   5   6
ENDBRANCH   3   4
ENDBRANCH   1   2
BRANCH   1  15
HETATM   15  N4  UNL     1      22.139   4.374  51.522  1.00  0.00     0.130 NA
HETATM   16  C10 UNL     1      21.116   3.488  52.054  1.00  0.00     0.282 C 
HETATM   17  C11 UNL     1      21.878   2.360  52.446  1.00  0.00     0.069 C 
HETATM   18  C12 UNL     1      21.823   1.090  53.023  1.00  0.00    -0.050 A 
HETATM   19  C13 UNL     1      20.677   0.456  53.416  1.00  0.00     0.007 A 
HETATM   20  C17 UNL     1      23.126   0.535  53.192  1.00  0.00    -0.050 A 
HETATM   21  C14 UNL     1      20.738  -0.780  54.012  1.00  0.00     0.001 A 
HETATM   22  C15 UNL     1      21.960  -1.342  54.193  1.00  0.00     0.001 A 
HETATM   23  C16 UNL     1      23.079  -0.695  53.794  1.00  0.00     0.007 A 
HETATM   24  C18 UNL     1      24.398   1.126  52.778  1.00  0.00     0.065 C 
HETATM   25  C19 UNL     1      24.756   2.557  53.003  1.00  0.00     0.174 C 
HETATM   26  O1  UNL     1      24.205   3.589  52.525  1.00  0.00    -0.362 OA
HETATM   27  C20 UNL     1      23.384   4.498  52.217  1.00  0.00     0.442 C 
ENDBRANCH   1  15
TORSDOF 5
ENDMDL
MODEL 5
REMARK VINA RESULT:      -8.2      1.843      4.688
REMARK  5 active torsions:
REMARK  status: ('A' for Active; 'I' for Inactive)
REMARK    1  A    between atoms: C6_6  and  N1_7 
REMARK    2  A    between atoms: N1_7  and  C7_8 
REMARK    3  A    between atoms: N2_9  and  C8_10 
REMARK    4  A    between atoms: N3_11  and  C9_12 
REMARK    5  A    between atoms: C9_12  and  N4_13 
ROOT
HETATM    1  C9  UNL     1      20.787   3.081  50.992  1.00  0.00     0.424 C 
ENDROOT
BRANCH   1   2
HETATM    2  N3  UNL     1      20.656   4.462  51.324  1.00  0.00    -0.253 NA
HETATM    3  C8  UNL     1      20.899   5.448  50.524  1.00  0.00     0.230 C 
BRANCH   3   4
HETATM    4  N2  UNL     1      21.325   5.091  49.234  1.00  0.00    -0.237 NA
HETATM    5  C7  UNL     1      22.555   5.105  48.903  1.00  0.00     0.208 C 
BRANCH   5   6
HETATM    6  N1  UNL     1      23.591   5.475  49.796  1.00  0.00    -0.351 N 
HETATM    7  H7  UNL     1      23.313   5.856  50.754  1.00  0.00     0.166 HD
BRANCH   6   8
HETATM    8  C6  UNL     1      24.941   5.352  49.386  1.00  0.00     0.033 A 
HETATM    9  C5  UNL     1      25.480   4.080  49.609  1.00  0.00     0.029 A 
HETATM   10  C4  UNL     1      26.788   3.824  49.284  1.00  0.00     0.003 A 
HETATM   11  C3  UNL     1      27.647   4.751  48.734  1.00  0.00     0.007 A 
HETATM   12  C2  UNL     1      27.094   6.004  48.520  1.00  0.00    -0.060 A 
HETATM   13  C1  UNL     1      27.922   7.069  47.936  1.00  0.00     0.048 C 
HETATM   14  C21 UNL     1      25.777   6.268  48.846  1.00  0.00     0.036 A 
ENDBRANCH   6   8
ENDBRANCH   5   6
ENDBRANCH   3   4
ENDBRANCH   1   2
BRANCH   1  15
HETATM   15  N4  UNL     1      21.611   2.293  51.842  1.00  0.00     0.130 NA
HETATM   16  C10 UNL     1      22.995   2.380  51.405  1.00  0.00     0.282 C 
HETATM   17  C11 UNL     1      23.618   1.385  52.197  1.00  0.00     0.069 C 
HETATM   18  C12 UNL     1      24.826   0.747  52.486  1.00  0.00    -0.050 A 
HETATM   19  C13 UNL     1      26.033   1.065  51.931  1.00  0.00     0.007 A 
HETATM   20  C17 UNL     1      24.645  -0.318  53.417  1.00  0.00    -0.050 A 
HETATM   21  C14 UNL     1      27.157   0.346  52.256  1.00  0.00     0.001 A 
HETATM   22  C15 UNL     1      27.027  -0.678  53.137  1.00  0.00     0.001 A 
HETATM   23  C16 UNL     1      25.821  -0.972  53.674  1.00  0.00     0.007 A 
HETATM   24  C18 UNL     1      23.401  -0.710  54.081  1.00  0.00     0.065 C 
HETATM   25  C19 UNL     1      22.092  -0.831  53.375  1.00  0.00     0.174 C 
HETATM   26  O1  UNL     1      21.418   0.074  52.808  1.00  0.00    -0.362 OA
HETATM   27  C20 UNL     1      21.025   1.003  52.047  1.00  0.00     0.442 C 
ENDBRANCH   1  15
TORSDOF 5
ENDMDL
MODEL 6
REMARK VINA RESULT:      -8.1      2.809      7.416
REMARK  5 active torsions:
REMARK  status: ('A' for Active; 'I' for Inactive)
REMARK    1  A    between atoms: C6_6  and  N1_7 
REMARK    2  A    between atoms: N1_7  and  C7_8 
REMARK    3  A    between atoms: N2_9  and  C8_10 
REMARK    4  A    between atoms: N3_11  and  C9_12 
REMARK    5  A    between atoms: C9_12  and  N4_13 
ROOT
HETATM    1  C9  UNL     1      24.961   2.357  51.193  1.00  0.00     0.424 C 
ENDROOT
BRANCH   1   2
HETATM    2  N3  UNL     1      25.335   2.589  52.549  1.00  0.00    -0.253 NA
HETATM    3  C8  UNL     1      25.952   1.742  53.307  1.00  0.00     0.230 C 
BRANCH   3   4
HETATM    4  N2  UNL     1      26.262   0.508  52.712  1.00  0.00    -0.237 NA
HETATM    5  C7  UNL     1      25.741  -0.583  53.114  1.00  0.00     0.208 C 
BRANCH   5   6
HETATM    6  N1  UNL     1      24.814  -0.647  54.184  1.00  0.00    -0.351 N 
HETATM    7  H7  UNL     1      25.199  -0.742  55.174  1.00  0.00     0.166 HD
BRANCH   6   8
HETATM    8  C6  UNL     1      23.425  -0.609  53.904  1.00  0.00     0.033 A 
HETATM    9  C5  UNL     1      22.640  -1.226  54.883  1.00  0.00     0.029 A 
HETATM   10  C4  UNL     1      21.279  -1.288  54.731  1.00  0.00     0.003 A 
HETATM   11  C3  UNL     1      20.594  -0.772  53.651  1.00  0.00     0.007 A 
HETATM   12  C2  UNL     1      21.390  -0.164  52.692  1.00  0.00    -0.060 A 
HETATM   13  C1  UNL     1      20.763   0.421  51.499  1.00  0.00     0.048 C 
HETATM   14  C21 UNL     1      22.762  -0.099  52.840  1.00  0.00     0.036 A 
ENDBRANCH   6   8
ENDBRANCH   5   6
ENDBRANCH   3   4
ENDBRANCH   1   2
BRANCH   1  15
HETATM   15  N4  UNL     1      25.176   3.423  50.276  1.00  0.00     0.130 NA
HETATM   16  C10 UNL     1      26.587   3.497  49.931  1.00  0.00     0.282 C 
HETATM   17  C11 UNL     1      26.652   4.717  49.215  1.00  0.00     0.069 C 
HETATM   18  C12 UNL     1      27.495   5.599  48.536  1.00  0.00    -0.050 A 
HETATM   19  C13 UNL     1      28.829   5.397  48.318  1.00  0.00     0.007 A 
HETATM   20  C17 UNL     1      26.799   6.772  48.120  1.00  0.00    -0.050 A 
HETATM   21  C14 UNL     1      29.578   6.349  47.672  1.00  0.00     0.001 A 
HETATM   22  C15 UNL     1      28.954   7.483  47.262  1.00  0.00     0.001 A 
HETATM   23  C16 UNL     1      27.632   7.658  47.488  1.00  0.00     0.007 A 
HETATM   24  C18 UNL     1      25.374   7.059  48.284  1.00  0.00     0.065 C 
HETATM   25  C19 UNL     1      24.623   6.816  49.550  1.00  0.00     0.174 C 
HETATM   26  O1  UNL     1      24.393   5.716  50.128  1.00  0.00    -0.362 OA
HETATM   27  C20 UNL     1      24.504   4.606  50.721  1.00  0.00     0.442 C 
ENDBRANCH   1  15
TORSDOF 5
ENDMDL
MODEL 7
REMARK VINA RESULT:      -7.8      3.298      7.170
REMARK  5 active torsions:
REMARK  status: ('A' for Active; 'I' for Inactive)
REMARK    1  A    between atoms: C6_6  and  N1_7 
REMARK    2  A    between atoms: N1_7  and  C7_8 
REMARK    3  A    between atoms: N2_9  and  C8_10 
REMARK    4  A    between atoms: N3_11  and  C9_12 
REMARK    5  A    between atoms: C9_12  and  N4_13 
ROOT
HETATM    1  C9  UNL     1      23.741   4.750  50.336  1.00  0.00     0.424 C 
ENDROOT
BRANCH   1   2
HETATM    2  N3  UNL     1      23.862   4.571  51.745  1.00  0.00    -0.253 NA
HETATM    3  C8  UNL     1      24.063   3.440  52.338  1.00  0.00     0.230 C 
BRANCH   3   4
HETATM    4  N2  UNL     1      24.164   2.321  51.494  1.00  0.00    -0.237 NA
HETATM    5  C7  UNL     1      24.691   1.229  51.883  1.00  0.00     0.208 C 
BRANCH   5   6
HETATM    6  N1  UNL     1      25.216   1.047  53.187  1.00  0.00    -0.351 N 
HETATM    7  H7  UNL     1      24.537   1.098  54.010  1.00  0.00     0.166 HD
BRANCH   6   8
HETATM    8  C6  UNL     1      26.606   0.832  53.355  1.00  0.00     0.033 A 
HETATM    9  C5  UNL     1      27.331   2.008  53.577  1.00  0.00     0.029 A 
HETATM   10  C4  UNL     1      28.693   1.954  53.730  1.00  0.00     0.003 A 
HETATM   11  C3  UNL     1      29.434   0.792  53.683  1.00  0.00     0.007 A 
HETATM   12  C2  UNL     1      28.697  -0.362  53.462  1.00  0.00    -0.060 A 
HETATM   13  C1  UNL     1      29.387  -1.657  53.395  1.00  0.00     0.048 C 
HETATM   14  C21 UNL     1      27.325  -0.313  53.307  1.00  0.00     0.036 A 
ENDBRANCH   6   8
ENDBRANCH   5   6
ENDBRANCH   3   4
ENDBRANCH   1   2
BRANCH   1  15
HETATM   15  N4  UNL     1      24.688   5.611  49.715  1.00  0.00     0.130 NA
HETATM   16  C10 UNL     1      25.866   4.851  49.332  1.00  0.00     0.282 C 
HETATM   17  C11 UNL     1      26.767   5.875  48.950  1.00  0.00     0.069 C 
HETATM   18  C12 UNL     1      28.053   6.148  48.480  1.00  0.00    -0.050 A 
HETATM   19  C13 UNL     1      28.985   5.202  48.153  1.00  0.00     0.007 A 
HETATM   20  C17 UNL     1      28.300   7.551  48.416  1.00  0.00    -0.050 A 
HETATM   21  C14 UNL     1      30.238   5.580  47.737  1.00  0.00     0.001 A 
HETATM   22  C15 UNL     1      30.515   6.907  47.663  1.00  0.00     0.001 A 
HETATM   23  C16 UNL     1      29.575   7.822  47.992  1.00  0.00     0.007 A 
HETATM   24  C18 UNL     1      27.358   8.629  48.718  1.00  0.00     0.065 C 
HETATM   25  C19 UNL     1      26.467   8.634  49.914  1.00  0.00     0.174 C 
HETATM   26  O1  UNL     1      25.531   7.835  50.200  1.00  0.00    -0.362 OA
HETATM   27  C20 UNL     1      24.850   6.809  50.482  1.00  0.00     0.442 C 
ENDBRANCH   1  15
TORSDOF 5
ENDMDL
MODEL 8
REMARK VINA RESULT:      -7.8      3.166      5.463
REMARK  5 active torsions:
REMARK  status: ('A' for Active; 'I' for Inactive)
REMARK    1  A    between atoms: C6_6  and  N1_7 
REMARK    2  A    between atoms: N1_7  and  C7_8 
REMARK    3  A    between atoms: N2_9  and  C8_10 
REMARK    4  A    between atoms: N3_11  and  C9_12 
REMARK    5  A    between atoms: C9_12  and  N4_13 
ROOT
HETATM    1  C9  UNL     1      26.085   3.448  50.448  1.00  0.00     0.424 C 
ENDROOT
BRANCH   1   2
HETATM    2  N3  UNL     1      25.205   3.768  49.372  1.00  0.00    -0.253 NA
HETATM    3  C8  UNL     1      24.627   4.911  49.198  1.00  0.00     0.230 C 
BRANCH   3   4
HETATM    4  N2  UNL     1      24.912   5.890  50.165  1.00  0.00    -0.237 NA
HETATM    5  C7  UNL     1      25.664   6.886  49.913  1.00  0.00     0.208 C 
BRANCH   5   6
HETATM    6  N1  UNL     1      26.272   7.094  48.650  1.00  0.00    -0.351 N 
HETATM    7  H7  UNL     1      25.636   7.288  47.815  1.00  0.00     0.166 HD
BRANCH   6   8
HETATM    8  C6  UNL     1      27.682   7.014  48.534  1.00  0.00     0.033 A 
HETATM    9  C5  UNL     1      28.152   5.715  48.313  1.00  0.00     0.029 A 
HETATM   10  C4  UNL     1      29.499   5.482  48.207  1.00  0.00     0.003 A 
HETATM   11  C3  UNL     1      30.465   6.461  48.304  1.00  0.00     0.007 A 
HETATM   12  C2  UNL     1      29.980   7.742  48.522  1.00  0.00    -0.060 A 
HETATM   13  C1  UNL     1      30.924   8.862  48.640  1.00  0.00     0.048 C 
HETATM   14  C21 UNL     1      28.623   7.981  48.630  1.00  0.00     0.036 A 
ENDBRANCH   6   8
ENDBRANCH   5   6
ENDBRANCH   3   4
ENDBRANCH   1   2
BRANCH   1  15
HETATM   15  N4  UNL     1      25.778   2.281  51.201  1.00  0.00     0.130 NA
HETATM   16  C10 UNL     1      24.359   2.260  51.518  1.00  0.00     0.282 C 
HETATM   17  C11 UNL     1      24.278   1.184  52.436  1.00  0.00     0.069 C 
HETATM   18  C12 UNL     1      23.421   0.440  53.250  1.00  0.00    -0.050 A 
HETATM   19  C13 UNL     1      22.068   0.617  53.333  1.00  0.00     0.007 A 
HETATM   20  C17 UNL     1      24.138  -0.517  54.027  1.00  0.00    -0.050 A 
HETATM   21  C14 UNL     1      21.322  -0.144  54.198  1.00  0.00     0.001 A 
HETATM   22  C15 UNL     1      21.966  -1.066  54.958  1.00  0.00     0.001 A 
HETATM   23  C16 UNL     1      23.306  -1.223  54.855  1.00  0.00     0.007 A 
HETATM   24  C18 UNL     1      25.574  -0.794  53.982  1.00  0.00     0.065 C 
HETATM   25  C19 UNL     1      26.619   0.271  53.957  1.00  0.00     0.174 C 
HETATM   26  O1  UNL     1      26.834   1.140  53.065  1.00  0.00    -0.362 OA
HETATM   27  C20 UNL     1      26.730   2.104  52.255  1.00  0.00     0.442 C 
ENDBRANCH   1  15
TORSDOF 5
ENDMDL
MODEL 9
REMARK VINA RESULT:      -7.7      4.589      8.435
REMARK  5 active torsions:
REMARK  status: ('A' for Active; 'I' for Inactive)
REMARK    1  A    between atoms: C6_6  and  N1_7 
REMARK    2  A    between atoms: N1_7  and  C7_8 
REMARK    3  A    between atoms: N2_9  and  C8_10 
REMARK    4  A    between atoms: N3_11  and  C9_12 
REMARK    5  A    between atoms: C9_12  and  N4_13 
ROOT
HETATM    1  C9  UNL     1      25.721   6.367  48.499  1.00  0.00     0.424 C 
ENDROOT
BRANCH   1   2
HETATM    2  N3  UNL     1      25.236   6.240  49.834  1.00  0.00    -0.253 NA
HETATM    3  C8  UNL     1      25.021   5.121  50.445  1.00  0.00     0.230 C 
BRANCH   3   4
HETATM    4  N2  UNL     1      25.299   3.961  49.703  1.00  0.00    -0.237 NA
HETATM    5  C7  UNL     1      26.130   3.086  50.109  1.00  0.00     0.208 C 
BRANCH   5   6
HETATM    6  N1  UNL     1      26.840   3.202  51.330  1.00  0.00    -0.351 N 
HETATM    7  H7  UNL     1      27.147   4.177  51.639  1.00  0.00     0.166 HD
BRANCH   6   8
HETATM    8  C6  UNL     1      27.135   2.035  52.077  1.00  0.00     0.033 A 
HETATM    9  C5  UNL     1      27.995   2.265  53.156  1.00  0.00     0.029 A 
HETATM   10  C4  UNL     1      28.389   1.220  53.953  1.00  0.00     0.003 A 
HETATM   11  C3  UNL     1      27.990  -0.087  53.771  1.00  0.00     0.007 A 
HETATM   12  C2  UNL     1      27.137  -0.294  52.698  1.00  0.00    -0.060 A 
HETATM   13  C1  UNL     1      26.649  -1.651  52.413  1.00  0.00     0.048 C 
HETATM   14  C21 UNL     1      26.738   0.755  51.891  1.00  0.00     0.036 A 
ENDBRANCH   6   8
ENDBRANCH   5   6
ENDBRANCH   3   4
ENDBRANCH   1   2
BRANCH   1  15
HETATM   15  N4  UNL     1      27.004   6.960  48.337  1.00  0.00     0.130 NA
HETATM   16  C10 UNL     1      28.020   5.921  48.272  1.00  0.00     0.282 C 
HETATM   17  C11 UNL     1      29.217   6.675  48.339  1.00  0.00     0.069 C 
HETATM   18  C12 UNL     1      30.611   6.604  48.357  1.00  0.00    -0.050 A 
HETATM   19  C13 UNL     1      31.339   5.453  48.240  1.00  0.00     0.007 A 
HETATM   20  C17 UNL     1      31.198   7.889  48.551  1.00  0.00    -0.050 A 
HETATM   21  C14 UNL     1      32.710   5.490  48.311  1.00  0.00     0.001 A 
HETATM   22  C15 UNL     1      33.309   6.694  48.498  1.00  0.00     0.001 A 
HETATM   23  C16 UNL     1      32.565   7.818  48.609  1.00  0.00     0.007 A 
HETATM   24  C18 UNL     1      30.502   9.171  48.657  1.00  0.00     0.065 C 
HETATM   25  C19 UNL     1      29.277   9.380  49.484  1.00  0.00     0.174 C 
HETATM   26  O1  UNL     1      28.136   8.855  49.344  1.00  0.00    -0.362 OA
HETATM   27  C20 UNL     1      27.173   8.043  49.256  1.00  0.00     0.442 C 
ENDBRANCH   1  15
TORSDOF 5
ENDMDL
