MODEL 1
REMARK VINA RESULT:      -8.7      0.000      0.000
REMARK  4 active torsions:
REMARK  status: ('A' for Active; 'I' for Inactive)
REMARK    1  A    between atoms: N1_1  and  C1_2 
REMARK    2  A    between atoms: C11_17  and  C12_18 
REMARK    3  A    between atoms: C12_18  and  C13_19 
REMARK    4  A    between atoms: C13_19  and  C14_20 
ROOT
HETATM    1  C1  UNL     1      31.411   8.163  49.316  1.00  0.00     0.106 C 
HETATM    2  C2  UNL     1      32.563   7.824  48.725  1.00  0.00     0.097 C 
HETATM    3  S1  UNL     1      33.477   6.697  47.669  1.00  0.00    -0.078 SA
HETATM    4  C3  UNL     1      32.364   5.562  46.782  1.00  0.00     0.201 C 
HETATM    5  C4  UNL     1      32.581   4.191  47.297  1.00  0.00     0.059 C 
HETATM    6  C5  UNL     1      33.478   3.231  47.226  1.00  0.00     0.012 C 
HETATM    7 BR1  UNL     1      33.154   1.602  48.176  1.00  0.00    -0.051 Br
HETATM    8  C6  UNL     1      34.761   3.200  46.493  1.00  0.00     0.019 C 
HETATM    9  C7  UNL     1      35.259   3.759  45.394  1.00  0.00     0.003 C 
HETATM   10  C8  UNL     1      34.696   4.697  44.399  1.00  0.00     0.017 C 
HETATM   11  C9  UNL     1      33.584   5.441  44.423  1.00  0.00     0.086 C 
HETATM   12  N2  UNL     1      32.517   5.654  45.345  1.00  0.00    -0.360 N 
HETATM   13  N3  UNL     1      31.004   5.989  47.091  1.00  0.00    -0.236 NA
HETATM   14  C10 UNL     1      30.704   7.216  46.744  1.00  0.00     0.233 C 
HETATM   15  N4  UNL     1      29.335   7.440  47.130  1.00  0.00    -0.229 NA
HETATM   16  C11 UNL     1      29.031   7.639  48.385  1.00  0.00     0.107 C 
HETATM   17  N5  UNL     1      30.099   7.627  49.356  1.00  0.00    -0.331 N 
HETATM   18  H9  UNL     1      31.647   5.950  44.808  1.00  0.00     0.162 HD
HETATM   19  H20 UNL     1      29.782   7.118  50.210  1.00  0.00     0.168 HD
ENDROOT
BRANCH   1  20
HETATM   20  N1  UNL     1      31.208   9.311  50.166  1.00  0.00    -0.385 N 
HETATM   21  H1  UNL     1      30.253   9.634  49.887  1.00  0.00     0.157 HD
HETATM   22  H2  UNL     1      31.939   9.628  50.853  1.00  0.00     0.157 HD
ENDBRANCH   1  20
BRANCH  16  23
HETATM   23  C12 UNL     1      27.625   7.880  48.867  1.00  0.00     0.083 C 
BRANCH  23  24
HETATM   24  C13 UNL     1      26.736   7.025  48.012  1.00  0.00     0.046 C 
BRANCH  24  25
HETATM   25  C14 UNL     1      26.296   5.768  48.610  1.00  0.00    -0.058 A 
HETATM   26  C15 UNL     1      24.954   5.655  48.869  1.00  0.00     0.007 A 
HETATM   27  C16 UNL     1      24.439   4.506  49.434  1.00  0.00     0.001 A 
HETATM   28  C17 UNL     1      25.277   3.448  49.746  1.00  0.00     0.000 A 
HETATM   29  C18 UNL     1      26.639   3.553  49.488  1.00  0.00     0.001 A 
HETATM   30  C19 UNL     1      27.142   4.720  48.918  1.00  0.00     0.007 A 
ENDBRANCH  24  25
ENDBRANCH  23  24
ENDBRANCH  16  23
TORSDOF 4
ENDMDL
MODEL 2
REMARK VINA RESULT:      -8.3      8.517     11.134
REMARK  4 active torsions:
REMARK  status: ('A' for Active; 'I' for Inactive)
REMARK    1  A    between atoms: N1_1  and  C1_2 
REMARK    2  A    between atoms: C11_17  and  C12_18 
REMARK    3  A    between atoms: C12_18  and  C13_19 
REMARK    4  A    between atoms: C13_19  and  C14_20 
ROOT
HETATM    1  C1  UNL     1      23.321   4.736  52.609  1.00  0.00     0.106 C 
HETATM    2  C2  UNL     1      22.096   4.927  52.105  1.00  0.00     0.097 C 
HETATM    3  S1  UNL     1      20.828   4.459  50.924  1.00  0.00    -0.078 SA
HETATM    4  C3  UNL     1      21.216   2.870  50.122  1.00  0.00     0.201 C 
HETATM    5  C4  UNL     1      21.508   3.122  48.693  1.00  0.00     0.059 C 
HETATM    6  C5  UNL     1      20.869   3.428  47.585  1.00  0.00     0.012 C 
HETATM    7 BR1  UNL     1      21.877   3.627  45.971  1.00  0.00    -0.051 Br
HETATM    8  C6  UNL     1      19.424   3.653  47.368  1.00  0.00     0.019 C 
HETATM    9  C7  UNL     1      18.289   3.233  47.919  1.00  0.00     0.003 C 
HETATM   10  C8  UNL     1      17.994   2.316  49.040  1.00  0.00     0.017 C 
HETATM   11  C9  UNL     1      18.787   1.798  49.985  1.00  0.00     0.086 C 
HETATM   12  N2  UNL     1      20.171   1.887  50.319  1.00  0.00    -0.360 N 
HETATM   13  N3  UNL     1      22.411   2.354  50.782  1.00  0.00    -0.236 NA
HETATM   14  C10 UNL     1      22.303   2.151  52.071  1.00  0.00     0.233 C 
HETATM   15  N4  UNL     1      23.573   1.647  52.525  1.00  0.00    -0.229 NA
HETATM   16  C11 UNL     1      24.589   2.457  52.661  1.00  0.00     0.107 C 
HETATM   17  N5  UNL     1      24.397   3.852  52.345  1.00  0.00    -0.331 N 
HETATM   18  H9  UNL     1      20.463   1.001  50.831  1.00  0.00     0.162 HD
HETATM   19  H20 UNL     1      25.233   4.207  51.830  1.00  0.00     0.168 HD
ENDROOT
BRANCH   1  20
HETATM   20  N1  UNL     1      23.912   5.489  53.688  1.00  0.00    -0.385 N 
HETATM   21  H1  UNL     1      23.124   5.564  54.371  1.00  0.00     0.157 HD
HETATM   22  H2  UNL     1      24.911   5.817  53.654  1.00  0.00     0.157 HD
ENDBRANCH   1  20
BRANCH  16  23
HETATM   23  C12 UNL     1      25.948   2.007  53.131  1.00  0.00     0.083 C 
BRANCH  23  24
HETATM   24  C13 UNL     1      26.060   0.557  52.763  1.00  0.00     0.046 C 
BRANCH  24  25
HETATM   25  C14 UNL     1      27.353  -0.068  53.026  1.00  0.00    -0.058 A 
HETATM   26  C15 UNL     1      28.362   0.769  53.429  1.00  0.00     0.007 A 
HETATM   27  C16 UNL     1      29.621   0.276  53.703  1.00  0.00     0.001 A 
HETATM   28  C17 UNL     1      29.881  -1.079  53.572  1.00  0.00     0.000 A 
HETATM   29  C18 UNL     1      28.866  -1.935  53.163  1.00  0.00     0.001 A 
HETATM   30  C19 UNL     1      27.600  -1.421  52.891  1.00  0.00     0.007 A 
ENDBRANCH  24  25
ENDBRANCH  23  24
ENDBRANCH  16  23
TORSDOF 4
ENDMDL
MODEL 3
REMARK VINA RESULT:      -8.2      5.286      7.939
REMARK  4 active torsions:
REMARK  status: ('A' for Active; 'I' for Inactive)
REMARK    1  A    between atoms: N1_1  and  C1_2 
REMARK    2  A    between atoms: C11_17  and  C12_18 
REMARK    3  A    between atoms: C12_18  and  C13_19 
REMARK    4  A    between atoms: C13_19  and  C14_20 
ROOT
HETATM    1  C1  UNL     1      23.746   5.380  51.819  1.00  0.00     0.106 C 
HETATM    2  C2  UNL     1      24.205   6.547  51.348  1.00  0.00     0.097 C 
HETATM    3  S1  UNL     1      25.093   7.450  50.077  1.00  0.00    -0.078 SA
HETATM    4  C3  UNL     1      25.371   6.424  48.599  1.00  0.00     0.201 C 
HETATM    5  C4  UNL     1      26.822   6.156  48.478  1.00  0.00     0.059 C 
HETATM    6  C5  UNL     1      27.927   6.787  48.142  1.00  0.00     0.012 C 
HETATM    7 BR1  UNL     1      29.581   5.828  48.195  1.00  0.00    -0.051 Br
HETATM    8  C6  UNL     1      28.111   8.188  47.708  1.00  0.00     0.019 C 
HETATM    9  C7  UNL     1      27.384   9.106  47.078  1.00  0.00     0.003 C 
HETATM   10  C8  UNL     1      26.013   9.098  46.525  1.00  0.00     0.017 C 
HETATM   11  C9  UNL     1      25.005   8.233  46.685  1.00  0.00     0.086 C 
HETATM   12  N2  UNL     1      24.806   7.017  47.404  1.00  0.00    -0.360 N 
HETATM   13  N3  UNL     1      24.660   5.171  48.825  1.00  0.00    -0.236 NA
HETATM   14  C10 UNL     1      23.369   5.278  49.015  1.00  0.00     0.233 C 
HETATM   15  N4  UNL     1      22.860   3.946  49.217  1.00  0.00    -0.229 NA
HETATM   16  C11 UNL     1      23.054   3.335  50.355  1.00  0.00     0.107 C 
HETATM   17  N5  UNL     1      23.784   4.031  51.387  1.00  0.00    -0.331 N 
HETATM   18  H9  UNL     1      24.059   6.440  46.914  1.00  0.00     0.162 HD
HETATM   19  H20 UNL     1      24.437   3.364  51.856  1.00  0.00     0.168 HD
ENDROOT
BRANCH   1  20
HETATM   20  N1  UNL     1      23.002   5.202  53.041  1.00  0.00    -0.385 N 
HETATM   21  H1  UNL     1      23.328   4.264  53.370  1.00  0.00     0.157 HD
HETATM   22  H2  UNL     1      22.327   5.929  53.391  1.00  0.00     0.157 HD
ENDBRANCH   1  20
BRANCH  16  23
HETATM   23  C12 UNL     1      22.553   1.944  50.641  1.00  0.00     0.083 C 
BRANCH  23  24
HETATM   24  C13 UNL     1      23.477   1.370  51.676  1.00  0.00     0.046 C 
BRANCH  24  25
HETATM   25  C14 UNL     1      22.836   0.638  52.764  1.00  0.00    -0.058 A 
HETATM   26  C15 UNL     1      21.546   0.996  53.062  1.00  0.00     0.007 A 
HETATM   27  C16 UNL     1      20.854   0.364  54.074  1.00  0.00     0.001 A 
HETATM   28  C17 UNL     1      21.457  -0.647  54.804  1.00  0.00     0.000 A 
HETATM   29  C18 UNL     1      22.764  -1.017  54.510  1.00  0.00     0.001 A 
HETATM   30  C19 UNL     1      23.449  -0.369  53.486  1.00  0.00     0.007 A 
ENDBRANCH  24  25
ENDBRANCH  23  24
ENDBRANCH  16  23
TORSDOF 4
ENDMDL
MODEL 4
REMARK VINA RESULT:      -8.2      6.135     10.443
REMARK  4 active torsions:
REMARK  status: ('A' for Active; 'I' for Inactive)
REMARK    1  A    between atoms: N1_1  and  C1_2 
REMARK    2  A    between atoms: C11_17  and  C12_18 
REMARK    3  A    between atoms: C12_18  and  C13_19 
REMARK    4  A    between atoms: C13_19  and  C14_20 
ROOT
HETATM    1  C1  UNL     1      22.322   2.565  48.121  1.00  0.00     0.106 C 
HETATM    2  C2  UNL     1      21.788   1.551  48.814  1.00  0.00     0.097 C 
HETATM    3  S1  UNL     1      21.595   0.688  50.376  1.00  0.00    -0.078 SA
HETATM    4  C3  UNL     1      22.216   1.682  51.769  1.00  0.00     0.201 C 
HETATM    5  C4  UNL     1      23.420   1.019  52.321  1.00  0.00     0.059 C 
HETATM    6  C5  UNL     1      23.734  -0.035  53.043  1.00  0.00     0.012 C 
HETATM    7 BR1  UNL     1      25.578  -0.360  53.434  1.00  0.00    -0.051 Br
HETATM    8  C6  UNL     1      22.851  -1.062  53.635  1.00  0.00     0.019 C 
HETATM    9  C7  UNL     1      21.599  -1.118  54.080  1.00  0.00     0.003 C 
HETATM   10  C8  UNL     1      20.516  -0.116  54.166  1.00  0.00     0.017 C 
HETATM   11  C9  UNL     1      20.397   1.100  53.620  1.00  0.00     0.086 C 
HETATM   12  N2  UNL     1      21.197   1.921  52.770  1.00  0.00    -0.360 N 
HETATM   13  N3  UNL     1      22.583   2.982  51.220  1.00  0.00    -0.236 NA
HETATM   14  C10 UNL     1      21.614   3.645  50.640  1.00  0.00     0.233 C 
HETATM   15  N4  UNL     1      22.175   4.886  50.171  1.00  0.00    -0.229 NA
HETATM   16  C11 UNL     1      22.928   4.904  49.104  1.00  0.00     0.107 C 
HETATM   17  N5  UNL     1      23.175   3.656  48.423  1.00  0.00    -0.331 N 
HETATM   18  H9  UNL     1      20.956   2.942  52.946  1.00  0.00     0.162 HD
HETATM   19  H20 UNL     1      24.176   3.616  48.128  1.00  0.00     0.168 HD
ENDROOT
BRANCH   1  20
HETATM   20  N1  UNL     1      22.125   2.818  46.715  1.00  0.00    -0.385 N 
HETATM   21  H1  UNL     1      21.083   2.859  46.636  1.00  0.00     0.157 HD
HETATM   22  H2  UNL     1      22.934   2.912  46.050  1.00  0.00     0.157 HD
ENDBRANCH   1  20
BRANCH  16  23
HETATM   23  C12 UNL     1      23.550   6.160  48.552  1.00  0.00     0.083 C 
BRANCH  23  24
HETATM   24  C13 UNL     1      24.656   6.530  49.496  1.00  0.00     0.046 C 
BRANCH  24  25
HETATM   25  C14 UNL     1      26.008   6.215  49.046  1.00  0.00    -0.058 A 
HETATM   26  C15 UNL     1      26.747   7.262  48.557  1.00  0.00     0.007 A 
HETATM   27  C16 UNL     1      28.036   7.067  48.106  1.00  0.00     0.001 A 
HETATM   28  C17 UNL     1      28.603   5.803  48.143  1.00  0.00     0.000 A 
HETATM   29  C18 UNL     1      27.862   4.735  48.636  1.00  0.00     0.001 A 
HETATM   30  C19 UNL     1      26.562   4.949  49.087  1.00  0.00     0.007 A 
ENDBRANCH  24  25
ENDBRANCH  23  24
ENDBRANCH  16  23
TORSDOF 4
ENDMDL
MODEL 5
REMARK VINA RESULT:      -8.0      5.753      9.918
REMARK  4 active torsions:
REMARK  status: ('A' for Active; 'I' for Inactive)
REMARK    1  A    between atoms: N1_1  and  C1_2 
REMARK    2  A    between atoms: C11_17  and  C12_18 
REMARK    3  A    between atoms: C12_18  and  C13_19 
REMARK    4  A    between atoms: C13_19  and  C14_20 
ROOT
HETATM    1  C1  UNL     1      24.088   5.574  51.735  1.00  0.00     0.106 C 
HETATM    2  C2  UNL     1      23.536   4.769  52.652  1.00  0.00     0.097 C 
HETATM    3  S1  UNL     1      22.875   3.158  53.085  1.00  0.00    -0.078 SA
HETATM    4  C3  UNL     1      23.271   1.910  51.819  1.00  0.00     0.201 C 
HETATM    5  C4  UNL     1      22.014   1.502  51.151  1.00  0.00     0.059 C 
HETATM    6  C5  UNL     1      20.941   0.782  51.401  1.00  0.00     0.012 C 
HETATM    7 BR1  UNL     1      19.600   0.636  50.046  1.00  0.00    -0.051 Br
HETATM    8  C6  UNL     1      20.583   0.028  52.621  1.00  0.00     0.019 C 
HETATM    9  C7  UNL     1      21.237  -0.589  53.601  1.00  0.00     0.003 C 
HETATM   10  C8  UNL     1      22.675  -0.779  53.887  1.00  0.00     0.017 C 
HETATM   11  C9  UNL     1      23.761  -0.199  53.362  1.00  0.00     0.086 C 
HETATM   12  N2  UNL     1      24.009   0.790  52.364  1.00  0.00    -0.360 N 
HETATM   13  N3  UNL     1      24.147   2.564  50.853  1.00  0.00    -0.236 NA
HETATM   14  C10 UNL     1      25.270   3.034  51.335  1.00  0.00     0.233 C 
HETATM   15  N4  UNL     1      25.982   3.632  50.236  1.00  0.00    -0.229 NA
HETATM   16  C11 UNL     1      25.610   4.793  49.766  1.00  0.00     0.107 C 
HETATM   17  N5  UNL     1      24.478   5.444  50.379  1.00  0.00    -0.331 N 
HETATM   18  H9  UNL     1      24.975   0.629  51.947  1.00  0.00     0.162 HD
HETATM   19  H20 UNL     1      23.883   5.872  49.635  1.00  0.00     0.168 HD
ENDROOT
BRANCH   1  20
HETATM   20  N1  UNL     1      24.468   6.949  51.946  1.00  0.00    -0.385 N 
HETATM   21  H1  UNL     1      24.521   7.013  52.988  1.00  0.00     0.157 HD
HETATM   22  H2  UNL     1      24.620   7.612  51.142  1.00  0.00     0.157 HD
ENDBRANCH   1  20
BRANCH  16  23
HETATM   23  C12 UNL     1      26.304   5.482  48.621  1.00  0.00     0.083 C 
BRANCH  23  24
HETATM   24  C13 UNL     1      27.699   4.931  48.583  1.00  0.00     0.046 C 
BRANCH  24  25
HETATM   25  C14 UNL     1      28.739   5.863  48.153  1.00  0.00    -0.058 A 
HETATM   26  C15 UNL     1      28.310   7.073  47.673  1.00  0.00     0.007 A 
HETATM   27  C16 UNL     1      29.214   8.022  47.242  1.00  0.00     0.001 A 
HETATM   28  C17 UNL     1      30.574   7.761  47.291  1.00  0.00     0.000 A 
HETATM   29  C18 UNL     1      31.018   6.536  47.775  1.00  0.00     0.001 A 
HETATM   30  C19 UNL     1      30.092   5.589  48.206  1.00  0.00     0.007 A 
ENDBRANCH  24  25
ENDBRANCH  23  24
ENDBRANCH  16  23
TORSDOF 4
ENDMDL
MODEL 6
REMARK VINA RESULT:      -7.7      3.072      5.589
REMARK  4 active torsions:
REMARK  status: ('A' for Active; 'I' for Inactive)
REMARK    1  A    between atoms: N1_1  and  C1_2 
REMARK    2  A    between atoms: C11_17  and  C12_18 
REMARK    3  A    between atoms: C12_18  and  C13_19 
REMARK    4  A    between atoms: C13_19  and  C14_20 
ROOT
HETATM    1  C1  UNL     1      29.159   6.756  48.353  1.00  0.00     0.106 C 
HETATM    2  C2  UNL     1      29.836   5.627  48.109  1.00  0.00     0.097 C 
HETATM    3  S1  UNL     1      31.338   4.827  47.539  1.00  0.00    -0.078 SA
HETATM    4  C3  UNL     1      32.708   6.016  47.376  1.00  0.00     0.201 C 
HETATM    5  C4  UNL     1      33.039   6.160  45.940  1.00  0.00     0.059 C 
HETATM    6  C5  UNL     1      33.628   5.480  44.981  1.00  0.00     0.012 C 
HETATM    7 BR1  UNL     1      33.740   6.263  43.239  1.00  0.00    -0.051 Br
HETATM    8  C6  UNL     1      34.252   4.141  45.029  1.00  0.00     0.019 C 
HETATM    9  C7  UNL     1      34.857   3.390  45.945  1.00  0.00     0.003 C 
HETATM   10  C8  UNL     1      35.166   3.603  47.375  1.00  0.00     0.017 C 
HETATM   11  C9  UNL     1      34.737   4.530  48.240  1.00  0.00     0.086 C 
HETATM   12  N2  UNL     1      33.853   5.648  48.183  1.00  0.00    -0.360 N 
HETATM   13  N3  UNL     1      32.217   7.287  47.894  1.00  0.00    -0.236 NA
HETATM   14  C10 UNL     1      31.826   7.276  49.144  1.00  0.00     0.233 C 
HETATM   15  N4  UNL     1      31.383   8.610  49.459  1.00  0.00    -0.229 NA
HETATM   16  C11 UNL     1      30.229   9.038  49.023  1.00  0.00     0.107 C 
HETATM   17  N5  UNL     1      29.425   8.142  48.227  1.00  0.00    -0.331 N 
HETATM   18  H9  UNL     1      34.138   6.355  48.926  1.00  0.00     0.162 HD
HETATM   19  H20 UNL     1      28.996   8.673  47.437  1.00  0.00     0.168 HD
ENDROOT
BRANCH   1  20
HETATM   20  N1  UNL     1      27.816   6.834  48.873  1.00  0.00    -0.385 N 
HETATM   21  H1  UNL     1      27.263   7.118  48.033  1.00  0.00     0.157 HD
HETATM   22  H2  UNL     1      27.599   6.626  49.882  1.00  0.00     0.157 HD
ENDBRANCH   1  20
BRANCH  16  23
HETATM   23  C12 UNL     1      29.697  10.418  49.309  1.00  0.00     0.083 C 
BRANCH  23  24
HETATM   24  C13 UNL     1      30.856  11.357  49.144  1.00  0.00     0.046 C 
BRANCH  24  25
HETATM   25  C14 UNL     1      31.262  11.630  47.769  1.00  0.00    -0.058 A 
HETATM   26  C15 UNL     1      30.316  12.202  46.957  1.00  0.00     0.007 A 
HETATM   27  C16 UNL     1      30.602  12.499  45.640  1.00  0.00     0.001 A 
HETATM   28  C17 UNL     1      31.856  12.220  45.121  1.00  0.00     0.000 A 
HETATM   29  C18 UNL     1      32.821  11.639  45.935  1.00  0.00     0.001 A 
HETATM   30  C19 UNL     1      32.516  11.346  47.261  1.00  0.00     0.007 A 
ENDBRANCH  24  25
ENDBRANCH  23  24
ENDBRANCH  16  23
TORSDOF 4
ENDMDL
MODEL 7
REMARK VINA RESULT:      -7.6      7.878     10.339
REMARK  4 active torsions:
REMARK  status: ('A' for Active; 'I' for Inactive)
REMARK    1  A    between atoms: N1_1  and  C1_2 
REMARK    2  A    between atoms: C11_17  and  C12_18 
REMARK    3  A    between atoms: C12_18  and  C13_19 
REMARK    4  A    between atoms: C13_19  and  C14_20 
ROOT
HETATM    1  C1  UNL     1      23.444   5.058  51.941  1.00  0.00     0.106 C 
HETATM    2  C2  UNL     1      22.248   5.372  51.427  1.00  0.00     0.097 C 
HETATM    3  S1  UNL     1      21.141   5.401  50.014  1.00  0.00    -0.078 SA
HETATM    4  C3  UNL     1      21.773   4.375  48.649  1.00  0.00     0.201 C 
HETATM    5  C4  UNL     1      22.145   5.264  47.525  1.00  0.00     0.059 C 
HETATM    6  C5  UNL     1      21.565   5.992  46.596  1.00  0.00     0.012 C 
HETATM    7 BR1  UNL     1      22.667   6.966  45.373  1.00  0.00    -0.051 Br
HETATM    8  C6  UNL     1      20.125   6.191  46.326  1.00  0.00     0.019 C 
HETATM    9  C7  UNL     1      19.006   5.491  46.490  1.00  0.00     0.003 C 
HETATM   10  C8  UNL     1      18.732   4.150  47.046  1.00  0.00     0.017 C 
HETATM   11  C9  UNL     1      19.503   3.317  47.756  1.00  0.00     0.086 C 
HETATM   12  N2  UNL     1      20.836   3.340  48.262  1.00  0.00    -0.360 N 
HETATM   13  N3  UNL     1      22.963   3.701  49.154  1.00  0.00    -0.236 NA
HETATM   14  C10 UNL     1      22.778   2.931  50.197  1.00  0.00     0.233 C 
HETATM   15  N4  UNL     1      24.058   2.365  50.535  1.00  0.00    -0.229 NA
HETATM   16  C11 UNL     1      24.960   3.094  51.138  1.00  0.00     0.107 C 
HETATM   17  N5  UNL     1      24.632   4.465  51.448  1.00  0.00    -0.331 N 
HETATM   18  H9  UNL     1      21.188   2.341  48.362  1.00  0.00     0.162 HD
HETATM   19  H20 UNL     1      25.460   5.070  51.250  1.00  0.00     0.168 HD
ENDROOT
BRANCH   1  20
HETATM   20  N1  UNL     1      23.856   5.282  53.305  1.00  0.00    -0.385 N 
HETATM   21  H1  UNL     1      24.283   6.236  53.259  1.00  0.00     0.157 HD
HETATM   22  H2  UNL     1      23.698   4.564  54.057  1.00  0.00     0.157 HD
ENDBRANCH   1  20
BRANCH  16  23
HETATM   23  C12 UNL     1      26.320   2.574  51.524  1.00  0.00     0.083 C 
BRANCH  23  24
HETATM   24  C13 UNL     1      26.081   1.454  52.493  1.00  0.00     0.046 C 
BRANCH  24  25
HETATM   25  C14 UNL     1      27.259   0.677  52.868  1.00  0.00    -0.058 A 
HETATM   26  C15 UNL     1      27.169  -0.682  52.705  1.00  0.00     0.007 A 
HETATM   27  C16 UNL     1      28.229  -1.503  53.031  1.00  0.00     0.001 A 
HETATM   28  C17 UNL     1      29.402  -0.961  53.530  1.00  0.00     0.000 A 
HETATM   29  C18 UNL     1      29.503   0.414  53.700  1.00  0.00     0.001 A 
HETATM   30  C19 UNL     1      28.424   1.229  53.366  1.00  0.00     0.007 A 
ENDBRANCH  24  25
ENDBRANCH  23  24
ENDBRANCH  16  23
TORSDOF 4
ENDMDL
MODEL 8
REMARK VINA RESULT:      -7.6      7.138     10.218
REMARK  4 active torsions:
REMARK  status: ('A' for Active; 'I' for Inactive)
REMARK    1  A    between atoms: N1_1  and  C1_2 
REMARK    2  A    between atoms: C11_17  and  C12_18 
REMARK    3  A    between atoms: C12_18  and  C13_19 
REMARK    4  A    between atoms: C13_19  and  C14_20 
ROOT
HETATM    1  C1  UNL     1      25.400   4.302  50.143  1.00  0.00     0.106 C 
HETATM    2  C2  UNL     1      24.893   5.345  49.474  1.00  0.00     0.097 C 
HETATM    3  S1  UNL     1      23.456   6.270  48.926  1.00  0.00    -0.078 SA
HETATM    4  C3  UNL     1      21.946   5.733  49.790  1.00  0.00     0.201 C 
HETATM    5  C4  UNL     1      21.056   5.067  48.813  1.00  0.00     0.059 C 
HETATM    6  C5  UNL     1      20.266   5.382  47.809  1.00  0.00     0.012 C 
HETATM    7 BR1  UNL     1      19.338   3.979  46.899  1.00  0.00    -0.051 Br
HETATM    8  C6  UNL     1      19.960   6.711  47.240  1.00  0.00     0.019 C 
HETATM    9  C7  UNL     1      19.911   7.964  47.684  1.00  0.00     0.003 C 
HETATM   10  C8  UNL     1      20.159   8.571  49.009  1.00  0.00     0.017 C 
HETATM   11  C9  UNL     1      20.723   8.071  50.114  1.00  0.00     0.086 C 
HETATM   12  N2  UNL     1      21.299   6.822  50.492  1.00  0.00    -0.360 N 
HETATM   13  N3  UNL     1      22.368   4.771  50.802  1.00  0.00    -0.236 NA
HETATM   14  C10 UNL     1      23.216   5.220  51.693  1.00  0.00     0.233 C 
HETATM   15  N4  UNL     1      23.503   4.130  52.589  1.00  0.00    -0.229 NA
HETATM   16  C11 UNL     1      24.295   3.162  52.213  1.00  0.00     0.107 C 
HETATM   17  N5  UNL     1      24.864   3.222  50.888  1.00  0.00    -0.331 N 
HETATM   18  H9  UNL     1      21.210   6.702  51.545  1.00  0.00     0.162 HD
HETATM   19  H20 UNL     1      24.844   2.269  50.461  1.00  0.00     0.168 HD
ENDROOT
BRANCH   1  20
HETATM   20  N1  UNL     1      26.802   3.994  50.282  1.00  0.00    -0.385 N 
HETATM   21  H1  UNL     1      26.783   3.038  50.706  1.00  0.00     0.157 HD
HETATM   22  H2  UNL     1      27.551   4.671  49.985  1.00  0.00     0.157 HD
ENDBRANCH   1  20
BRANCH  16  23
HETATM   23  C12 UNL     1      24.642   1.990  53.092  1.00  0.00     0.083 C 
BRANCH  23  24
HETATM   24  C13 UNL     1      25.519   1.092  52.268  1.00  0.00     0.046 C 
BRANCH  24  25
HETATM   25  C14 UNL     1      26.853   0.841  52.804  1.00  0.00    -0.058 A 
HETATM   26  C15 UNL     1      27.555   1.939  53.229  1.00  0.00     0.007 A 
HETATM   27  C16 UNL     1      28.825   1.807  53.752  1.00  0.00     0.001 A 
HETATM   28  C17 UNL     1      29.409   0.554  53.853  1.00  0.00     0.000 A 
HETATM   29  C18 UNL     1      28.706  -0.565  53.424  1.00  0.00     0.001 A 
HETATM   30  C19 UNL     1      27.425  -0.414  52.899  1.00  0.00     0.007 A 
ENDBRANCH  24  25
ENDBRANCH  23  24
ENDBRANCH  16  23
TORSDOF 4
ENDMDL
MODEL 9
REMARK VINA RESULT:      -7.4     10.310     14.533
REMARK  4 active torsions:
REMARK  status: ('A' for Active; 'I' for Inactive)
REMARK    1  A    between atoms: N1_1  and  C1_2 
REMARK    2  A    between atoms: C11_17  and  C12_18 
REMARK    3  A    between atoms: C12_18  and  C13_19 
REMARK    4  A    between atoms: C13_19  and  C14_20 
ROOT
HETATM    1  C1  UNL     1      20.055  -0.276  53.749  1.00  0.00     0.106 C 
HETATM    2  C2  UNL     1      18.928  -0.878  53.352  1.00  0.00     0.097 C 
HETATM    3  S1  UNL     1      17.425  -0.836  52.371  1.00  0.00    -0.078 SA
HETATM    4  C3  UNL     1      17.445   0.537  51.176  1.00  0.00     0.201 C 
HETATM    5  C4  UNL     1      16.414   1.523  51.574  1.00  0.00     0.059 C 
HETATM    6  C5  UNL     1      15.105   1.651  51.570  1.00  0.00     0.012 C 
HETATM    7 BR1  UNL     1      14.340   3.262  52.264  1.00  0.00    -0.051 Br
HETATM    8  C6  UNL     1      14.072   0.708  51.091  1.00  0.00     0.019 C 
HETATM    9  C7  UNL     1      13.991  -0.248  50.170  1.00  0.00     0.003 C 
HETATM   10  C8  UNL     1      14.960  -0.788  49.193  1.00  0.00     0.017 C 
HETATM   11  C9  UNL     1      16.285  -0.629  49.087  1.00  0.00     0.086 C 
HETATM   12  N2  UNL     1      17.289   0.080  49.811  1.00  0.00    -0.360 N 
HETATM   13  N3  UNL     1      18.766   1.148  51.269  1.00  0.00    -0.236 NA
HETATM   14  C10 UNL     1      19.776   0.357  51.005  1.00  0.00     0.233 C 
HETATM   15  N4  UNL     1      20.974   1.141  51.150  1.00  0.00    -0.229 NA
HETATM   16  C11 UNL     1      21.423   1.441  52.340  1.00  0.00     0.107 C 
HETATM   17  N5  UNL     1      20.685   0.966  53.486  1.00  0.00    -0.331 N 
HETATM   18  H9  UNL     1      18.096   0.305  49.155  1.00  0.00     0.162 HD
HETATM   19  H20 UNL     1      20.647   1.720  54.207  1.00  0.00     0.168 HD
ENDROOT
BRANCH   1  20
HETATM   20  N1  UNL     1      21.025  -0.828  54.663  1.00  0.00    -0.385 N 
HETATM   21  H1  UNL     1      21.360   0.019  55.177  1.00  0.00     0.157 HD
HETATM   22  H2  UNL     1      21.238  -1.858  54.690  1.00  0.00     0.157 HD
ENDBRANCH   1  20
BRANCH  16  23
HETATM   23  C12 UNL     1      22.668   2.255  52.573  1.00  0.00     0.083 C 
BRANCH  23  24
HETATM   24  C13 UNL     1      23.718   1.687  51.663  1.00  0.00     0.046 C 
BRANCH  24  25
HETATM   25  C14 UNL     1      24.743   0.871  52.308  1.00  0.00    -0.058 A 
HETATM   26  C15 UNL     1      26.024   1.027  51.844  1.00  0.00     0.007 A 
HETATM   27  C16 UNL     1      27.065   0.301  52.388  1.00  0.00     0.001 A 
HETATM   28  C17 UNL     1      26.825  -0.597  53.415  1.00  0.00     0.000 A 
HETATM   29  C18 UNL     1      25.529  -0.762  53.891  1.00  0.00     0.001 A 
HETATM   30  C19 UNL     1      24.491  -0.023  53.332  1.00  0.00     0.007 A 
ENDBRANCH  24  25
ENDBRANCH  23  24
ENDBRANCH  16  23
TORSDOF 4
ENDMDL
