MODEL 1
REMARK VINA RESULT:      -7.5      0.000      0.000
REMARK  6 active torsions:
REMARK  status: ('A' for Active; 'I' for Inactive)
REMARK    1  A    between atoms: C3_3  and  C4_4 
REMARK    2  A    between atoms: C3_3  and  C7_8 
REMARK    3  A    between atoms: C7_8  and  C8_9 
REMARK    4  A    between atoms: C7_8  and  N2_11 
REMARK    5  A    between atoms: C8_9  and  O1_10 
REMARK    6  A    between atoms: N2_11  and  C9_12 
ROOT
HETATM    1  C4  UNL     1      23.230   0.921  52.753  1.00  0.00     0.020 C 
HETATM    2  C5  UNL     1      22.934  -0.330  53.050  1.00  0.00     0.094 C 
HETATM    3  C6  UNL     1      22.176  -0.856  54.147  1.00  0.00     0.087 C 
HETATM    4  N1  UNL     1      21.571  -1.255  55.029  1.00  0.00    -0.192 NA
ENDROOT
BRANCH   1   5
HETATM    5  C3  UNL     1      23.895   1.860  51.847  1.00  0.00    -0.037 C 
HETATM    6  C2  UNL     1      23.219   2.024  50.678  1.00  0.00    -0.022 C 
HETATM    7  C1  UNL     1      22.015   1.581  49.972  1.00  0.00     0.036 C 
BRANCH   5   8
HETATM    8  C7  UNL     1      25.139   2.637  52.015  1.00  0.00     0.139 C 
BRANCH   8   9
HETATM    9  C8  UNL     1      25.915   2.812  50.728  1.00  0.00     0.194 C 
BRANCH   9  10
HETATM   10  O1  UNL     1      27.086   3.521  50.883  1.00  0.00    -0.399 OA
HETATM   11  H10 UNL     1      26.938   4.440  50.574  1.00  0.00     0.209 HD
ENDBRANCH   9  10
ENDBRANCH   8   9
BRANCH   8  12
HETATM   12  N2  UNL     1      25.954   2.313  53.128  1.00  0.00    -0.363 N 
HETATM   13  H11 UNL     1      25.620   2.685  54.074  1.00  0.00     0.162 HD
BRANCH  12  14
HETATM   14  C9  UNL     1      27.152   1.605  53.398  1.00  0.00     0.138 A 
HETATM   15  N3  UNL     1      28.085   2.394  53.919  1.00  0.00    -0.224 NA
HETATM   16  C10 UNL     1      29.315   2.073  54.295  1.00  0.00     0.236 A 
HETATM   17  N4  UNL     1      29.607   0.780  54.104  1.00  0.00    -0.234 NA
HETATM   18  C11 UNL     1      28.723  -0.099  53.580  1.00  0.00     0.112 A 
HETATM   19  S1  UNL     1      28.854  -1.795  53.237  1.00  0.00    -0.081 SA
HETATM   20  C14 UNL     1      27.452   0.277  53.202  1.00  0.00     0.046 A 
HETATM   21  C12 UNL     1      27.094  -1.969  52.555  1.00  0.00     0.053 A 
HETATM   22  C13 UNL     1      26.587  -0.637  52.677  1.00  0.00     0.025 A 
ENDBRANCH  12  14
ENDBRANCH   8  12
ENDBRANCH   5   8
ENDBRANCH   1   5
TORSDOF 6
ENDMDL
MODEL 2
REMARK VINA RESULT:      -7.1      2.472      4.676
REMARK  6 active torsions:
REMARK  status: ('A' for Active; 'I' for Inactive)
REMARK    1  A    between atoms: C3_3  and  C4_4 
REMARK    2  A    between atoms: C3_3  and  C7_8 
REMARK    3  A    between atoms: C7_8  and  C8_9 
REMARK    4  A    between atoms: C7_8  and  N2_11 
REMARK    5  A    between atoms: C8_9  and  O1_10 
REMARK    6  A    between atoms: N2_11  and  C9_12 
ROOT
HETATM    1  C4  UNL     1      25.457   4.059  49.974  1.00  0.00     0.020 C 
HETATM    2  C5  UNL     1      26.641   3.832  49.437  1.00  0.00     0.094 C 
HETATM    3  C6  UNL     1      27.543   4.741  48.792  1.00  0.00     0.087 C 
HETATM    4  N1  UNL     1      28.246   5.480  48.281  1.00  0.00    -0.192 NA
ENDROOT
BRANCH   1   5
HETATM    5  C3  UNL     1      24.286   3.525  50.672  1.00  0.00    -0.037 C 
HETATM    6  C2  UNL     1      23.343   3.046  49.815  1.00  0.00    -0.022 C 
HETATM    7  C1  UNL     1      23.069   2.865  48.388  1.00  0.00     0.036 C 
BRANCH   5   8
HETATM    8  C7  UNL     1      23.993   3.419  52.115  1.00  0.00     0.139 C 
BRANCH   8   9
HETATM    9  C8  UNL     1      23.256   4.619  52.667  1.00  0.00     0.194 C 
BRANCH   9  10
HETATM   10  O1  UNL     1      24.054   5.730  52.830  1.00  0.00    -0.399 OA
HETATM   11  H10 UNL     1      23.753   6.426  52.209  1.00  0.00     0.209 HD
ENDBRANCH   9  10
ENDBRANCH   8   9
BRANCH   8  12
HETATM   12  N2  UNL     1      25.043   2.966  52.952  1.00  0.00    -0.363 N 
HETATM   13  H11 UNL     1      25.619   3.729  53.430  1.00  0.00     0.162 HD
BRANCH  12  14
HETATM   14  C9  UNL     1      25.605   1.737  53.381  1.00  0.00     0.138 A 
HETATM   15  N3  UNL     1      24.691   0.776  53.456  1.00  0.00    -0.224 NA
HETATM   16  C10 UNL     1      24.858  -0.489  53.815  1.00  0.00     0.236 A 
HETATM   17  N4  UNL     1      26.125  -0.787  54.131  1.00  0.00    -0.234 NA
HETATM   18  C11 UNL     1      27.124   0.124  54.085  1.00  0.00     0.112 A 
HETATM   19  S1  UNL     1      28.817  -0.008  54.440  1.00  0.00    -0.081 SA
HETATM   20  C14 UNL     1      26.906   1.431  53.706  1.00  0.00     0.046 A 
HETATM   21  C12 UNL     1      29.216   1.803  54.047  1.00  0.00     0.053 A 
HETATM   22  C13 UNL     1      27.938   2.322  53.671  1.00  0.00     0.025 A 
ENDBRANCH  12  14
ENDBRANCH   8  12
ENDBRANCH   5   8
ENDBRANCH   1   5
TORSDOF 6
ENDMDL
MODEL 3
REMARK VINA RESULT:      -6.7      3.018      5.221
REMARK  6 active torsions:
REMARK  status: ('A' for Active; 'I' for Inactive)
REMARK    1  A    between atoms: C3_3  and  C4_4 
REMARK    2  A    between atoms: C3_3  and  C7_8 
REMARK    3  A    between atoms: C7_8  and  C8_9 
REMARK    4  A    between atoms: C7_8  and  N2_11 
REMARK    5  A    between atoms: C8_9  and  O1_10 
REMARK    6  A    between atoms: N2_11  and  C9_12 
ROOT
HETATM    1  C4  UNL     1      24.894  -0.289  53.386  1.00  0.00     0.020 C 
HETATM    2  C5  UNL     1      23.599  -0.111  53.575  1.00  0.00     0.094 C 
HETATM    3  C6  UNL     1      22.681  -0.859  54.382  1.00  0.00     0.087 C 
HETATM    4  N1  UNL     1      21.966  -1.468  55.029  1.00  0.00    -0.192 NA
ENDROOT
BRANCH   1   5
HETATM    5  C3  UNL     1      26.127   0.155  52.734  1.00  0.00    -0.037 C 
HETATM    6  C2  UNL     1      26.913  -0.885  52.342  1.00  0.00    -0.022 C 
HETATM    7  C1  UNL     1      26.968  -2.348  52.336  1.00  0.00     0.036 C 
BRANCH   5   8
HETATM    8  C7  UNL     1      26.621   1.514  52.438  1.00  0.00     0.139 C 
BRANCH   8   9
HETATM    9  C8  UNL     1      27.876   1.876  53.200  1.00  0.00     0.194 C 
BRANCH   9  10
HETATM   10  O1  UNL     1      27.690   2.880  54.125  1.00  0.00    -0.399 OA
HETATM   11  H10 UNL     1      27.590   3.731  53.648  1.00  0.00     0.209 HD
ENDBRANCH   9  10
ENDBRANCH   8   9
BRANCH   8  12
HETATM   12  N2  UNL     1      25.659   2.554  52.406  1.00  0.00    -0.363 N 
HETATM   13  H11 UNL     1      25.342   2.925  53.358  1.00  0.00     0.162 HD
BRANCH  12  14
HETATM   14  C9  UNL     1      24.937   3.305  51.444  1.00  0.00     0.138 A 
HETATM   15  N3  UNL     1      25.723   3.734  50.462  1.00  0.00    -0.224 NA
HETATM   16  C10 UNL     1      25.390   4.455  49.401  1.00  0.00     0.236 A 
HETATM   17  N4  UNL     1      24.088   4.766  49.358  1.00  0.00    -0.234 NA
HETATM   18  C11 UNL     1      23.212   4.375  50.311  1.00  0.00     0.112 A 
HETATM   19  S1  UNL     1      21.506   4.643  50.484  1.00  0.00    -0.081 SA
HETATM   20  C14 UNL     1      23.600   3.625  51.400  1.00  0.00     0.046 A 
HETATM   21  C12 UNL     1      21.345   3.683  52.110  1.00  0.00     0.053 A 
HETATM   22  C13 UNL     1      22.688   3.248  52.341  1.00  0.00     0.025 A 
ENDBRANCH  12  14
ENDBRANCH   8  12
ENDBRANCH   5   8
ENDBRANCH   1   5
TORSDOF 6
ENDMDL
MODEL 4
REMARK VINA RESULT:      -6.7      2.987      5.636
REMARK  6 active torsions:
REMARK  status: ('A' for Active; 'I' for Inactive)
REMARK    1  A    between atoms: C3_3  and  C4_4 
REMARK    2  A    between atoms: C3_3  and  C7_8 
REMARK    3  A    between atoms: C7_8  and  C8_9 
REMARK    4  A    between atoms: C7_8  and  N2_11 
REMARK    5  A    between atoms: C8_9  and  O1_10 
REMARK    6  A    between atoms: N2_11  and  C9_12 
ROOT
HETATM    1  C4  UNL     1      26.563   3.646  50.146  1.00  0.00     0.020 C 
HETATM    2  C5  UNL     1      26.793   4.239  48.989  1.00  0.00     0.094 C 
HETATM    3  C6  UNL     1      27.920   5.019  48.569  1.00  0.00     0.087 C 
HETATM    4  N1  UNL     1      28.825   5.638  48.254  1.00  0.00    -0.192 NA
ENDROOT
BRANCH   1   5
HETATM    5  C3  UNL     1      25.668   2.828  50.967  1.00  0.00    -0.037 C 
HETATM    6  C2  UNL     1      24.416   2.737  50.441  1.00  0.00    -0.022 C 
HETATM    7  C1  UNL     1      23.611   3.182  49.302  1.00  0.00     0.036 C 
BRANCH   5   8
HETATM    8  C7  UNL     1      25.917   2.102  52.227  1.00  0.00     0.139 C 
BRANCH   8   9
HETATM    9  C8  UNL     1      27.363   2.145  52.669  1.00  0.00     0.194 C 
BRANCH   9  10
HETATM   10  O1  UNL     1      27.538   2.648  53.939  1.00  0.00    -0.399 OA
HETATM   11  H10 UNL     1      28.309   3.253  53.933  1.00  0.00     0.209 HD
ENDBRANCH   9  10
ENDBRANCH   8   9
BRANCH   8  12
HETATM   12  N2  UNL     1      25.323   0.821  52.360  1.00  0.00    -0.363 N 
HETATM   13  H11 UNL     1      25.494   0.143  51.551  1.00  0.00     0.162 HD
BRANCH  12  14
HETATM   14  C9  UNL     1      24.522   0.113  53.289  1.00  0.00     0.138 A 
HETATM   15  N3  UNL     1      25.243  -0.374  54.293  1.00  0.00    -0.224 NA
HETATM   16  C10 UNL     1      24.828  -1.079  55.336  1.00  0.00     0.236 A 
HETATM   17  N4  UNL     1      23.508  -1.303  55.332  1.00  0.00    -0.234 NA
HETATM   18  C11 UNL     1      22.692  -0.848  54.354  1.00  0.00     0.112 A 
HETATM   19  S1  UNL     1      20.979  -1.001  54.122  1.00  0.00    -0.081 SA
HETATM   20  C14 UNL     1      23.165  -0.117  53.285  1.00  0.00     0.046 A 
HETATM   21  C12 UNL     1      20.937  -0.021  52.500  1.00  0.00     0.053 A 
HETATM   22  C13 UNL     1      22.313   0.326  52.318  1.00  0.00     0.025 A 
ENDBRANCH  12  14
ENDBRANCH   8  12
ENDBRANCH   5   8
ENDBRANCH   1   5
TORSDOF 6
ENDMDL
MODEL 5
REMARK VINA RESULT:      -6.6      1.929      3.053
REMARK  6 active torsions:
REMARK  status: ('A' for Active; 'I' for Inactive)
REMARK    1  A    between atoms: C3_3  and  C4_4 
REMARK    2  A    between atoms: C3_3  and  C7_8 
REMARK    3  A    between atoms: C7_8  and  C8_9 
REMARK    4  A    between atoms: C7_8  and  N2_11 
REMARK    5  A    between atoms: C8_9  and  O1_10 
REMARK    6  A    between atoms: N2_11  and  C9_12 
ROOT
HETATM    1  C4  UNL     1      23.306   2.583  50.008  1.00  0.00     0.020 C 
HETATM    2  C5  UNL     1      22.886   3.442  49.098  1.00  0.00     0.094 C 
HETATM    3  C6  UNL     1      21.961   3.252  48.019  1.00  0.00     0.087 C 
HETATM    4  N1  UNL     1      21.224   3.081  47.165  1.00  0.00    -0.192 NA
ENDROOT
BRANCH   1   5
HETATM    5  C3  UNL     1      24.145   2.325  51.180  1.00  0.00    -0.037 C 
HETATM    6  C2  UNL     1      23.575   1.442  52.045  1.00  0.00    -0.022 C 
HETATM    7  C1  UNL     1      22.376   0.623  52.230  1.00  0.00     0.036 C 
BRANCH   5   8
HETATM    8  C7  UNL     1      25.476   2.852  51.542  1.00  0.00     0.139 C 
BRANCH   8   9
HETATM    9  C8  UNL     1      26.444   2.885  50.381  1.00  0.00     0.194 C 
BRANCH   9  10
HETATM   10  O1  UNL     1      27.190   4.041  50.318  1.00  0.00    -0.399 OA
HETATM   11  H10 UNL     1      26.619   4.765  49.984  1.00  0.00     0.209 HD
ENDBRANCH   9  10
ENDBRANCH   8   9
BRANCH   8  12
HETATM   12  N2  UNL     1      26.051   2.370  52.745  1.00  0.00    -0.363 N 
HETATM   13  H11 UNL     1      25.522   2.611  53.643  1.00  0.00     0.162 HD
BRANCH  12  14
HETATM   14  C9  UNL     1      27.183   1.623  53.157  1.00  0.00     0.138 A 
HETATM   15  N3  UNL     1      28.090   2.388  53.754  1.00  0.00    -0.224 NA
HETATM   16  C10 UNL     1      29.259   2.029  54.264  1.00  0.00     0.236 A 
HETATM   17  N4  UNL     1      29.512   0.720  54.138  1.00  0.00    -0.234 NA
HETATM   18  C11 UNL     1      28.651  -0.138  53.546  1.00  0.00     0.112 A 
HETATM   19  S1  UNL     1      28.743  -1.847  53.262  1.00  0.00    -0.081 SA
HETATM   20  C14 UNL     1      27.443   0.278  53.027  1.00  0.00     0.046 A 
HETATM   21  C12 UNL     1      27.058  -1.970  52.404  1.00  0.00     0.053 A 
HETATM   22  C13 UNL     1      26.599  -0.615  52.437  1.00  0.00     0.025 A 
ENDBRANCH  12  14
ENDBRANCH   8  12
ENDBRANCH   5   8
ENDBRANCH   1   5
TORSDOF 6
ENDMDL
MODEL 6
REMARK VINA RESULT:      -6.6      2.975      4.789
REMARK  6 active torsions:
REMARK  status: ('A' for Active; 'I' for Inactive)
REMARK    1  A    between atoms: C3_3  and  C4_4 
REMARK    2  A    between atoms: C3_3  and  C7_8 
REMARK    3  A    between atoms: C7_8  and  C8_9 
REMARK    4  A    between atoms: C7_8  and  N2_11 
REMARK    5  A    between atoms: C8_9  and  O1_10 
REMARK    6  A    between atoms: N2_11  and  C9_12 
ROOT
HETATM    1  C4  UNL     1      23.928   4.245  49.158  1.00  0.00     0.020 C 
HETATM    2  C5  UNL     1      23.138   5.110  48.548  1.00  0.00     0.094 C 
HETATM    3  C6  UNL     1      22.522   5.034  47.257  1.00  0.00     0.087 C 
HETATM    4  N1  UNL     1      22.041   4.955  46.225  1.00  0.00    -0.192 NA
ENDROOT
BRANCH   1   5
HETATM    5  C3  UNL     1      24.720   3.904  50.341  1.00  0.00    -0.037 C 
HETATM    6  C2  UNL     1      26.059   3.982  50.112  1.00  0.00    -0.022 C 
HETATM    7  C1  UNL     1      27.031   4.297  49.064  1.00  0.00     0.036 C 
BRANCH   5   8
HETATM    8  C7  UNL     1      24.295   3.517  51.701  1.00  0.00     0.139 C 
BRANCH   8   9
HETATM    9  C8  UNL     1      23.330   4.497  52.330  1.00  0.00     0.194 C 
BRANCH   9  10
HETATM   10  O1  UNL     1      23.930   5.655  52.774  1.00  0.00    -0.399 OA
HETATM   11  H10 UNL     1      23.881   6.326  52.062  1.00  0.00     0.209 HD
ENDBRANCH   9  10
ENDBRANCH   8   9
BRANCH   8  12
HETATM   12  N2  UNL     1      25.308   3.072  52.588  1.00  0.00    -0.363 N 
HETATM   13  H11 UNL     1      25.978   3.825  52.945  1.00  0.00     0.162 HD
BRANCH  12  14
HETATM   14  C9  UNL     1      25.738   1.862  53.187  1.00  0.00     0.138 A 
HETATM   15  N3  UNL     1      24.748   0.983  53.290  1.00  0.00    -0.224 NA
HETATM   16  C10 UNL     1      24.788  -0.243  53.792  1.00  0.00     0.236 A 
HETATM   17  N4  UNL     1      26.001  -0.594  54.239  1.00  0.00    -0.234 NA
HETATM   18  C11 UNL     1      27.069   0.232  54.177  1.00  0.00     0.112 A 
HETATM   19  S1  UNL     1      28.717   0.021  54.678  1.00  0.00    -0.081 SA
HETATM   20  C14 UNL     1      26.984   1.502  53.646  1.00  0.00     0.046 A 
HETATM   21  C12 UNL     1      29.286   1.743  54.129  1.00  0.00     0.053 A 
HETATM   22  C13 UNL     1      28.083   2.307  53.599  1.00  0.00     0.025 A 
ENDBRANCH  12  14
ENDBRANCH   8  12
ENDBRANCH   5   8
ENDBRANCH   1   5
TORSDOF 6
ENDMDL
MODEL 7
REMARK VINA RESULT:      -6.5      2.085      4.016
REMARK  6 active torsions:
REMARK  status: ('A' for Active; 'I' for Inactive)
REMARK    1  A    between atoms: C3_3  and  C4_4 
REMARK    2  A    between atoms: C3_3  and  C7_8 
REMARK    3  A    between atoms: C7_8  and  C8_9 
REMARK    4  A    between atoms: C7_8  and  N2_11 
REMARK    5  A    between atoms: C8_9  and  O1_10 
REMARK    6  A    between atoms: N2_11  and  C9_12 
ROOT
HETATM    1  C4  UNL     1      25.573   3.135  50.085  1.00  0.00     0.020 C 
HETATM    2  C5  UNL     1      26.016   4.287  49.618  1.00  0.00     0.094 C 
HETATM    3  C6  UNL     1      27.260   4.598  48.977  1.00  0.00     0.087 C 
HETATM    4  N1  UNL     1      28.257   4.825  48.470  1.00  0.00    -0.192 NA
ENDROOT
BRANCH   1   5
HETATM    5  C3  UNL     1      24.498   2.392  50.747  1.00  0.00    -0.037 C 
HETATM    6  C2  UNL     1      23.308   2.510  50.098  1.00  0.00    -0.022 C 
HETATM    7  C1  UNL     1      22.692   3.137  48.927  1.00  0.00     0.036 C 
BRANCH   5   8
HETATM    8  C7  UNL     1      24.517   1.554  51.961  1.00  0.00     0.139 C 
BRANCH   8   9
HETATM    9  C8  UNL     1      23.157   1.395  52.602  1.00  0.00     0.194 C 
BRANCH   9  10
HETATM   10  O1  UNL     1      23.110   0.407  53.561  1.00  0.00    -0.399 OA
HETATM   11  H10 UNL     1      23.972   0.384  54.029  1.00  0.00     0.209 HD
ENDBRANCH   9  10
ENDBRANCH   8   9
BRANCH   8  12
HETATM   12  N2  UNL     1      25.557   1.797  52.894  1.00  0.00    -0.363 N 
HETATM   13  H11 UNL     1      25.376   2.580  53.599  1.00  0.00     0.162 HD
BRANCH  12  14
HETATM   14  C9  UNL     1      26.846   1.295  53.203  1.00  0.00     0.138 A 
HETATM   15  N3  UNL     1      27.649   2.248  53.665  1.00  0.00    -0.224 NA
HETATM   16  C10 UNL     1      28.911   2.139  54.053  1.00  0.00     0.236 A 
HETATM   17  N4  UNL     1      29.393   0.894  53.948  1.00  0.00    -0.234 NA
HETATM   18  C11 UNL     1      28.652  -0.140  53.490  1.00  0.00     0.112 A 
HETATM   19  S1  UNL     1      29.036  -1.817  53.262  1.00  0.00    -0.081 SA
HETATM   20  C14 UNL     1      27.341   0.016  53.095  1.00  0.00     0.046 A 
HETATM   21  C12 UNL     1      27.324  -2.297  52.604  1.00  0.00     0.053 A 
HETATM   22  C13 UNL     1      26.624  -1.050  52.639  1.00  0.00     0.025 A 
ENDBRANCH  12  14
ENDBRANCH   8  12
ENDBRANCH   5   8
ENDBRANCH   1   5
TORSDOF 6
ENDMDL
MODEL 8
REMARK VINA RESULT:      -6.5      3.717      6.026
REMARK  6 active torsions:
REMARK  status: ('A' for Active; 'I' for Inactive)
REMARK    1  A    between atoms: C3_3  and  C4_4 
REMARK    2  A    between atoms: C3_3  and  C7_8 
REMARK    3  A    between atoms: C7_8  and  C8_9 
REMARK    4  A    between atoms: C7_8  and  N2_11 
REMARK    5  A    between atoms: C8_9  and  O1_10 
REMARK    6  A    between atoms: N2_11  and  C9_12 
ROOT
HETATM    1  C4  UNL     1      24.389   0.291  53.167  1.00  0.00     0.020 C 
HETATM    2  C5  UNL     1      23.354  -0.528  53.211  1.00  0.00     0.094 C 
HETATM    3  C6  UNL     1      22.556  -0.936  54.330  1.00  0.00     0.087 C 
HETATM    4  N1  UNL     1      21.934  -1.250  55.233  1.00  0.00    -0.192 NA
ENDROOT
BRANCH   1   5
HETATM    5  C3  UNL     1      25.419   0.950  52.362  1.00  0.00    -0.037 C 
HETATM    6  C2  UNL     1      26.558   0.212  52.268  1.00  0.00    -0.022 C 
HETATM    7  C1  UNL     1      27.147  -1.057  52.700  1.00  0.00     0.036 C 
BRANCH   5   8
HETATM    8  C7  UNL     1      25.400   2.244  51.652  1.00  0.00     0.139 C 
BRANCH   8   9
HETATM    9  C8  UNL     1      26.774   2.720  51.236  1.00  0.00     0.194 C 
BRANCH   9  10
HETATM   10  O1  UNL     1      26.759   3.911  50.544  1.00  0.00    -0.399 OA
HETATM   11  H10 UNL     1      25.854   4.062  50.199  1.00  0.00     0.209 HD
ENDBRANCH   9  10
ENDBRANCH   8   9
BRANCH   8  12
HETATM   12  N2  UNL     1      24.590   3.268  52.203  1.00  0.00    -0.363 N 
HETATM   13  H11 UNL     1      24.966   3.733  53.090  1.00  0.00     0.162 HD
BRANCH  12  14
HETATM   14  C9  UNL     1      23.356   3.909  51.930  1.00  0.00     0.138 A 
HETATM   15  N3  UNL     1      22.321   3.110  52.164  1.00  0.00    -0.224 NA
HETATM   16  C10 UNL     1      21.031   3.375  52.023  1.00  0.00     0.236 A 
HETATM   17  N4  UNL     1      20.790   4.618  51.586  1.00  0.00    -0.234 NA
HETATM   18  C11 UNL     1      21.777   5.503  51.320  1.00  0.00     0.112 A 
HETATM   19  S1  UNL     1      21.729   7.143  50.754  1.00  0.00    -0.081 SA
HETATM   20  C14 UNL     1      23.108   5.186  51.481  1.00  0.00     0.046 A 
HETATM   21  C12 UNL     1      23.609   7.377  50.747  1.00  0.00     0.053 A 
HETATM   22  C13 UNL     1      24.077   6.105  51.203  1.00  0.00     0.025 A 
ENDBRANCH  12  14
ENDBRANCH   8  12
ENDBRANCH   5   8
ENDBRANCH   1   5
TORSDOF 6
ENDMDL
MODEL 9
REMARK VINA RESULT:      -6.4      3.224      6.433
REMARK  6 active torsions:
REMARK  status: ('A' for Active; 'I' for Inactive)
REMARK    1  A    between atoms: C3_3  and  C4_4 
REMARK    2  A    between atoms: C3_3  and  C7_8 
REMARK    3  A    between atoms: C7_8  and  C8_9 
REMARK    4  A    between atoms: C7_8  and  N2_11 
REMARK    5  A    between atoms: C8_9  and  O1_10 
REMARK    6  A    between atoms: N2_11  and  C9_12 
ROOT
HETATM    1  C4  UNL     1      26.450   2.838  50.798  1.00  0.00     0.020 C 
HETATM    2  C5  UNL     1      26.313   3.728  49.833  1.00  0.00     0.094 C 
HETATM    3  C6  UNL     1      27.315   4.398  49.057  1.00  0.00     0.087 C 
HETATM    4  N1  UNL     1      28.127   4.922  48.451  1.00  0.00    -0.192 NA
ENDROOT
BRANCH   1   5
HETATM    5  C3  UNL     1      25.810   1.962  51.782  1.00  0.00    -0.037 C 
HETATM    6  C2  UNL     1      26.711   1.347  52.595  1.00  0.00    -0.022 C 
HETATM    7  C1  UNL     1      28.149   1.243  52.851  1.00  0.00     0.036 C 
BRANCH   5   8
HETATM    8  C7  UNL     1      24.384   1.669  52.022  1.00  0.00     0.139 C 
BRANCH   8   9
HETATM    9  C8  UNL     1      23.616   2.845  52.585  1.00  0.00     0.194 C 
BRANCH   9  10
HETATM   10  O1  UNL     1      24.357   3.628  53.443  1.00  0.00    -0.399 OA
HETATM   11  H10 UNL     1      24.760   3.050  54.125  1.00  0.00     0.209 HD
ENDBRANCH   9  10
ENDBRANCH   8   9
BRANCH   8  12
HETATM   12  N2  UNL     1      24.078   0.439  52.656  1.00  0.00    -0.363 N 
HETATM   13  H11 UNL     1      24.868  -0.281  52.680  1.00  0.00     0.162 HD
BRANCH  12  14
HETATM   14  C9  UNL     1      22.981  -0.176  53.309  1.00  0.00     0.138 A 
HETATM   15  N3  UNL     1      23.357  -0.814  54.412  1.00  0.00    -0.224 NA
HETATM   16  C10 UNL     1      22.603  -1.490  55.266  1.00  0.00     0.236 A 
HETATM   17  N4  UNL     1      21.306  -1.505  54.932  1.00  0.00    -0.234 NA
HETATM   18  C11 UNL     1      20.828  -0.886  53.829  1.00  0.00     0.112 A 
HETATM   19  S1  UNL     1      19.222  -0.759  53.187  1.00  0.00    -0.081 SA
HETATM   20  C14 UNL     1      21.648  -0.191  52.966  1.00  0.00     0.046 A 
HETATM   21  C12 UNL     1      19.719   0.286  51.686  1.00  0.00     0.053 A 
HETATM   22  C13 UNL     1      21.132   0.422  51.863  1.00  0.00     0.025 A 
ENDBRANCH  12  14
ENDBRANCH   8  12
ENDBRANCH   5   8
ENDBRANCH   1   5
TORSDOF 6
ENDMDL
