MODEL 1
REMARK VINA RESULT:      -7.8      0.000      0.000
REMARK  6 active torsions:
REMARK  status: ('A' for Active; 'I' for Inactive)
REMARK    1  A    between atoms: C2_2  and  C3_3 
REMARK    2  A    between atoms: C2_2  and  N4_22 
REMARK    3  A    between atoms: C4_4  and  N1_5 
REMARK    4  A    between atoms: N1_5  and  C5_6 
REMARK    5  A    between atoms: C5_6  and  C6_7 
REMARK    6  A    between atoms: N4_22  and  C18_24 
ROOT
HETATM    1  C6  UNL     1      23.301   3.055  52.505  1.00  0.00     0.028 C 
HETATM    2  N2  UNL     1      24.495   3.251  53.088  1.00  0.00    -0.292 NA
HETATM    3  C7  UNL     1      25.171   2.136  53.276  1.00  0.00     0.189 C 
HETATM    4  C8  UNL     1      26.374   1.433  53.440  1.00  0.00    -0.009 A 
HETATM    5  C9  UNL     1      27.538   2.034  53.792  1.00  0.00     0.055 A 
HETATM    6  C10 UNL     1      28.682   1.292  53.952  1.00  0.00     0.138 A 
HETATM    7  F1  UNL     1      29.824   1.899  54.298  1.00  0.00    -0.204 F 
HETATM    8  C11 UNL     1      28.562  -0.061  53.735  1.00  0.00     0.074 A 
HETATM    9 CL1  UNL     1      30.013  -1.020  53.935  1.00  0.00    -0.081 Cl
HETATM   10  C12 UNL     1      27.411  -0.725  53.378  1.00  0.00     0.057 A 
HETATM   11  C13 UNL     1      26.275   0.009  53.219  1.00  0.00     0.041 A 
HETATM   12  N3  UNL     1      25.022  -0.633  52.827  1.00  0.00    -0.366 N 
HETATM   13  C14 UNL     1      23.777  -0.264  53.365  1.00  0.00     0.084 C 
HETATM   14  C15 UNL     1      22.829   0.642  53.156  1.00  0.00    -0.004 C 
HETATM   15  C16 UNL     1      22.896   1.642  52.107  1.00  0.00     0.084 C 
HETATM   16  H14 UNL     1      25.176  -1.390  52.105  1.00  0.00     0.165 HD
ENDROOT
BRANCH   1  17
HETATM   17  C5  UNL     1      22.519   4.298  52.285  1.00  0.00     0.173 C 
BRANCH  17  18
HETATM   18  N1  UNL     1      23.304   5.505  52.406  1.00  0.00    -0.394 N 
HETATM   19  H7  UNL     1      23.429   5.888  53.368  1.00  0.00     0.159 HD
BRANCH  18  20
HETATM   20  C4  UNL     1      23.944   6.262  51.394  1.00  0.00     0.081 C 
HETATM   21  C3  UNL     1      24.573   5.448  50.526  1.00  0.00     0.014 C 
BRANCH  21  22
HETATM   22  C2  UNL     1      25.369   5.783  49.316  1.00  0.00     0.106 C 
HETATM   23  C1  UNL     1      25.808   7.235  49.458  1.00  0.00     0.037 C 
BRANCH  22  24
HETATM   24  N4  UNL     1      26.503   4.919  49.139  1.00  0.00    -0.356 N 
HETATM   25  C17 UNL     1      27.756   5.218  48.515  1.00  0.00     0.152 C 
BRANCH  24  26
HETATM   26  C18 UNL     1      26.273   3.634  49.675  1.00  0.00     0.351 C 
HETATM   27  O1  UNL     1      27.111   3.096  50.454  1.00  0.00    -0.284 OA
ENDBRANCH  24  26
ENDBRANCH  22  24
ENDBRANCH  21  22
ENDBRANCH  18  20
ENDBRANCH  17  18
ENDBRANCH   1  17
TORSDOF 6
ENDMDL
MODEL 2
REMARK VINA RESULT:      -7.8      2.975      6.429
REMARK  6 active torsions:
REMARK  status: ('A' for Active; 'I' for Inactive)
REMARK    1  A    between atoms: C2_2  and  C3_3 
REMARK    2  A    between atoms: C2_2  and  N4_22 
REMARK    3  A    between atoms: C4_4  and  N1_5 
REMARK    4  A    between atoms: N1_5  and  C5_6 
REMARK    5  A    between atoms: C5_6  and  C6_7 
REMARK    6  A    between atoms: N4_22  and  C18_24 
ROOT
HETATM    1  C6  UNL     1      23.366   3.421  52.039  1.00  0.00     0.028 C 
HETATM    2  N2  UNL     1      24.323   3.176  51.128  1.00  0.00    -0.292 NA
HETATM    3  C7  UNL     1      24.762   4.266  50.531  1.00  0.00     0.189 C 
HETATM    4  C8  UNL     1      25.753   4.986  49.848  1.00  0.00    -0.009 A 
HETATM    5  C9  UNL     1      26.805   4.392  49.232  1.00  0.00     0.055 A 
HETATM    6  C10 UNL     1      27.738   5.148  48.566  1.00  0.00     0.138 A 
HETATM    7  F1  UNL     1      28.772   4.547  47.963  1.00  0.00    -0.204 F 
HETATM    8  C11 UNL     1      27.532   6.508  48.572  1.00  0.00     0.074 A 
HETATM    9 CL1  UNL     1      28.714   7.485  47.728  1.00  0.00    -0.081 Cl
HETATM   10  C12 UNL     1      26.487   7.166  49.178  1.00  0.00     0.057 A 
HETATM   11  C13 UNL     1      25.560   6.418  49.839  1.00  0.00     0.041 A 
HETATM   12  N3  UNL     1      24.432   7.056  50.516  1.00  0.00    -0.366 N 
HETATM   13  C14 UNL     1      23.135   6.515  50.507  1.00  0.00     0.084 C 
HETATM   14  C15 UNL     1      22.422   5.620  51.179  1.00  0.00    -0.004 C 
HETATM   15  C16 UNL     1      22.944   4.860  52.299  1.00  0.00     0.084 C 
HETATM   16  H14 UNL     1      24.719   7.951  51.000  1.00  0.00     0.165 HD
ENDROOT
BRANCH   1  17
HETATM   17  C5  UNL     1      22.853   2.207  52.724  1.00  0.00     0.173 C 
BRANCH  17  18
HETATM   18  N1  UNL     1      23.493   0.986  52.294  1.00  0.00    -0.394 N 
HETATM   19  H7  UNL     1      23.439   0.761  51.277  1.00  0.00     0.159 HD
BRANCH  18  20
HETATM   20  C4  UNL     1      24.199   0.026  53.062  1.00  0.00     0.081 C 
HETATM   21  C3  UNL     1      25.524   0.252  52.991  1.00  0.00     0.014 C 
BRANCH  21  22
HETATM   22  C2  UNL     1      26.649  -0.487  53.625  1.00  0.00     0.106 C 
HETATM   23  C1  UNL     1      27.017  -1.629  52.686  1.00  0.00     0.037 C 
BRANCH  22  24
HETATM   24  N4  UNL     1      27.786   0.350  53.887  1.00  0.00    -0.356 N 
HETATM   25  C17 UNL     1      29.038  -0.016  54.476  1.00  0.00     0.152 C 
BRANCH  24  26
HETATM   26  C18 UNL     1      27.561   1.683  53.483  1.00  0.00     0.351 C 
HETATM   27  O1  UNL     1      28.011   2.652  54.161  1.00  0.00    -0.284 OA
ENDBRANCH  24  26
ENDBRANCH  22  24
ENDBRANCH  21  22
ENDBRANCH  18  20
ENDBRANCH  17  18
ENDBRANCH   1  17
TORSDOF 6
ENDMDL
MODEL 3
REMARK VINA RESULT:      -7.6      4.114      8.032
REMARK  6 active torsions:
REMARK  status: ('A' for Active; 'I' for Inactive)
REMARK    1  A    between atoms: C2_2  and  C3_3 
REMARK    2  A    between atoms: C2_2  and  N4_22 
REMARK    3  A    between atoms: C4_4  and  N1_5 
REMARK    4  A    between atoms: N1_5  and  C5_6 
REMARK    5  A    between atoms: C5_6  and  C6_7 
REMARK    6  A    between atoms: N4_22  and  C18_24 
ROOT
HETATM    1  C6  UNL     1      27.079   5.421  48.921  1.00  0.00     0.028 C 
HETATM    2  N2  UNL     1      28.249   4.836  48.619  1.00  0.00    -0.292 NA
HETATM    3  C7  UNL     1      29.161   5.687  48.193  1.00  0.00     0.189 C 
HETATM    4  C8  UNL     1      30.496   6.074  47.999  1.00  0.00    -0.009 A 
HETATM    5  C9  UNL     1      31.531   5.198  48.037  1.00  0.00     0.055 A 
HETATM    6  C10 UNL     1      32.816   5.633  47.827  1.00  0.00     0.138 A 
HETATM    7  F1  UNL     1      33.828   4.756  47.867  1.00  0.00    -0.204 F 
HETATM    8  C11 UNL     1      32.968   6.977  47.584  1.00  0.00     0.074 A 
HETATM    9 CL1  UNL     1      34.602   7.546  47.314  1.00  0.00    -0.081 Cl
HETATM   10  C12 UNL     1      31.959   7.911  47.534  1.00  0.00     0.057 A 
HETATM   11  C13 UNL     1      30.684   7.482  47.742  1.00  0.00     0.041 A 
HETATM   12  N3  UNL     1      29.567   8.426  47.716  1.00  0.00    -0.366 N 
HETATM   13  C14 UNL     1      28.323   8.115  47.140  1.00  0.00     0.084 C 
HETATM   14  C15 UNL     1      27.189   7.512  47.478  1.00  0.00    -0.004 C 
HETATM   15  C16 UNL     1      26.951   6.932  48.786  1.00  0.00     0.084 C 
HETATM   16  H14 UNL     1      29.816   9.344  48.177  1.00  0.00     0.165 HD
ENDROOT
BRANCH   1  17
HETATM   17  C5  UNL     1      26.034   4.481  49.401  1.00  0.00     0.173 C 
BRANCH  17  18
HETATM   18  N1  UNL     1      26.368   3.830  50.646  1.00  0.00    -0.394 N 
HETATM   19  H7  UNL     1      26.806   4.424  51.383  1.00  0.00     0.159 HD
BRANCH  18  20
HETATM   20  C4  UNL     1      26.186   2.477  51.026  1.00  0.00     0.081 C 
HETATM   21  C3  UNL     1      26.785   2.237  52.208  1.00  0.00     0.014 C 
BRANCH  21  22
HETATM   22  C2  UNL     1      26.862   0.979  52.995  1.00  0.00     0.106 C 
HETATM   23  C1  UNL     1      26.743  -0.175  52.007  1.00  0.00     0.037 C 
BRANCH  22  24
HETATM   24  N4  UNL     1      28.072   0.875  53.763  1.00  0.00    -0.356 N 
HETATM   25  C17 UNL     1      28.564  -0.253  54.493  1.00  0.00     0.152 C 
BRANCH  24  26
HETATM   26  C18 UNL     1      28.812   2.077  53.741  1.00  0.00     0.351 C 
HETATM   27  O1  UNL     1      29.467   2.454  54.754  1.00  0.00    -0.284 OA
ENDBRANCH  24  26
ENDBRANCH  22  24
ENDBRANCH  21  22
ENDBRANCH  18  20
ENDBRANCH  17  18
ENDBRANCH   1  17
TORSDOF 6
ENDMDL
MODEL 4
REMARK VINA RESULT:      -7.6      4.944      7.303
REMARK  6 active torsions:
REMARK  status: ('A' for Active; 'I' for Inactive)
REMARK    1  A    between atoms: C2_2  and  C3_3 
REMARK    2  A    between atoms: C2_2  and  N4_22 
REMARK    3  A    between atoms: C4_4  and  N1_5 
REMARK    4  A    between atoms: N1_5  and  C5_6 
REMARK    5  A    between atoms: C5_6  and  C6_7 
REMARK    6  A    between atoms: N4_22  and  C18_24 
ROOT
HETATM    1  C6  UNL     1      23.408   1.825  51.581  1.00  0.00     0.028 C 
HETATM    2  N2  UNL     1      22.356   1.534  50.799  1.00  0.00    -0.292 NA
HETATM    3  C7  UNL     1      21.455   0.783  51.399  1.00  0.00     0.189 C 
HETATM    4  C8  UNL     1      20.140   0.320  51.557  1.00  0.00    -0.009 A 
HETATM    5  C9  UNL     1      19.192   0.447  50.596  1.00  0.00     0.055 A 
HETATM    6  C10 UNL     1      17.924  -0.038  50.803  1.00  0.00     0.138 A 
HETATM    7  F1  UNL     1      16.998   0.096  49.844  1.00  0.00    -0.204 F 
HETATM    8  C11 UNL     1      17.697  -0.642  52.017  1.00  0.00     0.074 A 
HETATM    9 CL1  UNL     1      16.085  -1.266  52.294  1.00  0.00    -0.081 Cl
HETATM   10  C12 UNL     1      18.617  -0.801  53.027  1.00  0.00     0.057 A 
HETATM   11  C13 UNL     1      19.875  -0.320  52.825  1.00  0.00     0.041 A 
HETATM   12  N3  UNL     1      20.896  -0.443  53.864  1.00  0.00    -0.366 N 
HETATM   13  C14 UNL     1      22.238  -0.748  53.579  1.00  0.00     0.084 C 
HETATM   14  C15 UNL     1      23.351  -0.116  53.223  1.00  0.00    -0.004 C 
HETATM   15  C16 UNL     1      23.425   1.317  53.017  1.00  0.00     0.084 C 
HETATM   16  H14 UNL     1      20.498  -0.276  54.829  1.00  0.00     0.165 HD
ENDROOT
BRANCH   1  17
HETATM   17  C5  UNL     1      24.440   2.669  50.925  1.00  0.00     0.173 C 
BRANCH  17  18
HETATM   18  N1  UNL     1      25.596   2.918  51.753  1.00  0.00    -0.394 N 
HETATM   19  H7  UNL     1      25.479   3.605  52.529  1.00  0.00     0.159 HD
BRANCH  18  20
HETATM   20  C4  UNL     1      26.895   2.357  51.670  1.00  0.00     0.081 C 
HETATM   21  C3  UNL     1      27.082   1.457  52.653  1.00  0.00     0.014 C 
BRANCH  21  22
HETATM   22  C2  UNL     1      28.273   0.623  52.964  1.00  0.00     0.106 C 
HETATM   23  C1  UNL     1      28.847   1.138  54.279  1.00  0.00     0.037 C 
BRANCH  22  24
HETATM   24  N4  UNL     1      27.964  -0.777  53.052  1.00  0.00    -0.356 N 
HETATM   25  C17 UNL     1      26.735  -1.435  52.729  1.00  0.00     0.152 C 
BRANCH  24  26
HETATM   26  C18 UNL     1      29.063  -1.529  53.519  1.00  0.00     0.351 C 
HETATM   27  O1  UNL     1      29.106  -2.782  53.361  1.00  0.00    -0.284 OA
ENDBRANCH  24  26
ENDBRANCH  22  24
ENDBRANCH  21  22
ENDBRANCH  18  20
ENDBRANCH  17  18
ENDBRANCH   1  17
TORSDOF 6
ENDMDL
MODEL 5
REMARK VINA RESULT:      -7.4      3.442      5.254
REMARK  6 active torsions:
REMARK  status: ('A' for Active; 'I' for Inactive)
REMARK    1  A    between atoms: C2_2  and  C3_3 
REMARK    2  A    between atoms: C2_2  and  N4_22 
REMARK    3  A    between atoms: C4_4  and  N1_5 
REMARK    4  A    between atoms: N1_5  and  C5_6 
REMARK    5  A    between atoms: C5_6  and  C6_7 
REMARK    6  A    between atoms: N4_22  and  C18_24 
ROOT
HETATM    1  C6  UNL     1      26.561   4.226  49.421  1.00  0.00     0.028 C 
HETATM    2  N2  UNL     1      26.884   3.265  50.301  1.00  0.00    -0.292 NA
HETATM    3  C7  UNL     1      25.861   2.862  51.029  1.00  0.00     0.189 C 
HETATM    4  C8  UNL     1      25.199   1.895  51.800  1.00  0.00    -0.009 A 
HETATM    5  C9  UNL     1      25.830   0.826  52.346  1.00  0.00     0.055 A 
HETATM    6  C10 UNL     1      25.131  -0.081  53.104  1.00  0.00     0.138 A 
HETATM    7  F1  UNL     1      25.769  -1.131  53.637  1.00  0.00    -0.204 F 
HETATM    8  C11 UNL     1      23.788   0.169  53.261  1.00  0.00     0.074 A 
HETATM    9 CL1  UNL     1      22.884  -0.980  54.224  1.00  0.00    -0.081 Cl
HETATM   10  C12 UNL     1      23.095   1.232  52.732  1.00  0.00     0.057 A 
HETATM   11  C13 UNL     1      23.785   2.133  51.981  1.00  0.00     0.041 A 
HETATM   12  N3  UNL     1      23.105   3.279  51.378  1.00  0.00    -0.366 N 
HETATM   13  C14 UNL     1      23.683   4.559  51.314  1.00  0.00     0.084 C 
HETATM   14  C15 UNL     1      24.513   5.242  50.534  1.00  0.00    -0.004 C 
HETATM   15  C16 UNL     1      25.115   4.693  49.334  1.00  0.00     0.084 C 
HETATM   16  H14 UNL     1      22.150   3.020  51.008  1.00  0.00     0.165 HD
ENDROOT
BRANCH   1  17
HETATM   17  C5  UNL     1      27.699   4.699  48.591  1.00  0.00     0.173 C 
BRANCH  17  18
HETATM   18  N1  UNL     1      28.104   6.054  48.882  1.00  0.00    -0.394 N 
HETATM   19  H7  UNL     1      27.608   6.535  49.664  1.00  0.00     0.159 HD
BRANCH  18  20
HETATM   20  C4  UNL     1      29.095   6.847  48.252  1.00  0.00     0.081 C 
HETATM   21  C3  UNL     1      30.324   6.452  48.634  1.00  0.00     0.014 C 
BRANCH  21  22
HETATM   22  C2  UNL     1      31.657   6.981  48.240  1.00  0.00     0.106 C 
HETATM   23  C1  UNL     1      32.025   8.061  49.250  1.00  0.00     0.037 C 
BRANCH  22  24
HETATM   24  N4  UNL     1      32.667   5.961  48.188  1.00  0.00    -0.356 N 
HETATM   25  C17 UNL     1      34.021   6.031  48.647  1.00  0.00     0.152 C 
BRANCH  24  26
HETATM   26  C18 UNL     1      32.184   4.773  47.599  1.00  0.00     0.351 C 
HETATM   27  O1  UNL     1      32.409   3.648  48.129  1.00  0.00    -0.284 OA
ENDBRANCH  24  26
ENDBRANCH  22  24
ENDBRANCH  21  22
ENDBRANCH  18  20
ENDBRANCH  17  18
ENDBRANCH   1  17
TORSDOF 6
ENDMDL
MODEL 6
REMARK VINA RESULT:      -7.1      1.452      1.734
REMARK  6 active torsions:
REMARK  status: ('A' for Active; 'I' for Inactive)
REMARK    1  A    between atoms: C2_2  and  C3_3 
REMARK    2  A    between atoms: C2_2  and  N4_22 
REMARK    3  A    between atoms: C4_4  and  N1_5 
REMARK    4  A    between atoms: N1_5  and  C5_6 
REMARK    5  A    between atoms: C5_6  and  C6_7 
REMARK    6  A    between atoms: N4_22  and  C18_24 
ROOT
HETATM    1  C6  UNL     1      22.455   2.292  52.430  1.00  0.00     0.028 C 
HETATM    2  N2  UNL     1      23.626   2.834  52.802  1.00  0.00    -0.292 NA
HETATM    3  C7  UNL     1      24.545   1.935  53.092  1.00  0.00     0.189 C 
HETATM    4  C8  UNL     1      25.884   1.532  53.215  1.00  0.00    -0.009 A 
HETATM    5  C9  UNL     1      26.915   2.410  53.294  1.00  0.00     0.055 A 
HETATM    6  C10 UNL     1      28.204   1.957  53.426  1.00  0.00     0.138 A 
HETATM    7  F1  UNL     1      29.212   2.836  53.503  1.00  0.00    -0.204 F 
HETATM    8  C11 UNL     1      28.365   0.593  53.471  1.00  0.00     0.074 A 
HETATM    9 CL1  UNL     1      30.003   0.000  53.640  1.00  0.00    -0.081 Cl
HETATM   10  C12 UNL     1      27.360  -0.344  53.396  1.00  0.00     0.057 A 
HETATM   11  C13 UNL     1      26.081   0.102  53.265  1.00  0.00     0.041 A 
HETATM   12  N3  UNL     1      24.968  -0.841  53.165  1.00  0.00    -0.366 N 
HETATM   13  C14 UNL     1      23.729  -0.624  53.792  1.00  0.00     0.084 C 
HETATM   14  C15 UNL     1      22.589   0.015  53.556  1.00  0.00    -0.004 C 
HETATM   15  C16 UNL     1      22.335   0.776  52.347  1.00  0.00     0.084 C 
HETATM   16  H14 UNL     1      25.216  -1.682  52.574  1.00  0.00     0.165 HD
ENDROOT
BRANCH   1  17
HETATM   17  C5  UNL     1      21.401   3.285  52.101  1.00  0.00     0.173 C 
BRANCH  17  18
HETATM   18  N1  UNL     1      21.803   4.653  52.332  1.00  0.00    -0.394 N 
HETATM   19  H7  UNL     1      22.030   4.916  53.315  1.00  0.00     0.159 HD
BRANCH  18  20
HETATM   20  C4  UNL     1      21.939   5.715  51.403  1.00  0.00     0.081 C 
HETATM   21  C3  UNL     1      23.181   5.729  50.885  1.00  0.00     0.014 C 
BRANCH  21  22
HETATM   22  C2  UNL     1      23.782   6.650  49.884  1.00  0.00     0.106 C 
HETATM   23  C1  UNL     1      23.932   8.008  50.558  1.00  0.00     0.037 C 
BRANCH  22  24
HETATM   24  N4  UNL     1      25.045   6.181  49.385  1.00  0.00    -0.356 N 
HETATM   25  C17 UNL     1      25.743   4.980  49.730  1.00  0.00     0.152 C 
BRANCH  24  26
HETATM   26  C18 UNL     1      25.600   7.071  48.442  1.00  0.00     0.351 C 
HETATM   27  O1  UNL     1      26.746   6.864  47.949  1.00  0.00    -0.284 OA
ENDBRANCH  24  26
ENDBRANCH  22  24
ENDBRANCH  21  22
ENDBRANCH  18  20
ENDBRANCH  17  18
ENDBRANCH   1  17
TORSDOF 6
ENDMDL
MODEL 7
REMARK VINA RESULT:      -7.1      3.534      5.236
REMARK  6 active torsions:
REMARK  status: ('A' for Active; 'I' for Inactive)
REMARK    1  A    between atoms: C2_2  and  C3_3 
REMARK    2  A    between atoms: C2_2  and  N4_22 
REMARK    3  A    between atoms: C4_4  and  N1_5 
REMARK    4  A    between atoms: N1_5  and  C5_6 
REMARK    5  A    between atoms: C5_6  and  C6_7 
REMARK    6  A    between atoms: N4_22  and  C18_24 
ROOT
HETATM    1  C6  UNL     1      26.534   4.228  49.462  1.00  0.00     0.028 C 
HETATM    2  N2  UNL     1      26.852   3.258  50.335  1.00  0.00    -0.292 NA
HETATM    3  C7  UNL     1      25.826   2.850  51.055  1.00  0.00     0.189 C 
HETATM    4  C8  UNL     1      25.159   1.877  51.815  1.00  0.00    -0.009 A 
HETATM    5  C9  UNL     1      25.788   0.803  52.354  1.00  0.00     0.055 A 
HETATM    6  C10 UNL     1      25.085  -0.110  53.101  1.00  0.00     0.138 A 
HETATM    7  F1  UNL     1      25.719  -1.166  53.627  1.00  0.00    -0.204 F 
HETATM    8  C11 UNL     1      23.742   0.139  53.255  1.00  0.00     0.074 A 
HETATM    9 CL1  UNL     1      22.833  -1.016  54.205  1.00  0.00    -0.081 Cl
HETATM   10  C12 UNL     1      23.051   1.209  52.733  1.00  0.00     0.057 A 
HETATM   11  C13 UNL     1      23.746   2.116  51.993  1.00  0.00     0.041 A 
HETATM   12  N3  UNL     1      23.069   3.267  51.397  1.00  0.00    -0.366 N 
HETATM   13  C14 UNL     1      23.649   4.547  51.347  1.00  0.00     0.084 C 
HETATM   14  C15 UNL     1      24.482   5.236  50.576  1.00  0.00    -0.004 C 
HETATM   15  C16 UNL     1      25.088   4.698  49.374  1.00  0.00     0.084 C 
HETATM   16  H14 UNL     1      22.115   3.012  51.021  1.00  0.00     0.165 HD
ENDROOT
BRANCH   1  17
HETATM   17  C5  UNL     1      27.675   4.707  48.641  1.00  0.00     0.173 C 
BRANCH  17  18
HETATM   18  N1  UNL     1      28.107   6.044  48.974  1.00  0.00    -0.394 N 
HETATM   19  H7  UNL     1      28.637   6.158  49.865  1.00  0.00     0.159 HD
BRANCH  18  20
HETATM   20  C4  UNL     1      27.915   7.252  48.257  1.00  0.00     0.081 C 
HETATM   21  C3  UNL     1      29.082   7.908  48.122  1.00  0.00     0.014 C 
BRANCH  21  22
HETATM   22  C2  UNL     1      29.372   9.203  47.451  1.00  0.00     0.106 C 
HETATM   23  C1  UNL     1      28.279   9.422  46.412  1.00  0.00     0.037 C 
BRANCH  22  24
HETATM   24  N4  UNL     1      29.435  10.304  48.372  1.00  0.00    -0.356 N 
HETATM   25  C17 UNL     1      30.567  10.780  49.107  1.00  0.00     0.152 C 
BRANCH  24  26
HETATM   26  C18 UNL     1      28.185  10.945  48.510  1.00  0.00     0.351 C 
HETATM   27  O1  UNL     1      27.476  10.768  49.542  1.00  0.00    -0.284 OA
ENDBRANCH  24  26
ENDBRANCH  22  24
ENDBRANCH  21  22
ENDBRANCH  18  20
ENDBRANCH  17  18
ENDBRANCH   1  17
TORSDOF 6
ENDMDL
MODEL 8
REMARK VINA RESULT:      -7.1      3.094      4.977
REMARK  6 active torsions:
REMARK  status: ('A' for Active; 'I' for Inactive)
REMARK    1  A    between atoms: C2_2  and  C3_3 
REMARK    2  A    between atoms: C2_2  and  N4_22 
REMARK    3  A    between atoms: C4_4  and  N1_5 
REMARK    4  A    between atoms: N1_5  and  C5_6 
REMARK    5  A    between atoms: C5_6  and  C6_7 
REMARK    6  A    between atoms: N4_22  and  C18_24 
ROOT
HETATM    1  C6  UNL     1      26.518   4.285  49.422  1.00  0.00     0.028 C 
HETATM    2  N2  UNL     1      26.852   3.309  50.283  1.00  0.00    -0.292 NA
HETATM    3  C7  UNL     1      25.838   2.893  51.014  1.00  0.00     0.189 C 
HETATM    4  C8  UNL     1      25.185   1.913  51.777  1.00  0.00    -0.009 A 
HETATM    5  C9  UNL     1      25.824   0.836  52.298  1.00  0.00     0.055 A 
HETATM    6  C10 UNL     1      25.134  -0.085  53.048  1.00  0.00     0.138 A 
HETATM    7  F1  UNL     1      25.779  -1.143  53.556  1.00  0.00    -0.204 F 
HETATM    8  C11 UNL     1      23.793   0.160  53.224  1.00  0.00     0.074 A 
HETATM    9 CL1  UNL     1      22.901  -1.005  54.179  1.00  0.00    -0.081 Cl
HETATM   10  C12 UNL     1      23.092   1.232  52.721  1.00  0.00     0.057 A 
HETATM   11  C13 UNL     1      23.773   2.146  51.977  1.00  0.00     0.041 A 
HETATM   12  N3  UNL     1      23.085   3.301  51.401  1.00  0.00    -0.366 N 
HETATM   13  C14 UNL     1      23.661   4.582  51.353  1.00  0.00     0.084 C 
HETATM   14  C15 UNL     1      24.481   5.279  50.575  1.00  0.00    -0.004 C 
HETATM   15  C16 UNL     1      25.070   4.752  49.359  1.00  0.00     0.084 C 
HETATM   16  H14 UNL     1      22.126   3.046  51.038  1.00  0.00     0.165 HD
ENDROOT
BRANCH   1  17
HETATM   17  C5  UNL     1      27.646   4.773  48.588  1.00  0.00     0.173 C 
BRANCH  17  18
HETATM   18  N1  UNL     1      28.166   6.052  49.010  1.00  0.00    -0.394 N 
HETATM   19  H7  UNL     1      28.596   6.094  49.959  1.00  0.00     0.159 HD
BRANCH  18  20
HETATM   20  C4  UNL     1      28.183   7.286  48.312  1.00  0.00     0.081 C 
HETATM   21  C3  UNL     1      26.953   7.584  47.856  1.00  0.00     0.014 C 
BRANCH  21  22
HETATM   22  C2  UNL     1      26.487   8.762  47.078  1.00  0.00     0.106 C 
HETATM   23  C1  UNL     1      25.622   8.233  45.941  1.00  0.00     0.037 C 
BRANCH  22  24
HETATM   24  N4  UNL     1      25.762   9.708  47.880  1.00  0.00    -0.356 N 
HETATM   25  C17 UNL     1      24.354   9.754  48.138  1.00  0.00     0.152 C 
BRANCH  24  26
HETATM   26  C18 UNL     1      26.614  10.675  48.452  1.00  0.00     0.351 C 
HETATM   27  O1  UNL     1      27.007  10.569  49.649  1.00  0.00    -0.284 OA
ENDBRANCH  24  26
ENDBRANCH  22  24
ENDBRANCH  21  22
ENDBRANCH  18  20
ENDBRANCH  17  18
ENDBRANCH   1  17
TORSDOF 6
ENDMDL
MODEL 9
REMARK VINA RESULT:      -7.0      2.092      2.403
REMARK  6 active torsions:
REMARK  status: ('A' for Active; 'I' for Inactive)
REMARK    1  A    between atoms: C2_2  and  C3_3 
REMARK    2  A    between atoms: C2_2  and  N4_22 
REMARK    3  A    between atoms: C4_4  and  N1_5 
REMARK    4  A    between atoms: N1_5  and  C5_6 
REMARK    5  A    between atoms: C5_6  and  C6_7 
REMARK    6  A    between atoms: N4_22  and  C18_24 
ROOT
HETATM    1  C6  UNL     1      23.217   3.124  52.556  1.00  0.00     0.028 C 
HETATM    2  N2  UNL     1      24.414   3.315  53.135  1.00  0.00    -0.292 NA
HETATM    3  C7  UNL     1      25.095   2.198  53.297  1.00  0.00     0.189 C 
HETATM    4  C8  UNL     1      26.303   1.498  53.440  1.00  0.00    -0.009 A 
HETATM    5  C9  UNL     1      27.466   2.098  53.795  1.00  0.00     0.055 A 
HETATM    6  C10 UNL     1      28.615   1.358  53.934  1.00  0.00     0.138 A 
HETATM    7  F1  UNL     1      29.757   1.964  54.285  1.00  0.00    -0.204 F 
HETATM    8  C11 UNL     1      28.499   0.009  53.692  1.00  0.00     0.074 A 
HETATM    9 CL1  UNL     1      29.956  -0.947  53.864  1.00  0.00    -0.081 Cl
HETATM   10  C12 UNL     1      27.349  -0.653  53.330  1.00  0.00     0.057 A 
HETATM   11  C13 UNL     1      26.209   0.078  53.192  1.00  0.00     0.041 A 
HETATM   12  N3  UNL     1      24.956  -0.562  52.795  1.00  0.00    -0.366 N 
HETATM   13  C14 UNL     1      23.713  -0.208  53.348  1.00  0.00     0.084 C 
HETATM   14  C15 UNL     1      22.759   0.697  53.163  1.00  0.00    -0.004 C 
HETATM   15  C16 UNL     1      22.815   1.717  52.134  1.00  0.00     0.084 C 
HETATM   16  H14 UNL     1      25.109  -1.304  52.058  1.00  0.00     0.165 HD
ENDROOT
BRANCH   1  17
HETATM   17  C5  UNL     1      22.428   4.368  52.365  1.00  0.00     0.173 C 
BRANCH  17  18
HETATM   18  N1  UNL     1      23.241   5.545  52.167  1.00  0.00    -0.394 N 
HETATM   19  H7  UNL     1      23.451   6.118  53.013  1.00  0.00     0.159 HD
BRANCH  18  20
HETATM   20  C4  UNL     1      23.811   6.049  50.971  1.00  0.00     0.081 C 
HETATM   21  C3  UNL     1      24.125   7.350  51.114  1.00  0.00     0.014 C 
BRANCH  21  22
HETATM   22  C2  UNL     1      24.739   8.291  50.139  1.00  0.00     0.106 C 
HETATM   23  C1  UNL     1      26.227   7.968  50.083  1.00  0.00     0.037 C 
BRANCH  22  24
HETATM   24  N4  UNL     1      24.144   8.206  48.835  1.00  0.00    -0.356 N 
HETATM   25  C17 UNL     1      24.630   7.508  47.684  1.00  0.00     0.152 C 
BRANCH  24  26
HETATM   26  C18 UNL     1      22.933   8.926  48.762  1.00  0.00     0.351 C 
HETATM   27  O1  UNL     1      21.843   8.338  48.507  1.00  0.00    -0.284 OA
ENDBRANCH  24  26
ENDBRANCH  22  24
ENDBRANCH  21  22
ENDBRANCH  18  20
ENDBRANCH  17  18
ENDBRANCH   1  17
TORSDOF 6
ENDMDL
