MODEL 1
REMARK VINA RESULT:      -9.1      0.000      0.000
REMARK  1 active torsions:
REMARK  status: ('A' for Active; 'I' for Inactive)
REMARK    1  A    between atoms: C10_14  and  C11_15 
ROOT
HETATM    1  C1  UNL     1      24.516   0.965  53.414  1.00  0.00     0.019 C 
HETATM    2  C2  UNL     1      24.553   2.320  52.715  1.00  0.00     0.062 C 
HETATM    3  C3  UNL     1      25.358   2.194  51.423  1.00  0.00     0.212 C 
HETATM    4  O1  UNL     1      25.765   3.359  50.859  1.00  0.00    -0.273 OA
HETATM    5  N1  UNL     1      24.872   3.944  49.992  1.00  0.00    -0.233 N 
HETATM    6  C4  UNL     1      23.500   3.880  49.507  1.00  0.00     0.131 C 
HETATM    7  C5  UNL     1      22.551   3.316  50.304  1.00  0.00    -0.025 C 
HETATM    8  C6  UNL     1      22.362   3.494  51.790  1.00  0.00    -0.023 C 
HETATM    9  C7  UNL     1      23.087   2.496  52.336  1.00  0.00     0.069 C 
HETATM   10  N2  UNL     1      22.536   1.162  52.677  1.00  0.00    -0.159 NA
HETATM   11  N3  UNL     1      22.013   0.260  51.865  1.00  0.00    -0.193 NA
HETATM   12  C8  UNL     1      21.063   0.583  50.775  1.00  0.00     0.174 C 
HETATM   13  C9  UNL     1      21.894   1.022  49.596  1.00  0.00     0.035 C 
HETATM   14  C10 UNL     1      21.834   2.498  49.288  1.00  0.00     0.056 C 
HETATM   15  C12 UNL     1      21.553   4.596  52.371  1.00  0.00     0.048 C 
HETATM   16  C13 UNL     1      21.748   5.772  51.396  1.00  0.00     0.083 C 
HETATM   17  C14 UNL     1      23.216   6.057  51.378  1.00  0.00     0.127 C 
HETATM   18  O3  UNL     1      23.485   5.359  52.332  1.00  0.00    -0.298 OA
HETATM   19  C15 UNL     1      23.456   6.980  50.254  1.00  0.00     0.083 C 
HETATM   20  C16 UNL     1      24.863   7.354  49.978  1.00  0.00     0.048 C 
HETATM   21  C17 UNL     1      25.769   6.274  49.540  1.00  0.00    -0.029 A 
HETATM   22  C18 UNL     1      26.891   6.916  48.984  1.00  0.00     0.009 A 
HETATM   23  C19 UNL     1      28.015   6.305  48.429  1.00  0.00     0.001 A 
HETATM   24  C20 UNL     1      28.024   4.926  48.427  1.00  0.00     0.002 A 
HETATM   25  C21 UNL     1      26.905   4.282  48.982  1.00  0.00     0.033 A 
HETATM   26  C22 UNL     1      25.784   4.900  49.535  1.00  0.00     0.068 A 
ENDROOT
BRANCH  14  27
HETATM   27  C11 UNL     1      22.404   2.686  47.949  1.00  0.00     0.400 C 
HETATM   28  O2  UNL     1      22.447   2.736  46.742  1.00  0.00    -0.429 OA
ENDBRANCH  14  27
TORSDOF 1
ENDMDL
MODEL 2
REMARK VINA RESULT:      -8.9      1.910      5.744
REMARK  1 active torsions:
REMARK  status: ('A' for Active; 'I' for Inactive)
REMARK    1  A    between atoms: C10_14  and  C11_15 
ROOT
HETATM    1  C1  UNL     1      21.878   6.790  51.215  1.00  0.00     0.019 C 
HETATM    2  C2  UNL     1      22.546   5.470  51.584  1.00  0.00     0.062 C 
HETATM    3  C3  UNL     1      21.476   4.387  51.708  1.00  0.00     0.212 C 
HETATM    4  O1  UNL     1      21.851   3.249  52.345  1.00  0.00    -0.273 OA
HETATM    5  N1  UNL     1      22.429   2.286  51.551  1.00  0.00    -0.233 N 
HETATM    6  C4  UNL     1      22.967   2.034  50.221  1.00  0.00     0.131 C 
HETATM    7  C5  UNL     1      23.424   3.089  49.492  1.00  0.00    -0.025 C 
HETATM    8  C6  UNL     1      24.259   4.253  49.966  1.00  0.00    -0.023 C 
HETATM    9  C7  UNL     1      23.352   5.186  50.322  1.00  0.00     0.069 C 
HETATM   10  N2  UNL     1      22.846   6.241  49.409  1.00  0.00    -0.159 NA
HETATM   11  N3  UNL     1      22.169   6.095  48.284  1.00  0.00    -0.193 NA
HETATM   12  C8  UNL     1      22.500   5.092  47.246  1.00  0.00     0.174 C 
HETATM   13  C9  UNL     1      21.867   3.795  47.682  1.00  0.00     0.035 C 
HETATM   14  C10 UNL     1      22.835   2.744  48.169  1.00  0.00     0.056 C 
HETATM   15  C12 UNL     1      25.744   4.214  50.004  1.00  0.00     0.048 C 
HETATM   16  C13 UNL     1      26.082   2.745  50.319  1.00  0.00     0.083 C 
HETATM   17  C14 UNL     1      25.445   2.447  51.640  1.00  0.00     0.127 C 
HETATM   18  O3  UNL     1      25.176   3.600  51.905  1.00  0.00    -0.298 OA
HETATM   19  C15 UNL     1      25.516   0.987  51.826  1.00  0.00     0.083 C 
HETATM   20  C16 UNL     1      24.872   0.431  53.039  1.00  0.00     0.048 C 
HETATM   21  C17 UNL     1      23.407   0.569  53.144  1.00  0.00    -0.029 A 
HETATM   22  C18 UNL     1      23.004  -0.342  54.138  1.00  0.00     0.009 A 
HETATM   23  C19 UNL     1      21.703  -0.574  54.583  1.00  0.00     0.001 A 
HETATM   24  C20 UNL     1      20.709   0.169  53.982  1.00  0.00     0.002 A 
HETATM   25  C21 UNL     1      21.108   1.080  52.990  1.00  0.00     0.033 A 
HETATM   26  C22 UNL     1      22.411   1.306  52.549  1.00  0.00     0.068 A 
ENDROOT
BRANCH  14  27
HETATM   27  C11 UNL     1      22.105   1.473  48.222  1.00  0.00     0.400 C 
HETATM   28  O2  UNL     1      21.209   0.700  48.470  1.00  0.00    -0.429 OA
ENDBRANCH  14  27
TORSDOF 1
ENDMDL
MODEL 3
REMARK VINA RESULT:      -8.0      2.677      5.522
REMARK  1 active torsions:
REMARK  status: ('A' for Active; 'I' for Inactive)
REMARK    1  A    between atoms: C10_14  and  C11_15 
ROOT
HETATM    1  C1  UNL     1      22.099   2.953  47.448  1.00  0.00     0.019 C 
HETATM    2  C2  UNL     1      22.278   2.223  48.775  1.00  0.00     0.062 C 
HETATM    3  C3  UNL     1      23.681   2.503  49.312  1.00  0.00     0.212 C 
HETATM    4  O1  UNL     1      24.117   1.677  50.297  1.00  0.00    -0.273 OA
HETATM    5  N1  UNL     1      23.785   2.053  51.578  1.00  0.00    -0.233 N 
HETATM    6  C4  UNL     1      22.969   2.981  52.351  1.00  0.00     0.131 C 
HETATM    7  C5  UNL     1      21.858   3.511  51.772  1.00  0.00    -0.025 C 
HETATM    8  C6  UNL     1      20.831   2.809  50.919  1.00  0.00    -0.023 C 
HETATM    9  C7  UNL     1      21.284   2.968  49.658  1.00  0.00     0.069 C 
HETATM   10  N2  UNL     1      20.890   4.090  48.771  1.00  0.00    -0.159 NA
HETATM   11  N3  UNL     1      21.095   5.384  48.947  1.00  0.00    -0.193 NA
HETATM   12  C8  UNL     1      20.892   6.084  50.236  1.00  0.00     0.174 C 
HETATM   13  C9  UNL     1      22.148   5.874  51.043  1.00  0.00     0.035 C 
HETATM   14  C10 UNL     1      22.007   4.926  52.209  1.00  0.00     0.056 C 
HETATM   15  C12 UNL     1      19.651   2.111  51.492  1.00  0.00     0.048 C 
HETATM   16  C13 UNL     1      20.147   1.563  52.842  1.00  0.00     0.083 C 
HETATM   17  C14 UNL     1      21.284   0.645  52.525  1.00  0.00     0.127 C 
HETATM   18  O3  UNL     1      21.086   0.618  51.329  1.00  0.00    -0.298 OA
HETATM   19  C15 UNL     1      21.947   0.332  53.804  1.00  0.00     0.083 C 
HETATM   20  C16 UNL     1      23.166  -0.508  53.742  1.00  0.00     0.048 C 
HETATM   21  C17 UNL     1      24.338   0.062  53.050  1.00  0.00    -0.029 A 
HETATM   22  C18 UNL     1      25.439  -0.719  53.451  1.00  0.00     0.009 A 
HETATM   23  C19 UNL     1      26.767  -0.555  53.060  1.00  0.00     0.001 A 
HETATM   24  C20 UNL     1      27.026   0.482  52.189  1.00  0.00     0.002 A 
HETATM   25  C21 UNL     1      25.930   1.262  51.786  1.00  0.00     0.033 A 
HETATM   26  C22 UNL     1      24.603   1.093  52.181  1.00  0.00     0.068 A 
ENDROOT
BRANCH  14  27
HETATM   27  C11 UNL     1      23.190   5.103  53.059  1.00  0.00     0.400 C 
HETATM   28  O2  UNL     1      23.840   5.395  54.035  1.00  0.00    -0.429 OA
ENDBRANCH  14  27
TORSDOF 1
ENDMDL
MODEL 4
REMARK VINA RESULT:      -7.7      2.089      5.250
REMARK  1 active torsions:
REMARK  status: ('A' for Active; 'I' for Inactive)
REMARK    1  A    between atoms: C10_14  and  C11_15 
ROOT
HETATM    1  C1  UNL     1      21.224   7.801  50.848  1.00  0.00     0.019 C 
HETATM    2  C2  UNL     1      22.305   6.728  50.917  1.00  0.00     0.062 C 
HETATM    3  C3  UNL     1      21.650   5.375  51.187  1.00  0.00     0.212 C 
HETATM    4  O1  UNL     1      22.479   4.384  51.603  1.00  0.00    -0.273 OA
HETATM    5  N1  UNL     1      23.079   3.653  50.605  1.00  0.00    -0.233 N 
HETATM    6  C4  UNL     1      23.306   3.602  49.167  1.00  0.00     0.131 C 
HETATM    7  C5  UNL     1      23.247   4.761  48.456  1.00  0.00    -0.025 C 
HETATM    8  C6  UNL     1      23.816   6.108  48.827  1.00  0.00    -0.023 C 
HETATM    9  C7  UNL     1      22.807   6.724  49.478  1.00  0.00     0.069 C 
HETATM   10  N2  UNL     1      21.810   7.604  48.819  1.00  0.00    -0.159 NA
HETATM   11  N3  UNL     1      20.936   7.290  47.879  1.00  0.00    -0.193 NA
HETATM   12  C8  UNL     1      21.257   6.453  46.699  1.00  0.00     0.174 C 
HETATM   13  C9  UNL     1      21.145   5.018  47.147  1.00  0.00     0.035 C 
HETATM   14  C10 UNL     1      22.460   4.288  47.284  1.00  0.00     0.056 C 
HETATM   15  C12 UNL     1      25.210   6.508  48.506  1.00  0.00     0.048 C 
HETATM   16  C13 UNL     1      26.015   5.198  48.589  1.00  0.00     0.083 C 
HETATM   17  C14 UNL     1      25.847   4.695  49.987  1.00  0.00     0.127 C 
HETATM   18  O3  UNL     1      25.345   5.710  50.420  1.00  0.00    -0.298 OA
HETATM   19  C15 UNL     1      26.369   3.316  50.009  1.00  0.00     0.083 C 
HETATM   20  C16 UNL     1      26.240   2.567  51.281  1.00  0.00     0.048 C 
HETATM   21  C17 UNL     1      24.872   2.265  51.745  1.00  0.00    -0.029 A 
HETATM   22  C18 UNL     1      25.009   1.253  52.714  1.00  0.00     0.009 A 
HETATM   23  C19 UNL     1      23.984   0.638  53.431  1.00  0.00     0.001 A 
HETATM   24  C20 UNL     1      22.702   1.068  53.159  1.00  0.00     0.002 A 
HETATM   25  C21 UNL     1      22.562   2.078  52.193  1.00  0.00     0.033 A 
HETATM   26  C22 UNL     1      23.592   2.689  51.479  1.00  0.00     0.068 A 
ENDROOT
BRANCH  14  27
HETATM   27  C11 UNL     1      22.153   2.857  47.387  1.00  0.00     0.400 C 
HETATM   28  O2  UNL     1      21.492   1.856  47.537  1.00  0.00    -0.429 OA
ENDBRANCH  14  27
TORSDOF 1
ENDMDL
MODEL 5
REMARK VINA RESULT:      -7.6      2.735      5.292
REMARK  1 active torsions:
REMARK  status: ('A' for Active; 'I' for Inactive)
REMARK    1  A    between atoms: C10_14  and  C11_15 
ROOT
HETATM    1  C1  UNL     1      17.320   3.728  51.526  1.00  0.00     0.019 C 
HETATM    2  C2  UNL     1      18.802   3.575  51.850  1.00  0.00     0.062 C 
HETATM    3  C3  UNL     1      19.220   2.128  51.600  1.00  0.00     0.212 C 
HETATM    4  O1  UNL     1      20.403   1.747  52.147  1.00  0.00    -0.273 OA
HETATM    5  N1  UNL     1      21.517   1.977  51.374  1.00  0.00    -0.233 N 
HETATM    6  C4  UNL     1      21.986   2.645  50.168  1.00  0.00     0.131 C 
HETATM    7  C5  UNL     1      21.285   3.713  49.698  1.00  0.00    -0.025 C 
HETATM    8  C6  UNL     1      20.687   4.850  50.488  1.00  0.00    -0.023 C 
HETATM    9  C7  UNL     1      19.432   4.438  50.763  1.00  0.00     0.069 C 
HETATM   10  N2  UNL     1      18.255   4.738  49.911  1.00  0.00    -0.159 NA
HETATM   11  N3  UNL     1      18.038   4.379  48.658  1.00  0.00    -0.193 NA
HETATM   12  C8  UNL     1      19.063   4.443  47.591  1.00  0.00     0.174 C 
HETATM   13  C9  UNL     1      19.886   3.185  47.708  1.00  0.00     0.035 C 
HETATM   14  C10 UNL     1      21.282   3.383  48.247  1.00  0.00     0.056 C 
HETATM   15  C12 UNL     1      21.451   6.076  50.836  1.00  0.00     0.048 C 
HETATM   16  C13 UNL     1      22.899   5.587  51.020  1.00  0.00     0.083 C 
HETATM   17  C14 UNL     1      22.859   4.578  52.123  1.00  0.00     0.127 C 
HETATM   18  O3  UNL     1      21.727   4.831  52.475  1.00  0.00    -0.298 OA
HETATM   19  C15 UNL     1      24.168   3.900  52.126  1.00  0.00     0.083 C 
HETATM   20  C16 UNL     1      24.349   2.790  53.091  1.00  0.00     0.048 C 
HETATM   21  C17 UNL     1      23.509   1.591  52.898  1.00  0.00    -0.029 A 
HETATM   22  C18 UNL     1      24.115   0.571  53.655  1.00  0.00     0.009 A 
HETATM   23  C19 UNL     1      23.682  -0.749  53.778  1.00  0.00     0.001 A 
HETATM   24  C20 UNL     1      22.541  -1.086  53.083  1.00  0.00     0.002 A 
HETATM   25  C21 UNL     1      21.933  -0.070  52.327  1.00  0.00     0.033 A 
HETATM   26  C22 UNL     1      22.372   1.248  52.208  1.00  0.00     0.068 A 
ENDROOT
BRANCH  14  27
HETATM   27  C11 UNL     1      22.031   2.151  47.975  1.00  0.00     0.400 C 
HETATM   28  O2  UNL     1      22.321   1.105  47.442  1.00  0.00    -0.429 OA
ENDBRANCH  14  27
TORSDOF 1
ENDMDL
MODEL 6
REMARK VINA RESULT:      -7.6      6.010      9.190
REMARK  1 active torsions:
REMARK  status: ('A' for Active; 'I' for Inactive)
REMARK    1  A    between atoms: C10_14  and  C11_15 
ROOT
HETATM    1  C1  UNL     1      27.202   6.048  48.695  1.00  0.00     0.019 C 
HETATM    2  C2  UNL     1      28.720   6.183  48.738  1.00  0.00     0.062 C 
HETATM    3  C3  UNL     1      29.334   5.241  47.705  1.00  0.00     0.212 C 
HETATM    4  O1  UNL     1      30.662   4.993  47.839  1.00  0.00    -0.273 OA
HETATM    5  N1  UNL     1      31.500   5.883  47.210  1.00  0.00    -0.233 N 
HETATM    6  C4  UNL     1      31.538   7.165  46.517  1.00  0.00     0.131 C 
HETATM    7  C5  UNL     1      30.557   8.074  46.772  1.00  0.00    -0.025 C 
HETATM    8  C6  UNL     1      29.957   8.443  48.106  1.00  0.00    -0.023 C 
HETATM    9  C7  UNL     1      28.903   7.610  48.235  1.00  0.00     0.069 C 
HETATM   10  N2  UNL     1      27.524   7.945  47.802  1.00  0.00    -0.159 NA
HETATM   11  N3  UNL     1      27.091   8.212  46.582  1.00  0.00    -0.193 NA
HETATM   12  C8  UNL     1      27.807   9.088  45.625  1.00  0.00     0.174 C 
HETATM   13  C9  UNL     1      28.856   8.233  44.961  1.00  0.00     0.035 C 
HETATM   14  C10 UNL     1      30.277   8.525  45.381  1.00  0.00     0.056 C 
HETATM   15  C12 UNL     1      30.536   9.492  48.985  1.00  0.00     0.048 C 
HETATM   16  C13 UNL     1      32.052   9.412  48.732  1.00  0.00     0.083 C 
HETATM   17  C14 UNL     1      32.464   8.024  49.111  1.00  0.00     0.127 C 
HETATM   18  O3  UNL     1      31.418   7.734  49.653  1.00  0.00    -0.298 OA
HETATM   19  C15 UNL     1      33.841   7.840  48.618  1.00  0.00     0.083 C 
HETATM   20  C16 UNL     1      34.449   6.502  48.805  1.00  0.00     0.048 C 
HETATM   21  C17 UNL     1      33.830   5.377  48.078  1.00  0.00    -0.029 A 
HETATM   22  C18 UNL     1      34.778   4.337  48.099  1.00  0.00     0.009 A 
HETATM   23  C19 UNL     1      34.643   3.071  47.530  1.00  0.00     0.001 A 
HETATM   24  C20 UNL     1      33.455   2.815  46.878  1.00  0.00     0.002 A 
HETATM   25  C21 UNL     1      32.507   3.851  46.857  1.00  0.00     0.033 A 
HETATM   26  C22 UNL     1      32.648   5.115  47.427  1.00  0.00     0.068 A 
ENDROOT
BRANCH  14  27
HETATM   27  C11 UNL     1      31.160   7.864  44.415  1.00  0.00     0.400 C 
HETATM   28  O2  UNL     1      31.819   7.715  43.412  1.00  0.00    -0.429 OA
ENDBRANCH  14  27
TORSDOF 1
ENDMDL
MODEL 7
REMARK VINA RESULT:      -7.4      5.269      9.598
REMARK  1 active torsions:
REMARK  status: ('A' for Active; 'I' for Inactive)
REMARK    1  A    between atoms: C10_14  and  C11_15 
ROOT
HETATM    1  C1  UNL     1      28.620  12.491  49.143  1.00  0.00     0.019 C 
HETATM    2  C2  UNL     1      28.900  11.011  48.904  1.00  0.00     0.062 C 
HETATM    3  C3  UNL     1      27.584  10.296  48.608  1.00  0.00     0.212 C 
HETATM    4  O1  UNL     1      27.607   8.942  48.699  1.00  0.00    -0.273 OA
HETATM    5  N1  UNL     1      27.979   8.275  47.555  1.00  0.00    -0.233 N 
HETATM    6  C4  UNL     1      28.535   8.460  46.221  1.00  0.00     0.131 C 
HETATM    7  C5  UNL     1      29.299   9.560  45.980  1.00  0.00    -0.025 C 
HETATM    8  C6  UNL     1      30.365  10.162  46.862  1.00  0.00    -0.023 C 
HETATM    9  C7  UNL     1      29.701  11.070  47.608  1.00  0.00     0.069 C 
HETATM   10  N2  UNL     1      29.552  12.498  47.237  1.00  0.00    -0.159 NA
HETATM   11  N3  UNL     1      28.947  13.011  46.180  1.00  0.00    -0.193 NA
HETATM   12  C8  UNL     1      29.090  12.474  44.806  1.00  0.00     0.174 C 
HETATM   13  C9  UNL     1      28.115  11.329  44.688  1.00  0.00     0.035 C 
HETATM   14  C10 UNL     1      28.744   9.957  44.657  1.00  0.00     0.056 C 
HETATM   15  C12 UNL     1      31.783   9.722  46.824  1.00  0.00     0.048 C 
HETATM   16  C13 UNL     1      31.711   8.221  46.488  1.00  0.00     0.083 C 
HETATM   17  C14 UNL     1      30.921   7.587  47.588  1.00  0.00     0.127 C 
HETATM   18  O3  UNL     1      30.935   8.554  48.319  1.00  0.00    -0.298 OA
HETATM   19  C15 UNL     1      30.603   6.216  47.147  1.00  0.00     0.083 C 
HETATM   20  C16 UNL     1      29.749   5.402  48.043  1.00  0.00     0.048 C 
HETATM   21  C17 UNL     1      28.363   5.866  48.252  1.00  0.00    -0.029 A 
HETATM   22  C18 UNL     1      27.668   4.768  48.792  1.00  0.00     0.009 A 
HETATM   23  C19 UNL     1      26.320   4.725  49.150  1.00  0.00     0.001 A 
HETATM   24  C20 UNL     1      25.597   5.882  48.950  1.00  0.00     0.002 A 
HETATM   25  C21 UNL     1      26.289   6.979  48.412  1.00  0.00     0.033 A 
HETATM   26  C22 UNL     1      27.636   7.015  48.056  1.00  0.00     0.068 A 
ENDROOT
BRANCH  14  27
HETATM   27  C11 UNL     1      27.713   9.017  44.205  1.00  0.00     0.400 C 
HETATM   28  O2  UNL     1      26.806   8.578  43.536  1.00  0.00    -0.429 OA
ENDBRANCH  14  27
TORSDOF 1
ENDMDL
MODEL 8
REMARK VINA RESULT:      -7.4      1.948      2.383
REMARK  1 active torsions:
REMARK  status: ('A' for Active; 'I' for Inactive)
REMARK    1  A    between atoms: C10_14  and  C11_15 
ROOT
HETATM    1  C1  UNL     1      22.401   3.458  53.028  1.00  0.00     0.019 C 
HETATM    2  C2  UNL     1      23.033   4.533  52.151  1.00  0.00     0.062 C 
HETATM    3  C3  UNL     1      23.968   3.867  51.143  1.00  0.00     0.212 C 
HETATM    4  O1  UNL     1      24.851   4.687  50.517  1.00  0.00    -0.273 OA
HETATM    5  N1  UNL     1      24.392   5.290  49.370  1.00  0.00    -0.233 N 
HETATM    6  C4  UNL     1      23.197   5.528  48.570  1.00  0.00     0.131 C 
HETATM    7  C5  UNL     1      21.982   5.481  49.182  1.00  0.00    -0.025 C 
HETATM    8  C6  UNL     1      21.596   6.055  50.523  1.00  0.00    -0.023 C 
HETATM    9  C7  UNL     1      21.816   5.045  51.390  1.00  0.00     0.069 C 
HETATM   10  N2  UNL     1      20.784   4.059  51.794  1.00  0.00    -0.159 NA
HETATM   11  N3  UNL     1      20.141   3.190  51.033  1.00  0.00    -0.193 NA
HETATM   12  C8  UNL     1      19.580   3.514  49.701  1.00  0.00     0.174 C 
HETATM   13  C9  UNL     1      20.714   3.390  48.715  1.00  0.00     0.035 C 
HETATM   14  C10 UNL     1      21.227   4.699  48.165  1.00  0.00     0.056 C 
HETATM   15  C12 UNL     1      21.126   7.454  50.693  1.00  0.00     0.048 C 
HETATM   16  C13 UNL     1      21.892   8.250  49.621  1.00  0.00     0.083 C 
HETATM   17  C14 UNL     1      23.345   8.069  49.928  1.00  0.00     0.127 C 
HETATM   18  O3  UNL     1      23.174   7.569  51.020  1.00  0.00    -0.298 OA
HETATM   19  C15 UNL     1      24.093   8.582  48.766  1.00  0.00     0.083 C 
HETATM   20  C16 UNL     1      25.567   8.440  48.798  1.00  0.00     0.048 C 
HETATM   21  C17 UNL     1      26.107   7.066  48.786  1.00  0.00    -0.029 A 
HETATM   22  C18 UNL     1      27.465   7.190  48.434  1.00  0.00     0.009 A 
HETATM   23  C19 UNL     1      28.389   6.156  48.289  1.00  0.00     0.001 A 
HETATM   24  C20 UNL     1      27.919   4.879  48.513  1.00  0.00     0.002 A 
HETATM   25  C21 UNL     1      26.566   4.752  48.865  1.00  0.00     0.033 A 
HETATM   26  C22 UNL     1      25.646   5.791  49.008  1.00  0.00     0.068 A 
ENDROOT
BRANCH  14  27
HETATM   27  C11 UNL     1      22.063   4.384  47.002  1.00  0.00     0.400 C 
HETATM   28  O2  UNL     1      22.340   4.087  45.863  1.00  0.00    -0.429 OA
ENDBRANCH  14  27
TORSDOF 1
ENDMDL
MODEL 9
REMARK VINA RESULT:      -7.3      8.478     10.721
REMARK  1 active torsions:
REMARK  status: ('A' for Active; 'I' for Inactive)
REMARK    1  A    between atoms: C10_14  and  C11_15 
ROOT
HETATM    1  C1  UNL     1      35.945   6.222  49.094  1.00  0.00     0.019 C 
HETATM    2  C2  UNL     1      34.662   6.878  48.594  1.00  0.00     0.062 C 
HETATM    3  C3  UNL     1      34.968   7.669  47.324  1.00  0.00     0.212 C 
HETATM    4  O1  UNL     1      34.028   8.569  46.942  1.00  0.00    -0.273 OA
HETATM    5  N1  UNL     1      33.026   8.079  46.138  1.00  0.00    -0.233 N 
HETATM    6  C4  UNL     1      32.450   6.851  45.604  1.00  0.00     0.131 C 
HETATM    7  C5  UNL     1      32.648   5.688  46.282  1.00  0.00    -0.025 C 
HETATM    8  C6  UNL     1      32.577   5.459  47.772  1.00  0.00    -0.023 C 
HETATM    9  C7  UNL     1      33.843   5.655  48.197  1.00  0.00     0.069 C 
HETATM   10  N2  UNL     1      34.850   4.574  48.329  1.00  0.00    -0.159 NA
HETATM   11  N3  UNL     1      35.348   3.799  47.381  1.00  0.00    -0.193 NA
HETATM   12  C8  UNL     1      34.534   3.168  46.317  1.00  0.00     0.174 C 
HETATM   13  C9  UNL     1      34.355   4.207  45.239  1.00  0.00     0.035 C 
HETATM   14  C10 UNL     1      32.966   4.790  45.139  1.00  0.00     0.056 C 
HETATM   15  C12 UNL     1      31.310   5.130  48.475  1.00  0.00     0.048 C 
HETATM   16  C13 UNL     1      30.224   5.879  47.682  1.00  0.00     0.083 C 
HETATM   17  C14 UNL     1      30.584   7.329  47.751  1.00  0.00     0.127 C 
HETATM   18  O3  UNL     1      31.434   7.200  48.606  1.00  0.00    -0.298 OA
HETATM   19  C15 UNL     1      29.728   8.027  46.776  1.00  0.00     0.083 C 
HETATM   20  C16 UNL     1      29.953   9.481  46.601  1.00  0.00     0.048 C 
HETATM   21  C17 UNL     1      31.257   9.895  46.046  1.00  0.00    -0.029 A 
HETATM   22  C18 UNL     1      31.089  11.226  45.622  1.00  0.00     0.009 A 
HETATM   23  C19 UNL     1      32.050  12.041  45.024  1.00  0.00     0.001 A 
HETATM   24  C20 UNL     1      33.294  11.479  44.828  1.00  0.00     0.002 A 
HETATM   25  C21 UNL     1      33.464  10.150  45.251  1.00  0.00     0.033 A 
HETATM   26  C22 UNL     1      32.499   9.341  45.849  1.00  0.00     0.068 A 
ENDROOT
BRANCH  14  27
HETATM   27  C11 UNL     1      32.885   5.502  43.859  1.00  0.00     0.400 C 
HETATM   28  O2  UNL     1      32.913   5.671  42.662  1.00  0.00    -0.429 OA
ENDBRANCH  14  27
TORSDOF 1
ENDMDL
