MODEL 1
REMARK VINA RESULT:      -7.3      0.000      0.000
REMARK  2 active torsions:
REMARK  status: ('A' for Active; 'I' for Inactive)
REMARK    1  A    between atoms: O1_2  and  C2_3 
REMARK    2  A    between atoms: C8_12  and  N3_13 
ROOT
HETATM    1  C2  UNL     1      22.509   2.018  49.481  1.00  0.00     0.090 A 
HETATM    2  C3  UNL     1      23.130   2.677  50.648  1.00  0.00     0.070 A 
HETATM    3  C4  UNL     1      22.283   1.699  50.826  1.00  0.00     0.029 A 
HETATM    4  C5  UNL     1      22.267   3.296  51.101  1.00  0.00     0.080 A 
HETATM    5  O2  UNL     1      23.439   3.994  50.761  1.00  0.00     0.000 OA
HETATM    6  C6  UNL     1      23.268   5.295  50.371  1.00  0.00     0.137 C 
HETATM    7  N1  UNL     1      23.317   5.701  51.622  1.00  0.00    -0.253 NA
HETATM    8  C7  UNL     1      23.502   4.616  52.545  1.00  0.00     0.230 C 
HETATM    9  N2  UNL     1      23.525   3.394  52.871  1.00  0.00    -0.240 NA
HETATM   10  C8  UNL     1      23.262   2.207  52.097  1.00  0.00     0.156 A 
HETATM   11  N4  UNL     1      22.284   1.495  52.796  1.00  0.00    -0.282 NA
HETATM   12  C14 UNL     1      21.333   0.499  52.313  1.00  0.00     0.102 C 
HETATM   13  C15 UNL     1      21.335   0.614  50.783  1.00  0.00     0.001 A 
HETATM   14  C16 UNL     1      21.474   0.849  49.417  1.00  0.00     0.041 A 
HETATM   15  H13 UNL     1      22.758   0.979  53.625  1.00  0.00     0.125 HD
ENDROOT
BRANCH  10  16
HETATM   16  N3  UNL     1      24.541   1.452  52.209  1.00  0.00    -0.317 N 
HETATM   17  C9  UNL     1      24.503   0.311  53.108  1.00  0.00     0.144 A 
HETATM   18  S1  UNL     1      25.732  -0.736  53.468  1.00  0.00    -0.096 SA
HETATM   19  C10 UNL     1      27.130  -0.351  52.653  1.00  0.00     0.053 A 
HETATM   20  C11 UNL     1      26.850   0.828  51.842  1.00  0.00     0.032 A 
HETATM   21  C12 UNL     1      25.804   1.597  51.630  1.00  0.00     0.012 A 
HETATM   22  C13 UNL     1      25.877   2.754  50.708  1.00  0.00     0.068 C 
ENDBRANCH  10  16
BRANCH   1  23
HETATM   23  O1  UNL     1      22.994   2.591  48.284  1.00  0.00    -0.383 OA
HETATM   24  C1  UNL     1      22.100   2.884  47.236  1.00  0.00     0.202 C 
ENDBRANCH   1  23
TORSDOF 2
ENDMDL
MODEL 2
REMARK VINA RESULT:      -6.8      9.838     11.897
REMARK  2 active torsions:
REMARK  status: ('A' for Active; 'I' for Inactive)
REMARK    1  A    between atoms: O1_2  and  C2_3 
REMARK    2  A    between atoms: C8_12  and  N3_13 
ROOT
HETATM    1  C2  UNL     1      33.208   3.984  47.324  1.00  0.00     0.090 A 
HETATM    2  C3  UNL     1      32.616   5.335  47.383  1.00  0.00     0.070 A 
HETATM    3  C4  UNL     1      33.792   5.116  47.905  1.00  0.00     0.029 A 
HETATM    4  C5  UNL     1      32.320   5.453  48.493  1.00  0.00     0.080 A 
HETATM    5  O2  UNL     1      31.300   5.633  47.542  1.00  0.00     0.000 OA
HETATM    6  C6  UNL     1      30.039   5.282  47.943  1.00  0.00     0.137 C 
HETATM    7  N1  UNL     1      29.847   6.475  48.464  1.00  0.00    -0.253 NA
HETATM    8  C7  UNL     1      30.987   7.335  48.303  1.00  0.00     0.230 C 
HETATM    9  N2  UNL     1      32.200   7.575  48.035  1.00  0.00    -0.240 NA
HETATM   10  C8  UNL     1      33.269   6.693  47.639  1.00  0.00     0.156 A 
HETATM   11  N4  UNL     1      34.312   6.918  48.542  1.00  0.00    -0.282 NA
HETATM   12  C14 UNL     1      35.423   6.050  48.916  1.00  0.00     0.102 C 
HETATM   13  C15 UNL     1      35.060   4.648  48.406  1.00  0.00     0.001 A 
HETATM   14  C16 UNL     1      34.575   3.459  47.869  1.00  0.00     0.041 A 
HETATM   15  H13 UNL     1      34.820   7.836  48.262  1.00  0.00     0.125 HD
ENDROOT
BRANCH  10  16
HETATM   16  N3  UNL     1      33.682   7.249  46.321  1.00  0.00    -0.317 N 
HETATM   17  C9  UNL     1      33.419   6.385  45.181  1.00  0.00     0.144 A 
HETATM   18  S1  UNL     1      33.748   6.684  43.588  1.00  0.00    -0.096 SA
HETATM   19  C10 UNL     1      34.459   8.172  43.371  1.00  0.00     0.053 A 
HETATM   20  C11 UNL     1      34.586   8.788  44.686  1.00  0.00     0.032 A 
HETATM   21  C12 UNL     1      34.281   8.446  45.920  1.00  0.00     0.012 A 
HETATM   22  C13 UNL     1      34.564   9.350  47.059  1.00  0.00     0.068 C 
ENDBRANCH  10  16
BRANCH   1  23
HETATM   23  O1  UNL     1      32.341   3.102  46.640  1.00  0.00    -0.383 OA
HETATM   24  C1  UNL     1      32.470   1.712  46.825  1.00  0.00     0.202 C 
ENDBRANCH   1  23
TORSDOF 2
ENDMDL
MODEL 3
REMARK VINA RESULT:      -6.5     10.416     12.353
REMARK  2 active torsions:
REMARK  status: ('A' for Active; 'I' for Inactive)
REMARK    1  A    between atoms: O1_2  and  C2_3 
REMARK    2  A    between atoms: C8_12  and  N3_13 
ROOT
HETATM    1  C2  UNL     1      33.070   4.639  46.708  1.00  0.00     0.090 A 
HETATM    2  C3  UNL     1      33.676   5.825  47.346  1.00  0.00     0.070 A 
HETATM    3  C4  UNL     1      33.527   5.788  46.050  1.00  0.00     0.029 A 
HETATM    4  C5  UNL     1      34.792   5.746  47.061  1.00  0.00     0.080 A 
HETATM    5  O2  UNL     1      34.491   5.828  48.433  1.00  0.00     0.000 OA
HETATM    6  C6  UNL     1      35.356   5.183  49.275  1.00  0.00     0.137 C 
HETATM    7  N1  UNL     1      36.138   6.241  49.321  1.00  0.00    -0.253 NA
HETATM    8  C7  UNL     1      35.640   7.327  48.523  1.00  0.00     0.230 C 
HETATM    9  N2  UNL     1      34.889   7.838  47.643  1.00  0.00    -0.240 NA
HETATM   10  C8  UNL     1      33.867   7.246  46.817  1.00  0.00     0.156 A 
HETATM   11  N4  UNL     1      34.198   7.567  45.498  1.00  0.00    -0.282 NA
HETATM   12  C14 UNL     1      33.819   6.904  44.255  1.00  0.00     0.102 C 
HETATM   13  C15 UNL     1      33.266   5.530  44.656  1.00  0.00     0.001 A 
HETATM   14  C16 UNL     1      32.789   4.340  45.200  1.00  0.00     0.041 A 
HETATM   15  H13 UNL     1      33.906   8.596  45.309  1.00  0.00     0.125 HD
ENDROOT
BRANCH  10  16
HETATM   16  N3  UNL     1      32.654   8.029  47.185  1.00  0.00    -0.317 N 
HETATM   17  C9  UNL     1      31.681   7.310  47.990  1.00  0.00     0.144 A 
HETATM   18  S1  UNL     1      30.235   7.869  48.568  1.00  0.00    -0.096 SA
HETATM   19  C10 UNL     1      29.959   9.447  48.121  1.00  0.00     0.053 A 
HETATM   20  C11 UNL     1      31.103   9.882  47.330  1.00  0.00     0.032 A 
HETATM   21  C12 UNL     1      32.228   9.334  46.923  1.00  0.00     0.012 A 
HETATM   22  C13 UNL     1      33.199  10.095  46.102  1.00  0.00     0.068 C 
ENDBRANCH  10  16
BRANCH   1  23
HETATM   23  O1  UNL     1      32.710   3.689  47.690  1.00  0.00    -0.383 OA
HETATM   24  C1  UNL     1      32.910   2.317  47.441  1.00  0.00     0.202 C 
ENDBRANCH   1  23
TORSDOF 2
ENDMDL
MODEL 4
REMARK VINA RESULT:      -6.4      2.763      4.896
REMARK  2 active torsions:
REMARK  status: ('A' for Active; 'I' for Inactive)
REMARK    1  A    between atoms: O1_2  and  C2_3 
REMARK    2  A    between atoms: C8_12  and  N3_13 
ROOT
HETATM    1  C2  UNL     1      21.769   1.329  51.903  1.00  0.00     0.090 A 
HETATM    2  C3  UNL     1      22.864   2.236  51.504  1.00  0.00     0.070 A 
HETATM    3  C4  UNL     1      22.145   1.641  50.591  1.00  0.00     0.029 A 
HETATM    4  C5  UNL     1      23.678   1.521  51.104  1.00  0.00     0.080 A 
HETATM    5  O2  UNL     1      24.053   2.396  52.140  1.00  0.00     0.000 OA
HETATM    6  C6  UNL     1      25.019   1.933  52.992  1.00  0.00     0.137 C 
HETATM    7  N1  UNL     1      25.968   2.373  52.194  1.00  0.00    -0.253 NA
HETATM    8  C7  UNL     1      25.444   3.013  51.019  1.00  0.00     0.230 C 
HETATM    9  N2  UNL     1      24.527   3.305  50.198  1.00  0.00    -0.240 NA
HETATM   10  C8  UNL     1      23.134   2.936  50.172  1.00  0.00     0.156 A 
HETATM   11  N4  UNL     1      22.905   2.372  48.914  1.00  0.00    -0.282 NA
HETATM   12  C14 UNL     1      21.862   1.447  48.484  1.00  0.00     0.102 C 
HETATM   13  C15 UNL     1      21.233   0.887  49.768  1.00  0.00     0.001 A 
HETATM   14  C16 UNL     1      20.780   0.497  51.026  1.00  0.00     0.041 A 
HETATM   15  H13 UNL     1      22.818   3.173  48.186  1.00  0.00     0.125 HD
ENDROOT
BRANCH  10  16
HETATM   16  N3  UNL     1      22.445   4.256  50.210  1.00  0.00    -0.317 N 
HETATM   17  C9  UNL     1      21.908   4.705  48.936  1.00  0.00     0.144 A 
HETATM   18  S1  UNL     1      21.093   6.110  48.620  1.00  0.00    -0.096 SA
HETATM   19  C10 UNL     1      20.918   7.044  49.984  1.00  0.00     0.053 A 
HETATM   20  C11 UNL     1      21.553   6.329  51.085  1.00  0.00     0.032 A 
HETATM   21  C12 UNL     1      22.190   5.186  51.221  1.00  0.00     0.012 A 
HETATM   22  C13 UNL     1      22.725   4.758  52.535  1.00  0.00     0.068 C 
ENDBRANCH  10  16
BRANCH   1  23
HETATM   23  O1  UNL     1      21.670   1.277  53.312  1.00  0.00    -0.383 OA
HETATM   24  C1  UNL     1      21.083   0.156  53.931  1.00  0.00     0.202 C 
ENDBRANCH   1  23
TORSDOF 2
ENDMDL
MODEL 5
REMARK VINA RESULT:      -6.4      3.256      5.957
REMARK  2 active torsions:
REMARK  status: ('A' for Active; 'I' for Inactive)
REMARK    1  A    between atoms: O1_2  and  C2_3 
REMARK    2  A    between atoms: C8_12  and  N3_13 
ROOT
HETATM    1  C2  UNL     1      25.754   4.016  49.705  1.00  0.00     0.090 A 
HETATM    2  C3  UNL     1      24.378   4.520  49.885  1.00  0.00     0.070 A 
HETATM    3  C4  UNL     1      25.263   5.250  49.262  1.00  0.00     0.029 A 
HETATM    4  C5  UNL     1      24.493   5.345  50.685  1.00  0.00     0.080 A 
HETATM    5  O2  UNL     1      23.578   4.314  50.963  1.00  0.00     0.000 OA
HETATM    6  C6  UNL     1      23.418   3.995  52.284  1.00  0.00     0.137 C 
HETATM    7  N1  UNL     1      22.502   4.930  52.424  1.00  0.00    -0.253 NA
HETATM    8  C7  UNL     1      22.258   5.646  51.203  1.00  0.00     0.230 C 
HETATM    9  N2  UNL     1      22.530   5.996  50.017  1.00  0.00    -0.240 NA
HETATM   10  C8  UNL     1      23.628   5.636  49.157  1.00  0.00     0.156 A 
HETATM   11  N4  UNL     1      24.203   6.838  48.735  1.00  0.00    -0.282 NA
HETATM   12  C14 UNL     1      25.551   7.105  48.246  1.00  0.00     0.102 C 
HETATM   13  C15 UNL     1      26.390   5.874  48.615  1.00  0.00     0.001 A 
HETATM   14  C16 UNL     1      26.988   4.682  49.016  1.00  0.00     0.041 A 
HETATM   15  H13 UNL     1      23.584   7.260  47.949  1.00  0.00     0.125 HD
ENDROOT
BRANCH  10  16
HETATM   16  N3  UNL     1      22.941   5.026  47.986  1.00  0.00    -0.317 N 
HETATM   17  C9  UNL     1      22.726   5.923  46.863  1.00  0.00     0.144 A 
HETATM   18  S1  UNL     1      21.998   5.581  45.418  1.00  0.00    -0.096 SA
HETATM   19  C10 UNL     1      21.491   3.999  45.340  1.00  0.00     0.053 A 
HETATM   20  C11 UNL     1      21.847   3.366  46.605  1.00  0.00     0.032 A 
HETATM   21  C12 UNL     1      22.441   3.749  47.714  1.00  0.00     0.012 A 
HETATM   22  C13 UNL     1      22.644   2.808  48.841  1.00  0.00     0.068 C 
ENDBRANCH  10  16
BRANCH   1  23
HETATM   23  O1  UNL     1      25.876   2.723  50.262  1.00  0.00    -0.383 OA
HETATM   24  C1  UNL     1      26.770   2.502  51.327  1.00  0.00     0.202 C 
ENDBRANCH   1  23
TORSDOF 2
ENDMDL
MODEL 6
REMARK VINA RESULT:      -6.3      9.827     11.394
REMARK  2 active torsions:
REMARK  status: ('A' for Active; 'I' for Inactive)
REMARK    1  A    between atoms: O1_2  and  C2_3 
REMARK    2  A    between atoms: C8_12  and  N3_13 
ROOT
HETATM    1  C2  UNL     1      30.653   7.464  46.669  1.00  0.00     0.090 A 
HETATM    2  C3  UNL     1      32.093   7.754  46.821  1.00  0.00     0.070 A 
HETATM    3  C4  UNL     1      31.468   7.065  47.735  1.00  0.00     0.029 A 
HETATM    4  C5  UNL     1      32.123   8.545  47.662  1.00  0.00     0.080 A 
HETATM    5  O2  UNL     1      32.731   8.892  46.442  1.00  0.00     0.000 OA
HETATM    6  C6  UNL     1      32.703  10.221  46.117  1.00  0.00     0.137 C 
HETATM    7  N1  UNL     1      33.808  10.436  46.799  1.00  0.00    -0.253 NA
HETATM    8  C7  UNL     1      34.316   9.240  47.412  1.00  0.00     0.230 C 
HETATM    9  N2  UNL     1      34.232   8.038  47.798  1.00  0.00    -0.240 NA
HETATM   10  C8  UNL     1      33.150   7.092  47.705  1.00  0.00     0.156 A 
HETATM   11  N4  UNL     1      32.925   6.629  49.004  1.00  0.00    -0.282 NA
HETATM   12  C14 UNL     1      31.726   6.035  49.587  1.00  0.00     0.102 C 
HETATM   13  C15 UNL     1      30.584   6.331  48.606  1.00  0.00     0.001 A 
HETATM   14  C16 UNL     1      29.680   6.680  47.606  1.00  0.00     0.041 A 
HETATM   15  H13 UNL     1      33.688   5.896  49.247  1.00  0.00     0.125 HD
ENDROOT
BRANCH  10  16
HETATM   16  N3  UNL     1      33.754   5.978  46.924  1.00  0.00    -0.317 N 
HETATM   17  C9  UNL     1      33.386   5.943  45.518  1.00  0.00     0.144 A 
HETATM   18  S1  UNL     1      33.869   4.852  44.372  1.00  0.00    -0.096 SA
HETATM   19  C10 UNL     1      34.894   3.704  45.003  1.00  0.00     0.053 A 
HETATM   20  C11 UNL     1      35.067   4.008  46.419  1.00  0.00     0.032 A 
HETATM   21  C12 UNL     1      34.619   4.928  47.245  1.00  0.00     0.012 A 
HETATM   22  C13 UNL     1      35.014   4.934  48.673  1.00  0.00     0.068 C 
ENDBRANCH  10  16
BRANCH   1  23
HETATM   23  O1  UNL     1      30.173   8.006  45.455  1.00  0.00    -0.383 OA
HETATM   24  C1  UNL     1      28.795   8.247  45.294  1.00  0.00     0.202 C 
ENDBRANCH   1  23
TORSDOF 2
ENDMDL
MODEL 7
REMARK VINA RESULT:      -6.2      2.744      5.148
REMARK  2 active torsions:
REMARK  status: ('A' for Active; 'I' for Inactive)
REMARK    1  A    between atoms: O1_2  and  C2_3 
REMARK    2  A    between atoms: C8_12  and  N3_13 
ROOT
HETATM    1  C2  UNL     1      23.928   1.415  52.518  1.00  0.00     0.090 A 
HETATM    2  C3  UNL     1      22.512   1.552  52.121  1.00  0.00     0.070 A 
HETATM    3  C4  UNL     1      23.195   2.607  52.471  1.00  0.00     0.029 A 
HETATM    4  C5  UNL     1      21.970   1.767  53.117  1.00  0.00     0.080 A 
HETATM    5  O2  UNL     1      21.514   0.665  52.371  1.00  0.00     0.000 OA
HETATM    6  C6  UNL     1      21.000  -0.376  53.095  1.00  0.00     0.137 C 
HETATM    7  N1  UNL     1      19.810   0.187  53.106  1.00  0.00    -0.253 NA
HETATM    8  C7  UNL     1      19.791   1.443  52.408  1.00  0.00     0.230 C 
HETATM    9  N2  UNL     1      20.333   2.444  51.857  1.00  0.00    -0.240 NA
HETATM   10  C8  UNL     1      21.722   2.784  51.677  1.00  0.00     0.156 A 
HETATM   11  N4  UNL     1      21.881   4.066  52.209  1.00  0.00    -0.282 NA
HETATM   12  C14 UNL     1      23.084   4.726  52.706  1.00  0.00     0.102 C 
HETATM   13  C15 UNL     1      24.132   3.620  52.889  1.00  0.00     0.001 A 
HETATM   14  C16 UNL     1      24.953   2.499  52.982  1.00  0.00     0.041 A 
HETATM   15  H13 UNL     1      21.501   4.787  51.493  1.00  0.00     0.125 HD
ENDROOT
BRANCH  10  16
HETATM   16  N3  UNL     1      21.846   2.888  50.197  1.00  0.00    -0.317 N 
HETATM   17  C9  UNL     1      22.113   4.225  49.696  1.00  0.00     0.144 A 
HETATM   18  S1  UNL     1      22.304   4.697  48.122  1.00  0.00    -0.096 SA
HETATM   19  C10 UNL     1      22.158   3.417  47.070  1.00  0.00     0.053 A 
HETATM   20  C11 UNL     1      21.896   2.226  47.869  1.00  0.00     0.032 A 
HETATM   21  C12 UNL     1      21.761   1.964  49.151  1.00  0.00     0.012 A 
HETATM   22  C13 UNL     1      21.488   0.588  49.629  1.00  0.00     0.068 C 
ENDBRANCH  10  16
BRANCH   1  23
HETATM   23  O1  UNL     1      24.332   0.064  52.421  1.00  0.00    -0.383 OA
HETATM   24  C1  UNL     1      25.116  -0.506  53.442  1.00  0.00     0.202 C 
ENDBRANCH   1  23
TORSDOF 2
ENDMDL
MODEL 8
REMARK VINA RESULT:      -6.1      2.027      3.175
REMARK  2 active torsions:
REMARK  status: ('A' for Active; 'I' for Inactive)
REMARK    1  A    between atoms: O1_2  and  C2_3 
REMARK    2  A    between atoms: C8_12  and  N3_13 
ROOT
HETATM    1  C2  UNL     1      21.147   1.692  51.564  1.00  0.00     0.090 A 
HETATM    2  C3  UNL     1      22.223   1.989  50.598  1.00  0.00     0.070 A 
HETATM    3  C4  UNL     1      21.946   2.842  51.546  1.00  0.00     0.029 A 
HETATM    4  C5  UNL     1      21.772   2.821  49.936  1.00  0.00     0.080 A 
HETATM    5  O2  UNL     1      22.235   1.667  49.279  1.00  0.00     0.000 OA
HETATM    6  C6  UNL     1      21.573   1.326  48.130  1.00  0.00     0.137 C 
HETATM    7  N1  UNL     1      22.350   2.117  47.420  1.00  0.00    -0.253 NA
HETATM    8  C7  UNL     1      23.330   2.791  48.225  1.00  0.00     0.230 C 
HETATM    9  N2  UNL     1      23.826   3.179  49.322  1.00  0.00    -0.240 NA
HETATM   10  C8  UNL     1      23.381   2.985  50.679  1.00  0.00     0.156 A 
HETATM   11  N4  UNL     1      23.298   4.258  51.248  1.00  0.00    -0.282 NA
HETATM   12  C14 UNL     1      22.512   4.720  52.387  1.00  0.00     0.102 C 
HETATM   13  C15 UNL     1      21.473   3.624  52.661  1.00  0.00     0.001 A 
HETATM   14  C16 UNL     1      20.616   2.532  52.770  1.00  0.00     0.041 A 
HETATM   15  H13 UNL     1      24.299   4.586  51.509  1.00  0.00     0.125 HD
ENDROOT
BRANCH  10  16
HETATM   16  N3  UNL     1      24.535   2.282  51.305  1.00  0.00    -0.317 N 
HETATM   17  C9  UNL     1      24.179   1.172  52.174  1.00  0.00     0.144 A 
HETATM   18  S1  UNL     1      25.199   0.185  53.024  1.00  0.00    -0.096 SA
HETATM   19  C10 UNL     1      26.794   0.591  52.786  1.00  0.00     0.053 A 
HETATM   20  C11 UNL     1      26.821   1.729  51.875  1.00  0.00     0.032 A 
HETATM   21  C12 UNL     1      25.921   2.452  51.245  1.00  0.00     0.012 A 
HETATM   22  C13 UNL     1      26.317   3.578  50.367  1.00  0.00     0.068 C 
ENDBRANCH  10  16
BRANCH   1  23
HETATM   23  O1  UNL     1      20.576   0.430  51.284  1.00  0.00    -0.383 OA
HETATM   24  C1  UNL     1      19.195   0.230  51.471  1.00  0.00     0.202 C 
ENDBRANCH   1  23
TORSDOF 2
ENDMDL
MODEL 9
REMARK VINA RESULT:      -6.1      9.384     11.487
REMARK  2 active torsions:
REMARK  status: ('A' for Active; 'I' for Inactive)
REMARK    1  A    between atoms: O1_2  and  C2_3 
REMARK    2  A    between atoms: C8_12  and  N3_13 
ROOT
HETATM    1  C2  UNL     1      32.803   6.244  44.896  1.00  0.00     0.090 A 
HETATM    2  C3  UNL     1      32.857   6.217  46.371  1.00  0.00     0.070 A 
HETATM    3  C4  UNL     1      32.707   7.352  45.746  1.00  0.00     0.029 A 
HETATM    4  C5  UNL     1      33.892   6.668  46.613  1.00  0.00     0.080 A 
HETATM    5  O2  UNL     1      33.617   5.391  47.136  1.00  0.00     0.000 OA
HETATM    6  C6  UNL     1      34.695   4.560  47.282  1.00  0.00     0.137 C 
HETATM    7  N1  UNL     1      34.949   5.059  48.473  1.00  0.00    -0.253 NA
HETATM    8  C7  UNL     1      34.014   6.084  48.849  1.00  0.00     0.230 C 
HETATM    9  N2  UNL     1      33.096   6.923  48.620  1.00  0.00    -0.240 NA
HETATM   10  C8  UNL     1      32.407   7.256  47.399  1.00  0.00     0.156 A 
HETATM   11  N4  UNL     1      32.537   8.638  47.242  1.00  0.00    -0.282 NA
HETATM   12  C14 UNL     1      32.451   9.452  46.034  1.00  0.00     0.102 C 
HETATM   13  C15 UNL     1      32.549   8.475  44.855  1.00  0.00     0.001 A 
HETATM   14  C16 UNL     1      32.642   7.450  43.916  1.00  0.00     0.041 A 
HETATM   15  H13 UNL     1      31.828   9.129  47.903  1.00  0.00     0.125 HD
ENDROOT
BRANCH  10  16
HETATM   16  N3  UNL     1      30.985   6.968  47.735  1.00  0.00    -0.317 N 
HETATM   17  C9  UNL     1      30.177   8.138  48.038  1.00  0.00     0.144 A 
HETATM   18  S1  UNL     1      28.576   8.183  48.450  1.00  0.00    -0.096 SA
HETATM   19  C10 UNL     1      27.905   6.662  48.493  1.00  0.00     0.053 A 
HETATM   20  C11 UNL     1      28.957   5.713  48.147  1.00  0.00     0.032 A 
HETATM   21  C12 UNL     1      30.231   5.795  47.829  1.00  0.00     0.012 A 
HETATM   22  C13 UNL     1      31.026   4.583  47.527  1.00  0.00     0.068 C 
ENDBRANCH  10  16
BRANCH   1  23
HETATM   23  O1  UNL     1      32.908   4.932  44.381  1.00  0.00    -0.383 OA
HETATM   24  C1  UNL     1      33.589   4.710  43.168  1.00  0.00     0.202 C 
ENDBRANCH   1  23
TORSDOF 2
ENDMDL
