MODEL 1
REMARK VINA RESULT:      -6.8      0.000      0.000
REMARK  5 active torsions:
REMARK  status: ('A' for Active; 'I' for Inactive)
REMARK    1  A    between atoms: C2_2  and  C3_3 
REMARK    2  A    between atoms: C4_4  and  C5_6 
REMARK    3  A    between atoms: C5_6  and  C6_7 
REMARK    4  A    between atoms: C9_12  and  C10_13 
REMARK    5  A    between atoms: C10_13  and  C11_14 
ROOT
HETATM    1  C6  UNL     1      25.995   2.323  52.199  1.00  0.00     0.075 C 
HETATM    2  N1  UNL     1      24.855   2.139  51.529  1.00  0.00    -0.179 NA
HETATM    3  C7  UNL     1      23.902   1.434  52.324  1.00  0.00     0.205 A 
HETATM    4  N2  UNL     1      23.386   2.447  51.952  1.00  0.00    -0.216 NA
HETATM    5  C8  UNL     1      23.274   3.630  51.316  1.00  0.00     0.145 C 
HETATM    6  C9  UNL     1      24.191   4.046  50.217  1.00  0.00    -0.064 C 
HETATM    7  C14 UNL     1      25.546   4.489  49.849  1.00  0.00     0.055 C 
HETATM    8  C15 UNL     1      26.590   3.453  50.006  1.00  0.00     0.124 C 
HETATM    9  N3  UNL     1      26.859   3.043  51.361  1.00  0.00    -0.383 N 
HETATM   10  H19 UNL     1      27.790   3.318  51.792  1.00  0.00     0.160 HD
ENDROOT
BRANCH   1  11
HETATM   11  C5  UNL     1      26.333   1.895  53.570  1.00  0.00     0.117 C 
BRANCH  11  12
HETATM   12  C4  UNL     1      27.425   0.894  53.666  1.00  0.00    -0.005 C 
HETATM   13  C3  UNL     1      28.655   1.021  54.211  1.00  0.00     0.011 C 
HETATM   14 BR1  UNL     1      26.932  -0.769  52.873  1.00  0.00    -0.055 Br
BRANCH  13  15
HETATM   15  C2  UNL     1      29.086  -0.347  53.897  1.00  0.00    -0.008 C 
HETATM   16  C1  UNL     1      30.055  -1.254  53.711  1.00  0.00     0.013 C 
ENDBRANCH  13  15
ENDBRANCH  11  12
ENDBRANCH   1  11
BRANCH   6  17
HETATM   17  C10 UNL     1      23.348   4.108  49.095  1.00  0.00     0.005 C 
BRANCH  17  18
HETATM   18  C11 UNL     1      22.632   3.898  47.785  1.00  0.00     0.014 C 
HETATM   19  C12 UNL     1      21.948   2.945  47.054  1.00  0.00    -0.015 C 
HETATM   20  C13 UNL     1      21.998   1.790  47.965  1.00  0.00     0.056 C 
HETATM   21 BR2  UNL     1      21.572   3.998  45.521  1.00  0.00    -0.056 Br
ENDBRANCH  17  18
ENDBRANCH   6  17
TORSDOF 5
ENDMDL
MODEL 2
REMARK VINA RESULT:      -6.6      3.993      5.263
REMARK  5 active torsions:
REMARK  status: ('A' for Active; 'I' for Inactive)
REMARK    1  A    between atoms: C2_2  and  C3_3 
REMARK    2  A    between atoms: C4_4  and  C5_6 
REMARK    3  A    between atoms: C5_6  and  C6_7 
REMARK    4  A    between atoms: C9_12  and  C10_13 
REMARK    5  A    between atoms: C10_13  and  C11_14 
ROOT
HETATM    1  C6  UNL     1      24.354   0.689  52.709  1.00  0.00     0.075 C 
HETATM    2  N1  UNL     1      23.133   1.185  52.503  1.00  0.00    -0.179 NA
HETATM    3  C7  UNL     1      23.159   2.218  51.518  1.00  0.00     0.205 A 
HETATM    4  N2  UNL     1      22.355   1.404  51.169  1.00  0.00    -0.216 NA
HETATM    5  C8  UNL     1      21.614   0.279  51.220  1.00  0.00     0.145 C 
HETATM    6  C9  UNL     1      21.403  -0.491  52.480  1.00  0.00    -0.064 C 
HETATM    7  C14 UNL     1      22.000  -1.376  53.493  1.00  0.00     0.055 C 
HETATM    8  C15 UNL     1      23.024  -0.729  54.342  1.00  0.00     0.124 C 
HETATM    9  N3  UNL     1      24.232  -0.332  53.664  1.00  0.00    -0.383 N 
HETATM   10  H19 UNL     1      25.126  -0.864  53.881  1.00  0.00     0.160 HD
ENDROOT
BRANCH   1  11
HETATM   11  C5  UNL     1      25.625   1.081  52.071  1.00  0.00     0.117 C 
BRANCH  11  12
HETATM   12  C4  UNL     1      26.841   0.458  52.650  1.00  0.00    -0.005 C 
HETATM   13  C3  UNL     1      27.217  -0.840  52.652  1.00  0.00     0.011 C 
HETATM   14 BR1  UNL     1      27.962   1.747  53.497  1.00  0.00    -0.055 Br
BRANCH  13  15
HETATM   15  C2  UNL     1      28.463  -0.621  53.397  1.00  0.00    -0.008 C 
HETATM   16  C1  UNL     1      29.750  -0.907  53.632  1.00  0.00     0.013 C 
ENDBRANCH  13  15
ENDBRANCH  11  12
ENDBRANCH   1  11
BRANCH   6  17
HETATM   17  C10 UNL     1      20.025  -0.355  52.718  1.00  0.00     0.005 C 
BRANCH  17  18
HETATM   18  C11 UNL     1      18.519  -0.413  52.692  1.00  0.00     0.014 C 
HETATM   19  C12 UNL     1      17.450  -1.205  53.068  1.00  0.00    -0.015 C 
HETATM   20  C13 UNL     1      18.139  -2.342  53.699  1.00  0.00     0.056 C 
HETATM   21 BR2  UNL     1      16.052  -0.100  52.414  1.00  0.00    -0.056 Br
ENDBRANCH  17  18
ENDBRANCH   6  17
TORSDOF 5
ENDMDL
MODEL 3
REMARK VINA RESULT:      -6.6      3.338      6.127
REMARK  5 active torsions:
REMARK  status: ('A' for Active; 'I' for Inactive)
REMARK    1  A    between atoms: C2_2  and  C3_3 
REMARK    2  A    between atoms: C4_4  and  C5_6 
REMARK    3  A    between atoms: C5_6  and  C6_7 
REMARK    4  A    between atoms: C9_12  and  C10_13 
REMARK    5  A    between atoms: C10_13  and  C11_14 
ROOT
HETATM    1  C6  UNL     1      23.821   5.225  50.284  1.00  0.00     0.075 C 
HETATM    2  N1  UNL     1      23.142   4.082  50.401  1.00  0.00    -0.179 NA
HETATM    3  C7  UNL     1      22.893   3.501  49.122  1.00  0.00     0.205 A 
HETATM    4  N2  UNL     1      23.439   2.676  49.796  1.00  0.00    -0.216 NA
HETATM    5  C8  UNL     1      24.028   2.145  50.885  1.00  0.00     0.145 C 
HETATM    6  C9  UNL     1      23.864   2.719  52.252  1.00  0.00    -0.064 C 
HETATM    7  C14 UNL     1      24.194   3.824  53.167  1.00  0.00     0.055 C 
HETATM    8  C15 UNL     1      23.578   5.120  52.808  1.00  0.00     0.124 C 
HETATM    9  N3  UNL     1      24.046   5.711  51.580  1.00  0.00    -0.383 N 
HETATM   10  H19 UNL     1      24.637   6.592  51.642  1.00  0.00     0.160 HD
ENDROOT
BRANCH   1  11
HETATM   11  C5  UNL     1      24.293   5.891  49.054  1.00  0.00     0.117 C 
BRANCH  11  12
HETATM   12  C4  UNL     1      25.751   5.783  48.798  1.00  0.00    -0.005 C 
HETATM   13  C3  UNL     1      26.595   4.768  49.086  1.00  0.00     0.011 C 
HETATM   14 BR1  UNL     1      26.437   7.347  47.950  1.00  0.00    -0.055 Br
BRANCH  13  15
HETATM   15  C2  UNL     1      27.790   5.428  48.545  1.00  0.00    -0.008 C 
HETATM   16  C1  UNL     1      29.089   5.408  48.216  1.00  0.00     0.013 C 
ENDBRANCH  13  15
ENDBRANCH  11  12
ENDBRANCH   1  11
BRANCH   6  17
HETATM   17  C10 UNL     1      23.168   1.716  52.946  1.00  0.00     0.005 C 
BRANCH  17  18
HETATM   18  C11 UNL     1      22.582   0.428  53.464  1.00  0.00     0.014 C 
HETATM   19  C12 UNL     1      22.935  -0.781  54.035  1.00  0.00    -0.015 C 
HETATM   20  C13 UNL     1      24.397  -0.646  54.119  1.00  0.00     0.056 C 
HETATM   21 BR2  UNL     1      21.195  -1.527  54.184  1.00  0.00    -0.056 Br
ENDBRANCH  17  18
ENDBRANCH   6  17
TORSDOF 5
ENDMDL
MODEL 4
REMARK VINA RESULT:      -6.3      4.012      6.060
REMARK  5 active torsions:
REMARK  status: ('A' for Active; 'I' for Inactive)
REMARK    1  A    between atoms: C2_2  and  C3_3 
REMARK    2  A    between atoms: C4_4  and  C5_6 
REMARK    3  A    between atoms: C5_6  and  C6_7 
REMARK    4  A    between atoms: C9_12  and  C10_13 
REMARK    5  A    between atoms: C10_13  and  C11_14 
ROOT
HETATM    1  C6  UNL     1      23.538   4.712  51.607  1.00  0.00     0.075 C 
HETATM    2  N1  UNL     1      22.354   4.154  51.864  1.00  0.00    -0.179 NA
HETATM    3  C7  UNL     1      21.305   4.841  51.183  1.00  0.00     0.205 A 
HETATM    4  N2  UNL     1      21.236   3.685  50.883  1.00  0.00    -0.216 NA
HETATM    5  C8  UNL     1      21.565   2.378  50.866  1.00  0.00     0.145 C 
HETATM    6  C9  UNL     1      22.416   1.746  51.916  1.00  0.00    -0.064 C 
HETATM    7  C14 UNL     1      23.765   1.616  52.489  1.00  0.00     0.055 C 
HETATM    8  C15 UNL     1      24.266   2.838  53.156  1.00  0.00     0.124 C 
HETATM    9  N3  UNL     1      24.508   3.963  52.290  1.00  0.00    -0.383 N 
HETATM   10  H19 UNL     1      25.515   4.260  52.123  1.00  0.00     0.160 HD
ENDROOT
BRANCH   1  11
HETATM   11  C5  UNL     1      23.837   5.882  50.759  1.00  0.00     0.117 C 
BRANCH  11  12
HETATM   12  C4  UNL     1      25.102   5.795  49.988  1.00  0.00    -0.005 C 
HETATM   13  C3  UNL     1      25.634   4.737  49.338  1.00  0.00     0.011 C 
HETATM   14 BR1  UNL     1      26.040   7.455  49.978  1.00  0.00    -0.055 Br
BRANCH  13  15
HETATM   15  C2  UNL     1      26.831   5.449  48.874  1.00  0.00    -0.008 C 
HETATM   16  C1  UNL     1      28.075   5.445  48.376  1.00  0.00     0.013 C 
ENDBRANCH  13  15
ENDBRANCH  11  12
ENDBRANCH   1  11
BRANCH   6  17
HETATM   17  C10 UNL     1      21.542   0.844  52.545  1.00  0.00     0.005 C 
BRANCH  17  18
HETATM   18  C11 UNL     1      20.402  -0.059  52.941  1.00  0.00     0.014 C 
HETATM   19  C12 UNL     1      20.080  -1.103  53.788  1.00  0.00    -0.015 C 
HETATM   20  C13 UNL     1      21.357  -1.314  54.488  1.00  0.00     0.056 C 
HETATM   21 BR2  UNL     1      18.269  -1.326  53.265  1.00  0.00    -0.056 Br
ENDBRANCH  17  18
ENDBRANCH   6  17
TORSDOF 5
ENDMDL
MODEL 5
REMARK VINA RESULT:      -6.2      3.243      5.518
REMARK  5 active torsions:
REMARK  status: ('A' for Active; 'I' for Inactive)
REMARK    1  A    between atoms: C2_2  and  C3_3 
REMARK    2  A    between atoms: C4_4  and  C5_6 
REMARK    3  A    between atoms: C5_6  and  C6_7 
REMARK    4  A    between atoms: C9_12  and  C10_13 
REMARK    5  A    between atoms: C10_13  and  C11_14 
ROOT
HETATM    1  C6  UNL     1      24.496   2.833  51.886  1.00  0.00     0.075 C 
HETATM    2  N1  UNL     1      25.700   3.273  51.515  1.00  0.00    -0.179 NA
HETATM    3  C7  UNL     1      26.697   2.274  51.724  1.00  0.00     0.205 A 
HETATM    4  N2  UNL     1      26.760   2.616  50.579  1.00  0.00    -0.216 NA
HETATM    5  C8  UNL     1      26.444   3.299  49.461  1.00  0.00     0.145 C 
HETATM    6  C9  UNL     1      25.667   4.572  49.486  1.00  0.00    -0.064 C 
HETATM    7  C14 UNL     1      24.357   5.207  49.704  1.00  0.00     0.055 C 
HETATM    8  C15 UNL     1      23.885   5.169  51.105  1.00  0.00     0.124 C 
HETATM    9  N3  UNL     1      23.578   3.861  51.622  1.00  0.00    -0.383 N 
HETATM   10  H19 UNL     1      22.560   3.623  51.812  1.00  0.00     0.160 HD
ENDROOT
BRANCH   1  11
HETATM   11  C5  UNL     1      24.133   1.520  52.452  1.00  0.00     0.117 C 
BRANCH  11  12
HETATM   12  C4  UNL     1      22.778   1.032  52.093  1.00  0.00    -0.005 C 
HETATM   13  C3  UNL     1      22.177   0.992  50.884  1.00  0.00     0.011 C 
HETATM   14 BR1  UNL     1      21.826   0.401  53.621  1.00  0.00    -0.055 Br
BRANCH  13  15
HETATM   15  C2  UNL     1      20.920   0.413  51.375  1.00  0.00    -0.008 C 
HETATM   16  C1  UNL     1      19.592   0.262  51.292  1.00  0.00     0.013 C 
ENDBRANCH  13  15
ENDBRANCH  11  12
ENDBRANCH   1  11
BRANCH   6  17
HETATM   17  C10 UNL     1      26.588   5.525  49.022  1.00  0.00     0.005 C 
BRANCH  17  18
HETATM   18  C11 UNL     1      27.420   6.490  48.217  1.00  0.00     0.014 C 
HETATM   19  C12 UNL     1      28.698   6.684  47.725  1.00  0.00    -0.015 C 
HETATM   20  C13 UNL     1      29.383   5.477  48.214  1.00  0.00     0.056 C 
HETATM   21 BR2  UNL     1      28.406   8.352  46.867  1.00  0.00    -0.056 Br
ENDBRANCH  17  18
ENDBRANCH   6  17
TORSDOF 5
ENDMDL
MODEL 6
REMARK VINA RESULT:      -6.0      1.699      7.199
REMARK  5 active torsions:
REMARK  status: ('A' for Active; 'I' for Inactive)
REMARK    1  A    between atoms: C2_2  and  C3_3 
REMARK    2  A    between atoms: C4_4  and  C5_6 
REMARK    3  A    between atoms: C5_6  and  C6_7 
REMARK    4  A    between atoms: C9_12  and  C10_13 
REMARK    5  A    between atoms: C10_13  and  C11_14 
ROOT
HETATM    1  C6  UNL     1      23.722   4.442  50.229  1.00  0.00     0.075 C 
HETATM    2  N1  UNL     1      24.063   3.840  51.371  1.00  0.00    -0.179 NA
HETATM    3  C7  UNL     1      22.913   3.573  52.172  1.00  0.00     0.205 A 
HETATM    4  N2  UNL     1      23.500   2.541  52.023  1.00  0.00    -0.216 NA
HETATM    5  C8  UNL     1      24.463   1.704  51.589  1.00  0.00     0.145 C 
HETATM    6  C9  UNL     1      25.791   2.182  51.107  1.00  0.00    -0.064 C 
HETATM    7  C14 UNL     1      26.535   2.870  50.040  1.00  0.00     0.055 C 
HETATM    8  C15 UNL     1      26.238   4.315  49.921  1.00  0.00     0.124 C 
HETATM    9  N3  UNL     1      24.901   4.641  49.496  1.00  0.00    -0.383 N 
HETATM   10  H19 UNL     1      24.771   5.058  48.527  1.00  0.00     0.160 HD
ENDROOT
BRANCH   1  11
HETATM   11  C5  UNL     1      22.377   4.829  49.762  1.00  0.00     0.117 C 
BRANCH  11  12
HETATM   12  C4  UNL     1      22.091   4.519  48.339  1.00  0.00    -0.005 C 
HETATM   13  C3  UNL     1      21.759   5.357  47.333  1.00  0.00     0.011 C 
HETATM   14 BR1  UNL     1      22.226   2.650  47.981  1.00  0.00    -0.055 Br
BRANCH  13  15
HETATM   15  C2  UNL     1      21.643   4.307  46.313  1.00  0.00    -0.008 C 
HETATM   16  C1  UNL     1      21.407   3.924  45.051  1.00  0.00     0.013 C 
ENDBRANCH  13  15
ENDBRANCH  11  12
ENDBRANCH   1  11
BRANCH   6  17
HETATM   17  C10 UNL     1      26.687   1.669  52.059  1.00  0.00     0.005 C 
BRANCH  17  18
HETATM   18  C11 UNL     1      27.637   0.832  52.877  1.00  0.00     0.014 C 
HETATM   19  C12 UNL     1      27.738   0.152  54.076  1.00  0.00    -0.015 C 
HETATM   20  C13 UNL     1      26.409   0.395  54.660  1.00  0.00     0.056 C 
HETATM   21 BR2  UNL     1      29.519  -0.475  53.882  1.00  0.00    -0.056 Br
ENDBRANCH  17  18
ENDBRANCH   6  17
TORSDOF 5
ENDMDL
MODEL 7
REMARK VINA RESULT:      -5.9      2.204      3.107
REMARK  5 active torsions:
REMARK  status: ('A' for Active; 'I' for Inactive)
REMARK    1  A    between atoms: C2_2  and  C3_3 
REMARK    2  A    between atoms: C4_4  and  C5_6 
REMARK    3  A    between atoms: C5_6  and  C6_7 
REMARK    4  A    between atoms: C9_12  and  C10_13 
REMARK    5  A    between atoms: C10_13  and  C11_14 
ROOT
HETATM    1  C6  UNL     1      23.026   2.201  51.757  1.00  0.00     0.075 C 
HETATM    2  N1  UNL     1      22.945   3.466  51.340  1.00  0.00    -0.179 NA
HETATM    3  C7  UNL     1      23.465   4.363  52.321  1.00  0.00     0.205 A 
HETATM    4  N2  UNL     1      24.040   4.575  51.293  1.00  0.00    -0.216 NA
HETATM    5  C8  UNL     1      24.367   4.433  49.993  1.00  0.00     0.145 C 
HETATM    6  C9  UNL     1      23.481   3.747  49.009  1.00  0.00    -0.064 C 
HETATM    7  C14 UNL     1      22.921   2.468  48.543  1.00  0.00     0.055 C 
HETATM    8  C15 UNL     1      21.963   1.843  49.481  1.00  0.00     0.124 C 
HETATM    9  N3  UNL     1      22.521   1.391  50.729  1.00  0.00    -0.383 N 
HETATM   10  H19 UNL     1      22.584   0.344  50.900  1.00  0.00     0.160 HD
ENDROOT
BRANCH   1  11
HETATM   11  C5  UNL     1      23.554   1.688  53.036  1.00  0.00     0.117 C 
BRANCH  11  12
HETATM   12  C4  UNL     1      24.647   0.692  52.912  1.00  0.00    -0.005 C 
HETATM   13  C3  UNL     1      24.733  -0.551  53.433  1.00  0.00     0.011 C 
HETATM   14 BR1  UNL     1      26.093   1.357  51.860  1.00  0.00    -0.055 Br
BRANCH  13  15
HETATM   15  C2  UNL     1      26.061  -0.841  52.878  1.00  0.00    -0.008 C 
HETATM   16  C1  UNL     1      27.064  -1.695  52.630  1.00  0.00     0.013 C 
ENDBRANCH  13  15
ENDBRANCH  11  12
ENDBRANCH   1  11
BRANCH   6  17
HETATM   17  C10 UNL     1      23.115   4.777  48.127  1.00  0.00     0.005 C 
BRANCH  17  18
HETATM   18  C11 UNL     1      22.449   5.675  47.115  1.00  0.00     0.014 C 
HETATM   19  C12 UNL     1      21.832   5.656  45.878  1.00  0.00    -0.015 C 
HETATM   20  C13 UNL     1      21.908   4.227  45.537  1.00  0.00     0.056 C 
HETATM   21 BR2  UNL     1      21.454   7.511  45.737  1.00  0.00    -0.056 Br
ENDBRANCH  17  18
ENDBRANCH   6  17
TORSDOF 5
ENDMDL
MODEL 8
REMARK VINA RESULT:      -5.8      3.834      6.565
REMARK  5 active torsions:
REMARK  status: ('A' for Active; 'I' for Inactive)
REMARK    1  A    between atoms: C2_2  and  C3_3 
REMARK    2  A    between atoms: C4_4  and  C5_6 
REMARK    3  A    between atoms: C5_6  and  C6_7 
REMARK    4  A    between atoms: C9_12  and  C10_13 
REMARK    5  A    between atoms: C10_13  and  C11_14 
ROOT
HETATM    1  C6  UNL     1      26.053   6.176  49.403  1.00  0.00     0.075 C 
HETATM    2  N1  UNL     1      25.267   5.876  50.439  1.00  0.00    -0.179 NA
HETATM    3  C7  UNL     1      24.463   6.994  50.813  1.00  0.00     0.205 A 
HETATM    4  N2  UNL     1      23.730   6.069  50.616  1.00  0.00    -0.216 NA
HETATM    5  C8  UNL     1      23.365   4.811  50.299  1.00  0.00     0.145 C 
HETATM    6  C9  UNL     1      24.319   3.665  50.319  1.00  0.00    -0.064 C 
HETATM    7  C14 UNL     1      25.470   3.013  49.673  1.00  0.00     0.055 C 
HETATM    8  C15 UNL     1      26.740   3.763  49.787  1.00  0.00     0.124 C 
HETATM    9  N3  UNL     1      26.784   5.021  49.086  1.00  0.00    -0.383 N 
HETATM   10  H19 UNL     1      27.411   5.097  48.232  1.00  0.00     0.160 HD
ENDROOT
BRANCH   1  11
HETATM   11  C5  UNL     1      26.163   7.454  48.674  1.00  0.00     0.117 C 
BRANCH  11  12
HETATM   12  C4  UNL     1      27.444   8.179  48.860  1.00  0.00    -0.005 C 
HETATM   13  C3  UNL     1      27.784   9.082  49.806  1.00  0.00     0.011 C 
HETATM   14 BR1  UNL     1      28.723   7.710  47.525  1.00  0.00    -0.055 Br
BRANCH  13  15
HETATM   15  C2  UNL     1      29.144   9.306  49.298  1.00  0.00    -0.008 C 
HETATM   16  C1  UNL     1      30.370   9.830  49.431  1.00  0.00     0.013 C 
ENDBRANCH  13  15
ENDBRANCH  11  12
ENDBRANCH   1  11
BRANCH   6  17
HETATM   17  C10 UNL     1      23.826   2.848  51.350  1.00  0.00     0.005 C 
BRANCH  17  18
HETATM   18  C11 UNL     1      23.256   1.740  52.198  1.00  0.00     0.014 C 
HETATM   19  C12 UNL     1      23.618   0.600  52.891  1.00  0.00    -0.015 C 
HETATM   20  C13 UNL     1      25.068   0.560  52.649  1.00  0.00     0.056 C 
HETATM   21 BR2  UNL     1      21.895   0.111  53.523  1.00  0.00    -0.056 Br
ENDBRANCH  17  18
ENDBRANCH   6  17
TORSDOF 5
ENDMDL
MODEL 9
REMARK VINA RESULT:      -5.7      3.429      4.137
REMARK  5 active torsions:
REMARK  status: ('A' for Active; 'I' for Inactive)
REMARK    1  A    between atoms: C2_2  and  C3_3 
REMARK    2  A    between atoms: C4_4  and  C5_6 
REMARK    3  A    between atoms: C5_6  and  C6_7 
REMARK    4  A    between atoms: C9_12  and  C10_13 
REMARK    5  A    between atoms: C10_13  and  C11_14 
ROOT
HETATM    1  C6  UNL     1      24.787   3.392  51.592  1.00  0.00     0.075 C 
HETATM    2  N1  UNL     1      24.194   4.337  50.861  1.00  0.00    -0.179 NA
HETATM    3  C7  UNL     1      23.109   4.930  51.574  1.00  0.00     0.205 A 
HETATM    4  N2  UNL     1      23.842   5.811  51.228  1.00  0.00    -0.216 NA
HETATM    5  C8  UNL     1      24.912   6.389  50.648  1.00  0.00     0.145 C 
HETATM    6  C9  UNL     1      25.739   5.702  49.615  1.00  0.00    -0.064 C 
HETATM    7  C14 UNL     1      26.723   4.644  49.333  1.00  0.00     0.055 C 
HETATM    8  C15 UNL     1      26.201   3.269  49.488  1.00  0.00     0.124 C 
HETATM    9  N3  UNL     1      25.852   2.884  50.831  1.00  0.00    -0.383 N 
HETATM   10  H19 UNL     1      26.457   2.160  51.319  1.00  0.00     0.160 HD
ENDROOT
BRANCH   1  11
HETATM   11  C5  UNL     1      24.449   2.936  52.954  1.00  0.00     0.117 C 
BRANCH  11  12
HETATM   12  C4  UNL     1      23.766   1.620  53.027  1.00  0.00    -0.005 C 
HETATM   13  C3  UNL     1      22.460   1.324  52.845  1.00  0.00     0.011 C 
HETATM   14 BR1  UNL     1      24.983   0.215  53.452  1.00  0.00    -0.055 Br
BRANCH  13  15
HETATM   15  C2  UNL     1      22.611  -0.115  53.092  1.00  0.00    -0.008 C 
HETATM   16  C1  UNL     1      22.098  -1.300  53.452  1.00  0.00     0.013 C 
ENDBRANCH  13  15
ENDBRANCH  11  12
ENDBRANCH   1  11
BRANCH   6  17
HETATM   17  C10 UNL     1      25.520   6.470  48.459  1.00  0.00     0.005 C 
BRANCH  17  18
HETATM   18  C11 UNL     1      25.022   7.427  47.406  1.00  0.00     0.014 C 
HETATM   19  C12 UNL     1      23.921   7.705  46.617  1.00  0.00    -0.015 C 
HETATM   20  C13 UNL     1      22.988   6.648  47.037  1.00  0.00     0.056 C 
HETATM   21 BR2  UNL     1      24.626   9.206  45.693  1.00  0.00    -0.056 Br
ENDBRANCH  17  18
ENDBRANCH   6  17
TORSDOF 5
ENDMDL
