MODEL 1
REMARK VINA RESULT:      -7.7      0.000      0.000
REMARK  6 active torsions:
REMARK  status: ('A' for Active; 'I' for Inactive)
REMARK    1  A    between atoms: N1_1  and  C1_2 
REMARK    2  A    between atoms: C1_2  and  N2_3 
REMARK    3  A    between atoms: N2_3  and  N3_4 
REMARK    4  A    between atoms: C2_5  and  C3_6 
REMARK    5  A    between atoms: C2_5  and  C11_14 
REMARK    6  A    between atoms: C4_7  and  C5_8 
ROOT
HETATM    1  N3  UNL     1      24.234   2.423  52.121  1.00  0.00    -0.177 NA
HETATM    2  C2  UNL     1      23.714   1.354  52.485  1.00  0.00     0.086 C 
ENDROOT
BRANCH   2   3
HETATM    3  C3  UNL     1      24.957   0.783  52.918  1.00  0.00     0.035 C 
HETATM    4  C4  UNL     1      25.981   0.044  52.643  1.00  0.00     0.014 C 
BRANCH   4   5
HETATM    5  C5  UNL     1      27.241  -0.611  52.904  1.00  0.00    -0.036 A 
HETATM    6  C6  UNL     1      27.479  -1.944  52.746  1.00  0.00     0.011 A 
HETATM    7  C7  UNL     1      28.740  -2.317  53.056  1.00  0.00     0.001 A 
HETATM    8  C8  UNL     1      29.690  -1.429  53.490  1.00  0.00     0.000 A 
HETATM    9  C9  UNL     1      29.458  -0.084  53.653  1.00  0.00     0.001 A 
HETATM   10  C10 UNL     1      28.160   0.333  53.339  1.00  0.00     0.011 A 
ENDBRANCH   4   5
ENDBRANCH   2   3
BRANCH   2  11
HETATM   11  C11 UNL     1      22.378   0.831  52.493  1.00  0.00    -0.006 A 
HETATM   12  C12 UNL     1      21.930   0.286  53.669  1.00  0.00     0.015 A 
HETATM   13  C13 UNL     1      20.702  -0.255  53.865  1.00  0.00     0.020 A 
HETATM   14  C14 UNL     1      19.823  -0.268  52.816  1.00  0.00     0.011 A 
HETATM   15 BR1  UNL     1      18.086  -1.015  53.033  1.00  0.00    -0.051 Br
HETATM   16  C15 UNL     1      20.207   0.260  51.610  1.00  0.00     0.020 A 
HETATM   17  C16 UNL     1      21.460   0.785  51.496  1.00  0.00     0.015 A 
ENDBRANCH   2  11
BRANCH   1  18
HETATM   18  N2  UNL     1      23.683   3.524  51.575  1.00  0.00    -0.286 N 
HETATM   19  H5  UNL     1      23.406   3.894  50.616  1.00  0.00     0.184 HD
BRANCH  18  20
HETATM   20  C1  UNL     1      23.445   4.395  52.715  1.00  0.00     0.407 C 
BRANCH  20  21
HETATM   21  N1  UNL     1      24.002   5.704  52.448  1.00  0.00     0.097 N 
HETATM   22  H1  UNL     1      24.239   6.240  53.292  1.00  0.00     0.315 HD
HETATM   23  H2  UNL     1      24.827   5.667  51.824  1.00  0.00     0.315 HD
ENDBRANCH  20  21
ENDBRANCH  18  20
ENDBRANCH   1  18
TORSDOF 6
ENDMDL
MODEL 2
REMARK VINA RESULT:      -7.6      2.827      6.933
REMARK  6 active torsions:
REMARK  status: ('A' for Active; 'I' for Inactive)
REMARK    1  A    between atoms: N1_1  and  C1_2 
REMARK    2  A    between atoms: C1_2  and  N2_3 
REMARK    3  A    between atoms: N2_3  and  N3_4 
REMARK    4  A    between atoms: C2_5  and  C3_6 
REMARK    5  A    between atoms: C2_5  and  C11_14 
REMARK    6  A    between atoms: C4_7  and  C5_8 
ROOT
HETATM    1  N3  UNL     1      23.784   2.440  52.886  1.00  0.00    -0.177 NA
HETATM    2  C2  UNL     1      24.225   1.293  53.071  1.00  0.00     0.086 C 
ENDROOT
BRANCH   2   3
HETATM    3  C3  UNL     1      22.937   0.671  52.940  1.00  0.00     0.035 C 
HETATM    4  C4  UNL     1      21.719   0.750  52.516  1.00  0.00     0.014 C 
BRANCH   4   5
HETATM    5  C5  UNL     1      20.369   0.286  52.293  1.00  0.00    -0.036 A 
HETATM    6  C6  UNL     1      19.613   0.576  51.198  1.00  0.00     0.011 A 
HETATM    7  C7  UNL     1      18.380   0.025  51.221  1.00  0.00     0.001 A 
HETATM    8  C8  UNL     1      17.936  -0.755  52.257  1.00  0.00     0.000 A 
HETATM    9  C9  UNL     1      18.692  -1.052  53.366  1.00  0.00     0.001 A 
HETATM   10  C10 UNL     1      19.976  -0.495  53.371  1.00  0.00     0.011 A 
ENDBRANCH   4   5
ENDBRANCH   2   3
BRANCH   2  11
HETATM   11  C11 UNL     1      25.522   0.738  53.328  1.00  0.00    -0.006 A 
HETATM   12  C12 UNL     1      26.091  -0.004  52.324  1.00  0.00     0.015 A 
HETATM   13  C13 UNL     1      27.305  -0.605  52.384  1.00  0.00     0.020 A 
HETATM   14  C14 UNL     1      28.040  -0.471  53.531  1.00  0.00     0.011 A 
HETATM   15 BR1  UNL     1      29.751  -1.292  53.672  1.00  0.00    -0.051 Br
HETATM   16  C15 UNL     1      27.530   0.258  54.575  1.00  0.00     0.020 A 
HETATM   17  C16 UNL     1      26.300   0.829  54.434  1.00  0.00     0.015 A 
ENDBRANCH   2  11
BRANCH   1  18
HETATM   18  N2  UNL     1      24.417   3.628  52.859  1.00  0.00    -0.286 N 
HETATM   19  H5  UNL     1      25.406   4.015  52.932  1.00  0.00     0.184 HD
BRANCH  18  20
HETATM   20  C1  UNL     1      23.341   4.592  52.683  1.00  0.00     0.407 C 
BRANCH  20  21
HETATM   21  N1  UNL     1      23.900   5.890  52.375  1.00  0.00     0.097 N 
HETATM   22  H1  UNL     1      23.535   6.654  52.957  1.00  0.00     0.315 HD
HETATM   23  H2  UNL     1      24.934   5.898  52.409  1.00  0.00     0.315 HD
ENDBRANCH  20  21
ENDBRANCH  18  20
ENDBRANCH   1  18
TORSDOF 6
ENDMDL
MODEL 3
REMARK VINA RESULT:      -7.5      3.064      5.225
REMARK  6 active torsions:
REMARK  status: ('A' for Active; 'I' for Inactive)
REMARK    1  A    between atoms: N1_1  and  C1_2 
REMARK    2  A    between atoms: C1_2  and  N2_3 
REMARK    3  A    between atoms: N2_3  and  N3_4 
REMARK    4  A    between atoms: C2_5  and  C3_6 
REMARK    5  A    between atoms: C2_5  and  C11_14 
REMARK    6  A    between atoms: C4_7  and  C5_8 
ROOT
HETATM    1  N3  UNL     1      25.820  -0.038  53.026  1.00  0.00    -0.177 NA
HETATM    2  C2  UNL     1      24.698   0.449  52.804  1.00  0.00     0.086 C 
ENDROOT
BRANCH   2   3
HETATM    3  C3  UNL     1      25.226   1.631  52.185  1.00  0.00     0.035 C 
HETATM    4  C4  UNL     1      25.299   2.381  51.135  1.00  0.00     0.014 C 
BRANCH   4   5
HETATM    5  C5  UNL     1      25.732   3.517  50.355  1.00  0.00    -0.036 A 
HETATM    6  C6  UNL     1      26.801   3.524  49.509  1.00  0.00     0.011 A 
HETATM    7  C7  UNL     1      27.005   4.708  48.893  1.00  0.00     0.001 A 
HETATM    8  C8  UNL     1      26.205   5.801  49.103  1.00  0.00     0.000 A 
HETATM    9  C9  UNL     1      25.126   5.803  49.956  1.00  0.00     0.001 A 
HETATM   10  C10 UNL     1      24.889   4.590  50.609  1.00  0.00     0.011 A 
ENDBRANCH   4   5
ENDBRANCH   2   3
BRANCH   2  11
HETATM   11  C11 UNL     1      23.348   0.031  53.052  1.00  0.00    -0.006 A 
HETATM   12  C12 UNL     1      22.398   0.427  52.145  1.00  0.00     0.015 A 
HETATM   13  C13 UNL     1      21.076   0.130  52.213  1.00  0.00     0.020 A 
HETATM   14  C14 UNL     1      20.634  -0.625  53.266  1.00  0.00     0.011 A 
HETATM   15 BR1  UNL     1      18.790  -1.073  53.414  1.00  0.00    -0.051 Br
HETATM   16  C15 UNL     1      21.532  -1.053  54.210  1.00  0.00     0.020 A 
HETATM   17  C16 UNL     1      22.844  -0.711  54.067  1.00  0.00     0.015 A 
ENDBRANCH   2  11
BRANCH   1  18
HETATM   18  N2  UNL     1      26.171  -1.198  53.613  1.00  0.00    -0.286 N 
HETATM   19  H5  UNL     1      26.134  -1.659  54.572  1.00  0.00     0.184 HD
BRANCH  18  20
HETATM   20  C1  UNL     1      26.772  -1.966  52.532  1.00  0.00     0.407 C 
BRANCH  20  21
HETATM   21  N1  UNL     1      27.818  -2.812  53.064  1.00  0.00     0.097 N 
HETATM   22  H1  UNL     1      28.312  -3.367  52.354  1.00  0.00     0.315 HD
HETATM   23  H2  UNL     1      28.509  -2.286  53.628  1.00  0.00     0.315 HD
ENDBRANCH  20  21
ENDBRANCH  18  20
ENDBRANCH   1  18
TORSDOF 6
ENDMDL
MODEL 4
REMARK VINA RESULT:      -7.4      2.906      3.908
REMARK  6 active torsions:
REMARK  status: ('A' for Active; 'I' for Inactive)
REMARK    1  A    between atoms: N1_1  and  C1_2 
REMARK    2  A    between atoms: C1_2  and  N2_3 
REMARK    3  A    between atoms: N2_3  and  N3_4 
REMARK    4  A    between atoms: C2_5  and  C3_6 
REMARK    5  A    between atoms: C2_5  and  C11_14 
REMARK    6  A    between atoms: C4_7  and  C5_8 
ROOT
HETATM    1  N3  UNL     1      22.887   0.291  53.528  1.00  0.00    -0.177 NA
HETATM    2  C2  UNL     1      23.483   0.677  52.508  1.00  0.00     0.086 C 
ENDROOT
BRANCH   2   3
HETATM    3  C3  UNL     1      24.757   0.184  52.947  1.00  0.00     0.035 C 
HETATM    4  C4  UNL     1      26.002  -0.034  52.678  1.00  0.00     0.014 C 
BRANCH   4   5
HETATM    5  C5  UNL     1      27.349  -0.482  52.946  1.00  0.00    -0.036 A 
HETATM    6  C6  UNL     1      27.781  -1.771  52.840  1.00  0.00     0.011 A 
HETATM    7  C7  UNL     1      29.086  -1.938  53.145  1.00  0.00     0.001 A 
HETATM    8  C8  UNL     1      29.898  -0.901  53.525  1.00  0.00     0.000 A 
HETATM    9  C9  UNL     1      29.470   0.401  53.635  1.00  0.00     0.001 A 
HETATM   10  C10 UNL     1      28.121   0.606  53.326  1.00  0.00     0.011 A 
ENDBRANCH   4   5
ENDBRANCH   2   3
BRANCH   2  11
HETATM   11  C11 UNL     1      23.096   1.365  51.310  1.00  0.00    -0.006 A 
HETATM   12  C12 UNL     1      23.840   2.460  50.952  1.00  0.00     0.015 A 
HETATM   13  C13 UNL     1      23.625   3.232  49.858  1.00  0.00     0.020 A 
HETATM   14  C14 UNL     1      22.584   2.908  49.030  1.00  0.00     0.011 A 
HETATM   15 BR1  UNL     1      22.234   3.956  47.480  1.00  0.00    -0.051 Br
HETATM   16  C15 UNL     1      21.798   1.825  49.330  1.00  0.00     0.020 A 
HETATM   17  C16 UNL     1      22.082   1.101  50.449  1.00  0.00     0.015 A 
ENDBRANCH   2  11
BRANCH   1  18
HETATM   18  N2  UNL     1      21.590   0.394  53.876  1.00  0.00    -0.286 N 
HETATM   19  H5  UNL     1      20.746   1.008  53.667  1.00  0.00     0.184 HD
BRANCH  18  20
HETATM   20  C1  UNL     1      21.397  -0.696  54.821  1.00  0.00     0.407 C 
BRANCH  20  21
HETATM   21  N1  UNL     1      20.379  -1.595  54.320  1.00  0.00     0.097 N 
HETATM   22  H1  UNL     1      19.871  -2.105  55.054  1.00  0.00     0.315 HD
HETATM   23  H2  UNL     1      19.699  -1.122  53.699  1.00  0.00     0.315 HD
ENDBRANCH  20  21
ENDBRANCH  18  20
ENDBRANCH   1  18
TORSDOF 6
ENDMDL
MODEL 5
REMARK VINA RESULT:      -7.2      3.662      6.180
REMARK  6 active torsions:
REMARK  status: ('A' for Active; 'I' for Inactive)
REMARK    1  A    between atoms: N1_1  and  C1_2 
REMARK    2  A    between atoms: C1_2  and  N2_3 
REMARK    3  A    between atoms: N2_3  and  N3_4 
REMARK    4  A    between atoms: C2_5  and  C3_6 
REMARK    5  A    between atoms: C2_5  and  C11_14 
REMARK    6  A    between atoms: C4_7  and  C5_8 
ROOT
HETATM    1  N3  UNL     1      27.379   2.031  51.952  1.00  0.00    -0.177 NA
HETATM    2  C2  UNL     1      26.150   1.915  51.807  1.00  0.00     0.086 C 
ENDROOT
BRANCH   2   3
HETATM    3  C3  UNL     1      26.089   2.866  50.734  1.00  0.00     0.035 C 
HETATM    4  C4  UNL     1      25.850   4.078  50.354  1.00  0.00     0.014 C 
BRANCH   4   5
HETATM    5  C5  UNL     1      25.735   5.164  49.408  1.00  0.00    -0.036 A 
HETATM    6  C6  UNL     1      26.782   5.865  48.890  1.00  0.00     0.011 A 
HETATM    7  C7  UNL     1      26.418   6.835  48.024  1.00  0.00     0.001 A 
HETATM    8  C8  UNL     1      25.110   7.086  47.699  1.00  0.00     0.000 A 
HETATM    9  C9  UNL     1      24.048   6.384  48.217  1.00  0.00     0.001 A 
HETATM   10  C10 UNL     1      24.394   5.371  49.119  1.00  0.00     0.011 A 
ENDBRANCH   4   5
ENDBRANCH   2   3
BRANCH   2  11
HETATM   11  C11 UNL     1      25.126   1.138  52.444  1.00  0.00    -0.006 A 
HETATM   12  C12 UNL     1      23.835   1.579  52.305  1.00  0.00     0.015 A 
HETATM   13  C13 UNL     1      22.740   0.978  52.835  1.00  0.00     0.020 A 
HETATM   14  C14 UNL     1      22.917  -0.162  53.571  1.00  0.00     0.011 A 
HETATM   15 BR1  UNL     1      21.417  -1.048  54.338  1.00  0.00    -0.051 Br
HETATM   16  C15 UNL     1      24.183  -0.657  53.749  1.00  0.00     0.020 A 
HETATM   17  C16 UNL     1      25.230   0.007  53.184  1.00  0.00     0.015 A 
ENDBRANCH   2  11
BRANCH   1  18
HETATM   18  N2  UNL     1      28.221   1.426  52.813  1.00  0.00    -0.286 N 
HETATM   19  H5  UNL     1      28.592   0.452  53.025  1.00  0.00     0.184 HD
BRANCH  18  20
HETATM   20  C1  UNL     1      28.697   2.514  53.654  1.00  0.00     0.407 C 
BRANCH  20  21
HETATM   21  N1  UNL     1      29.532   1.979  54.708  1.00  0.00     0.097 N 
HETATM   22  H1  UNL     1      29.393   2.427  55.623  1.00  0.00     0.315 HD
HETATM   23  H2  UNL     1      29.437   0.954  54.811  1.00  0.00     0.315 HD
ENDBRANCH  20  21
ENDBRANCH  18  20
ENDBRANCH   1  18
TORSDOF 6
ENDMDL
MODEL 6
REMARK VINA RESULT:      -7.1      4.822      6.398
REMARK  6 active torsions:
REMARK  status: ('A' for Active; 'I' for Inactive)
REMARK    1  A    between atoms: N1_1  and  C1_2 
REMARK    2  A    between atoms: C1_2  and  N2_3 
REMARK    3  A    between atoms: N2_3  and  N3_4 
REMARK    4  A    between atoms: C2_5  and  C3_6 
REMARK    5  A    between atoms: C2_5  and  C11_14 
REMARK    6  A    between atoms: C4_7  and  C5_8 
ROOT
HETATM    1  N3  UNL     1      24.370   3.838  50.719  1.00  0.00    -0.177 NA
HETATM    2  C2  UNL     1      25.523   3.947  50.269  1.00  0.00     0.086 C 
ENDROOT
BRANCH   2   3
HETATM    3  C3  UNL     1      25.972   2.714  50.853  1.00  0.00     0.035 C 
HETATM    4  C4  UNL     1      26.779   2.114  51.665  1.00  0.00     0.014 C 
BRANCH   4   5
HETATM    5  C5  UNL     1      27.357   0.982  52.350  1.00  0.00    -0.036 A 
HETATM    6  C6  UNL     1      28.444   1.035  53.170  1.00  0.00     0.011 A 
HETATM    7  C7  UNL     1      28.795  -0.160  53.694  1.00  0.00     0.001 A 
HETATM    8  C8  UNL     1      28.113  -1.317  53.422  1.00  0.00     0.000 A 
HETATM    9  C9  UNL     1      27.015  -1.380  52.596  1.00  0.00     0.001 A 
HETATM   10  C10 UNL     1      26.628  -0.157  52.038  1.00  0.00     0.011 A 
ENDBRANCH   4   5
ENDBRANCH   2   3
BRANCH   2  11
HETATM   11  C11 UNL     1      26.207   4.917  49.464  1.00  0.00    -0.006 A 
HETATM   12  C12 UNL     1      27.473   4.597  49.044  1.00  0.00     0.015 A 
HETATM   13  C13 UNL     1      28.269   5.385  48.280  1.00  0.00     0.020 A 
HETATM   14  C14 UNL     1      27.788   6.604  47.885  1.00  0.00     0.011 A 
HETATM   15 BR1  UNL     1      28.861   7.754  46.812  1.00  0.00    -0.051 Br
HETATM   16  C15 UNL     1      26.529   6.988  48.270  1.00  0.00     0.020 A 
HETATM   17  C16 UNL     1      25.793   6.136  49.039  1.00  0.00     0.015 A 
ENDBRANCH   2  11
BRANCH   1  18
HETATM   18  N2  UNL     1      23.301   4.647  50.594  1.00  0.00    -0.286 N 
HETATM   19  H5  UNL     1      22.742   5.131  49.828  1.00  0.00     0.184 HD
BRANCH  18  20
HETATM   20  C1  UNL     1      22.867   4.865  51.966  1.00  0.00     0.407 C 
BRANCH  20  21
HETATM   21  N1  UNL     1      23.793   5.758  52.629  1.00  0.00     0.097 N 
HETATM   22  H1  UNL     1      24.756   5.405  52.679  1.00  0.00     0.315 HD
HETATM   23  H2  UNL     1      23.797   6.707  52.217  1.00  0.00     0.315 HD
ENDBRANCH  20  21
ENDBRANCH  18  20
ENDBRANCH   1  18
TORSDOF 6
ENDMDL
MODEL 7
REMARK VINA RESULT:      -7.1      4.014      6.780
REMARK  6 active torsions:
REMARK  status: ('A' for Active; 'I' for Inactive)
REMARK    1  A    between atoms: N1_1  and  C1_2 
REMARK    2  A    between atoms: C1_2  and  N2_3 
REMARK    3  A    between atoms: N2_3  and  N3_4 
REMARK    4  A    between atoms: C2_5  and  C3_6 
REMARK    5  A    between atoms: C2_5  and  C11_14 
REMARK    6  A    between atoms: C4_7  and  C5_8 
ROOT
HETATM    1  N3  UNL     1      26.352   2.063  52.444  1.00  0.00    -0.177 NA
HETATM    2  C2  UNL     1      25.635   2.581  51.571  1.00  0.00     0.086 C 
ENDROOT
BRANCH   2   3
HETATM    3  C3  UNL     1      24.528   1.703  51.820  1.00  0.00     0.035 C 
HETATM    4  C4  UNL     1      23.667   1.234  52.662  1.00  0.00     0.014 C 
BRANCH   4   5
HETATM    5  C5  UNL     1      22.559   0.414  53.095  1.00  0.00    -0.036 A 
HETATM    6  C6  UNL     1      21.270   0.556  52.675  1.00  0.00     0.011 A 
HETATM    7  C7  UNL     1      20.413  -0.332  53.224  1.00  0.00     0.001 A 
HETATM    8  C8  UNL     1      20.811  -1.288  54.122  1.00  0.00     0.000 A 
HETATM    9  C9  UNL     1      22.109  -1.437  54.552  1.00  0.00     0.001 A 
HETATM   10  C10 UNL     1      23.020  -0.531  54.000  1.00  0.00     0.011 A 
ENDBRANCH   4   5
ENDBRANCH   2   3
BRANCH   2  11
HETATM   11  C11 UNL     1      25.799   3.655  50.635  1.00  0.00    -0.006 A 
HETATM   12  C12 UNL     1      24.867   4.660  50.671  1.00  0.00     0.015 A 
HETATM   13  C13 UNL     1      24.859   5.752  49.866  1.00  0.00     0.020 A 
HETATM   14  C14 UNL     1      25.854   5.880  48.934  1.00  0.00     0.011 A 
HETATM   15 BR1  UNL     1      25.893   7.390  47.777  1.00  0.00    -0.051 Br
HETATM   16  C15 UNL     1      26.818   4.909  48.844  1.00  0.00     0.020 A 
HETATM   17  C16 UNL     1      26.754   3.843  49.691  1.00  0.00     0.015 A 
ENDBRANCH   2  11
BRANCH   1  18
HETATM   18  N2  UNL     1      27.608   2.354  52.832  1.00  0.00    -0.286 N 
HETATM   19  H5  UNL     1      28.260   3.194  52.886  1.00  0.00     0.184 HD
BRANCH  18  20
HETATM   20  C1  UNL     1      28.137   1.076  53.286  1.00  0.00     0.407 C 
BRANCH  20  21
HETATM   21  N1  UNL     1      29.522   1.236  53.672  1.00  0.00     0.097 N 
HETATM   22  H1  UNL     1      29.801   2.210  53.844  1.00  0.00     0.315 HD
HETATM   23  H2  UNL     1      29.778   0.656  54.491  1.00  0.00     0.315 HD
ENDBRANCH  20  21
ENDBRANCH  18  20
ENDBRANCH   1  18
TORSDOF 6
ENDMDL
MODEL 8
REMARK VINA RESULT:      -7.1      1.581      1.910
REMARK  6 active torsions:
REMARK  status: ('A' for Active; 'I' for Inactive)
REMARK    1  A    between atoms: N1_1  and  C1_2 
REMARK    2  A    between atoms: C1_2  and  N2_3 
REMARK    3  A    between atoms: N2_3  and  N3_4 
REMARK    4  A    between atoms: C2_5  and  C3_6 
REMARK    5  A    between atoms: C2_5  and  C11_14 
REMARK    6  A    between atoms: C4_7  and  C5_8 
ROOT
HETATM    1  N3  UNL     1      23.671   3.973  52.726  1.00  0.00    -0.177 NA
HETATM    2  C2  UNL     1      23.187   2.836  52.583  1.00  0.00     0.086 C 
ENDROOT
BRANCH   2   3
HETATM    3  C3  UNL     1      24.387   2.168  52.999  1.00  0.00     0.035 C 
HETATM    4  C4  UNL     1      25.380   1.401  52.689  1.00  0.00     0.014 C 
BRANCH   4   5
HETATM    5  C5  UNL     1      26.598   0.662  52.926  1.00  0.00    -0.036 A 
HETATM    6  C6  UNL     1      26.735  -0.687  52.785  1.00  0.00     0.011 A 
HETATM    7  C7  UNL     1      27.975  -1.144  53.066  1.00  0.00     0.001 A 
HETATM    8  C8  UNL     1      28.998  -0.320  53.458  1.00  0.00     0.000 A 
HETATM    9  C9  UNL     1      28.868   1.041  53.603  1.00  0.00     0.001 A 
HETATM   10  C10 UNL     1      27.594   1.545  53.318  1.00  0.00     0.011 A 
ENDBRANCH   4   5
ENDBRANCH   2   3
BRANCH   2  11
HETATM   11  C11 UNL     1      21.915   2.325  52.163  1.00  0.00    -0.006 A 
HETATM   12  C12 UNL     1      21.927   1.248  51.314  1.00  0.00     0.015 A 
HETATM   13  C13 UNL     1      20.828   0.631  50.813  1.00  0.00     0.020 A 
HETATM   14  C14 UNL     1      19.596   1.108  51.172  1.00  0.00     0.011 A 
HETATM   15 BR1  UNL     1      18.018   0.283  50.500  1.00  0.00    -0.051 Br
HETATM   16  C15 UNL     1      19.512   2.183  52.018  1.00  0.00     0.020 A 
HETATM   17  C16 UNL     1      20.665   2.746  52.477  1.00  0.00     0.015 A 
ENDBRANCH   2  11
BRANCH   1  18
HETATM   18  N2  UNL     1      23.127   5.188  52.521  1.00  0.00    -0.286 N 
HETATM   19  H5  UNL     1      22.319   5.779  52.882  1.00  0.00     0.184 HD
BRANCH  18  20
HETATM   20  C1  UNL     1      23.961   5.771  51.481  1.00  0.00     0.407 C 
BRANCH  20  21
HETATM   21  N1  UNL     1      24.403   7.085  51.895  1.00  0.00     0.097 N 
HETATM   22  H1  UNL     1      23.659   7.674  52.289  1.00  0.00     0.315 HD
HETATM   23  H2  UNL     1      25.197   7.049  52.557  1.00  0.00     0.315 HD
ENDBRANCH  20  21
ENDBRANCH  18  20
ENDBRANCH   1  18
TORSDOF 6
ENDMDL
MODEL 9
REMARK VINA RESULT:      -7.0      7.652      8.845
REMARK  6 active torsions:
REMARK  status: ('A' for Active; 'I' for Inactive)
REMARK    1  A    between atoms: N1_1  and  C1_2 
REMARK    2  A    between atoms: C1_2  and  N2_3 
REMARK    3  A    between atoms: N2_3  and  N3_4 
REMARK    4  A    between atoms: C2_5  and  C3_6 
REMARK    5  A    between atoms: C2_5  and  C11_14 
REMARK    6  A    between atoms: C4_7  and  C5_8 
ROOT
HETATM    1  N3  UNL     1      29.737   7.068  48.526  1.00  0.00    -0.177 NA
HETATM    2  C2  UNL     1      29.039   6.063  48.306  1.00  0.00     0.086 C 
ENDROOT
BRANCH   2   3
HETATM    3  C3  UNL     1      30.103   5.343  47.666  1.00  0.00     0.035 C 
HETATM    4  C4  UNL     1      31.372   5.221  47.452  1.00  0.00     0.014 C 
BRANCH   4   5
HETATM    5  C5  UNL     1      32.562   4.624  46.891  1.00  0.00    -0.036 A 
HETATM    6  C6  UNL     1      32.986   4.785  45.606  1.00  0.00     0.011 A 
HETATM    7  C7  UNL     1      34.129   4.124  45.320  1.00  0.00     0.001 A 
HETATM    8  C8  UNL     1      34.797   3.362  46.243  1.00  0.00     0.000 A 
HETATM    9  C9  UNL     1      34.375   3.195  47.541  1.00  0.00     0.001 A 
HETATM   10  C10 UNL     1      33.193   3.867  47.868  1.00  0.00     0.011 A 
ENDBRANCH   4   5
ENDBRANCH   2   3
BRANCH   2  11
HETATM   11  C11 UNL     1      27.676   5.702  48.569  1.00  0.00    -0.006 A 
HETATM   12  C12 UNL     1      27.446   4.427  49.019  1.00  0.00     0.015 A 
HETATM   13  C13 UNL     1      26.229   3.908  49.319  1.00  0.00     0.020 A 
HETATM   14  C14 UNL     1      25.128   4.707  49.166  1.00  0.00     0.011 A 
HETATM   15 BR1  UNL     1      23.394   4.032  49.572  1.00  0.00    -0.051 Br
HETATM   16  C15 UNL     1      25.287   5.993  48.719  1.00  0.00     0.020 A 
HETATM   17  C16 UNL     1      26.544   6.437  48.439  1.00  0.00     0.015 A 
ENDBRANCH   2  11
BRANCH   1  18
HETATM   18  N2  UNL     1      29.429   8.234  49.125  1.00  0.00    -0.286 N 
HETATM   19  H5  UNL     1      28.570   8.760  49.469  1.00  0.00     0.184 HD
BRANCH  18  20
HETATM   20  C1  UNL     1      30.719   8.885  49.300  1.00  0.00     0.407 C 
BRANCH  20  21
HETATM   21  N1  UNL     1      30.569  10.026  50.178  1.00  0.00     0.097 N 
HETATM   22  H1  UNL     1      29.813   9.929  50.867  1.00  0.00     0.315 HD
HETATM   23  H2  UNL     1      31.448  10.273  50.665  1.00  0.00     0.315 HD
ENDBRANCH  20  21
ENDBRANCH  18  20
ENDBRANCH   1  18
TORSDOF 6
ENDMDL
