MODEL 1
REMARK VINA RESULT:      -8.8      0.000      0.000
REMARK  8 active torsions:
REMARK  status: ('A' for Active; 'I' for Inactive)
REMARK    1  A    between atoms: C6_6  and  C7_7 
REMARK    2  A    between atoms: C7_7  and  N1_8 
REMARK    3  A    between atoms: N1_8  and  C8_9 
REMARK    4  A    between atoms: N1_8  and  C14_17 
REMARK    5  A    between atoms: C8_9  and  C9_11 
REMARK    6  A    between atoms: C13_15  and  N2_16 
REMARK    7  A    between atoms: C17_20  and  O1_21 
REMARK    8  A    between atoms: C20_24  and  O2_25 
ROOT
HETATM    1  N1  UNL     1      25.183   0.647  53.452  1.00  0.00    -0.336 N 
ENDROOT
BRANCH   1   2
HETATM    2  C7  UNL     1      25.287   2.072  53.280  1.00  0.00     0.171 C 
BRANCH   2   3
HETATM    3  C6  UNL     1      24.934   2.501  51.889  1.00  0.00    -0.006 A 
HETATM    4  C5  UNL     1      23.699   2.465  51.277  1.00  0.00     0.012 A 
HETATM    5  C4  UNL     1      23.542   2.902  49.996  1.00  0.00     0.001 A 
HETATM    6  C3  UNL     1      24.639   3.384  49.314  1.00  0.00     0.009 A 
HETATM    7  C2  UNL     1      25.881   3.437  49.887  1.00  0.00    -0.028 A 
HETATM    8  C1  UNL     1      27.043   3.973  49.098  1.00  0.00     0.051 C 
HETATM    9  C20 UNL     1      26.038   2.994  51.184  1.00  0.00     0.079 A 
BRANCH   9  10
HETATM   10  O2  UNL     1      27.315   3.076  51.696  1.00  0.00    -0.360 OA
HETATM   11  H20 UNL     1      27.974   2.326  51.789  1.00  0.00     0.217 HD
ENDBRANCH   9  10
ENDBRANCH   2   3
ENDBRANCH   1   2
BRANCH   1  12
HETATM   12  C8  UNL     1      26.479   0.028  53.303  1.00  0.00     0.093 C 
HETATM   13  S1  UNL     1      26.795  -0.711  51.849  1.00  0.00    -0.064 SA
BRANCH  12  14
HETATM   14  C9  UNL     1      27.662  -0.111  54.148  1.00  0.00     0.114 A 
HETATM   15  C10 UNL     1      28.599  -1.203  53.692  1.00  0.00    -0.009 A 
HETATM   16  C11 UNL     1      29.822  -0.764  53.396  1.00  0.00    -0.001 A 
HETATM   17  C12 UNL     1      29.808   0.687  53.633  1.00  0.00     0.020 A 
HETATM   18  C13 UNL     1      28.603   1.051  54.052  1.00  0.00    -0.003 A 
BRANCH  18  19
HETATM   19  N2  UNL     1      28.597   2.477  54.279  1.00  0.00    -0.305 NA
HETATM   20  H13 UNL     1      29.173   3.295  53.983  1.00  0.00     0.124 HD
HETATM   21  H14 UNL     1      29.306   3.119  53.858  1.00  0.00     0.124 HD
ENDBRANCH  18  19
ENDBRANCH  12  14
ENDBRANCH   1  12
BRANCH   1  22
HETATM   22  C14 UNL     1      23.941   0.030  53.702  1.00  0.00     0.035 A 
HETATM   23  C15 UNL     1      23.826  -0.771  54.810  1.00  0.00     0.032 A 
HETATM   24  C16 UNL     1      22.671  -1.429  55.157  1.00  0.00     0.039 A 
HETATM   25  C17 UNL     1      21.541  -1.311  54.387  1.00  0.00     0.065 A 
HETATM   26  C18 UNL     1      21.585  -0.523  53.263  1.00  0.00     0.039 A 
HETATM   27  C19 UNL     1      22.777   0.100  52.984  1.00  0.00     0.032 A 
BRANCH  25  28
HETATM   28  O1  UNL     1      20.354  -1.957  54.701  1.00  0.00    -0.361 OA
HETATM   29  H17 UNL     1      19.492  -1.433  54.764  1.00  0.00     0.217 HD
ENDBRANCH  25  28
ENDBRANCH   1  22
TORSDOF 8
ENDMDL
MODEL 2
REMARK VINA RESULT:      -8.7      1.701      4.519
REMARK  8 active torsions:
REMARK  status: ('A' for Active; 'I' for Inactive)
REMARK    1  A    between atoms: C6_6  and  C7_7 
REMARK    2  A    between atoms: C7_7  and  N1_8 
REMARK    3  A    between atoms: N1_8  and  C8_9 
REMARK    4  A    between atoms: N1_8  and  C14_17 
REMARK    5  A    between atoms: C8_9  and  C9_11 
REMARK    6  A    between atoms: C13_15  and  N2_16 
REMARK    7  A    between atoms: C17_20  and  O1_21 
REMARK    8  A    between atoms: C20_24  and  O2_25 
ROOT
HETATM    1  N1  UNL     1      24.048   1.191  53.170  1.00  0.00    -0.336 N 
ENDROOT
BRANCH   1   2
HETATM    2  C7  UNL     1      25.236   1.110  53.977  1.00  0.00     0.171 C 
BRANCH   2   3
HETATM    3  C6  UNL     1      26.169   0.037  53.504  1.00  0.00    -0.006 A 
HETATM    4  C5  UNL     1      25.852  -1.137  52.854  1.00  0.00     0.012 A 
HETATM    5  C4  UNL     1      26.827  -2.013  52.482  1.00  0.00     0.001 A 
HETATM    6  C3  UNL     1      28.143  -1.711  52.766  1.00  0.00     0.009 A 
HETATM    7  C2  UNL     1      28.497  -0.556  53.410  1.00  0.00    -0.028 A 
HETATM    8  C1  UNL     1      29.947  -0.276  53.693  1.00  0.00     0.051 C 
HETATM    9  C20 UNL     1      27.508   0.330  53.785  1.00  0.00     0.079 A 
BRANCH   9  10
HETATM   10  O2  UNL     1      27.937   1.470  54.429  1.00  0.00    -0.360 OA
HETATM   11  H20 UNL     1      28.810   1.599  54.905  1.00  0.00     0.217 HD
ENDBRANCH   9  10
ENDBRANCH   2   3
ENDBRANCH   1   2
BRANCH   1  12
HETATM   12  C8  UNL     1      24.218   2.175  52.125  1.00  0.00     0.093 C 
HETATM   13  S1  UNL     1      23.503   3.655  52.364  1.00  0.00    -0.064 SA
BRANCH  12  14
HETATM   14  C9  UNL     1      24.912   2.209  50.841  1.00  0.00     0.114 A 
HETATM   15  C10 UNL     1      24.202   3.038  49.799  1.00  0.00    -0.009 A 
HETATM   16  C11 UNL     1      24.934   4.053  49.337  1.00  0.00    -0.001 A 
HETATM   17  C12 UNL     1      26.221   3.988  50.045  1.00  0.00     0.020 A 
HETATM   18  C13 UNL     1      26.209   2.959  50.884  1.00  0.00    -0.003 A 
BRANCH  18  19
HETATM   19  N2  UNL     1      27.474   2.905  51.577  1.00  0.00    -0.305 NA
HETATM   20  H13 UNL     1      28.350   2.343  51.514  1.00  0.00     0.124 HD
HETATM   21  H14 UNL     1      28.228   2.227  51.324  1.00  0.00     0.124 HD
ENDBRANCH  18  19
ENDBRANCH  12  14
ENDBRANCH   1  12
BRANCH   1  22
HETATM   22  C14 UNL     1      22.916   0.401  53.452  1.00  0.00     0.035 A 
HETATM   23  C15 UNL     1      21.811   0.539  52.651  1.00  0.00     0.032 A 
HETATM   24  C16 UNL     1      20.649  -0.172  52.827  1.00  0.00     0.039 A 
HETATM   25  C17 UNL     1      20.535  -1.085  53.846  1.00  0.00     0.065 A 
HETATM   26  C18 UNL     1      21.605  -1.275  54.687  1.00  0.00     0.039 A 
HETATM   27  C19 UNL     1      22.730  -0.525  54.444  1.00  0.00     0.032 A 
BRANCH  25  28
HETATM   28  O1  UNL     1      19.382  -1.823  54.060  1.00  0.00    -0.361 OA
HETATM   29  H17 UNL     1      19.422  -2.689  54.581  1.00  0.00     0.217 HD
ENDBRANCH  25  28
ENDBRANCH   1  22
TORSDOF 8
ENDMDL
MODEL 3
REMARK VINA RESULT:      -8.3      1.876      2.530
REMARK  8 active torsions:
REMARK  status: ('A' for Active; 'I' for Inactive)
REMARK    1  A    between atoms: C6_6  and  C7_7 
REMARK    2  A    between atoms: C7_7  and  N1_8 
REMARK    3  A    between atoms: N1_8  and  C8_9 
REMARK    4  A    between atoms: N1_8  and  C14_17 
REMARK    5  A    between atoms: C8_9  and  C9_11 
REMARK    6  A    between atoms: C13_15  and  N2_16 
REMARK    7  A    between atoms: C17_20  and  O1_21 
REMARK    8  A    between atoms: C20_24  and  O2_25 
ROOT
HETATM    1  N1  UNL     1      24.356   0.523  52.656  1.00  0.00    -0.336 N 
ENDROOT
BRANCH   1   2
HETATM    2  C7  UNL     1      24.461   1.364  51.494  1.00  0.00     0.171 C 
BRANCH   2   3
HETATM    3  C6  UNL     1      23.927   2.742  51.744  1.00  0.00    -0.006 A 
HETATM    4  C5  UNL     1      24.038   3.501  52.889  1.00  0.00     0.012 A 
HETATM    5  C4  UNL     1      23.497   4.749  52.954  1.00  0.00     0.001 A 
HETATM    6  C3  UNL     1      22.832   5.249  51.854  1.00  0.00     0.009 A 
HETATM    7  C2  UNL     1      22.701   4.526  50.698  1.00  0.00    -0.028 A 
HETATM    8  C1  UNL     1      21.967   5.120  49.528  1.00  0.00     0.051 C 
HETATM    9  C20 UNL     1      23.250   3.262  50.635  1.00  0.00     0.079 A 
BRANCH   9  10
HETATM   10  O2  UNL     1      23.080   2.593  49.442  1.00  0.00    -0.360 OA
HETATM   11  H20 UNL     1      23.007   3.001  48.530  1.00  0.00     0.217 HD
ENDBRANCH   9  10
ENDBRANCH   2   3
ENDBRANCH   1   2
BRANCH   1  12
HETATM   12  C8  UNL     1      25.664   0.288  53.225  1.00  0.00     0.093 C 
HETATM   13  S1  UNL     1      26.364  -1.186  52.912  1.00  0.00    -0.064 SA
BRANCH  12  14
HETATM   14  C9  UNL     1      26.591   1.066  54.041  1.00  0.00     0.114 A 
HETATM   15  C10 UNL     1      27.490   0.214  54.903  1.00  0.00    -0.009 A 
HETATM   16  C11 UNL     1      28.788   0.388  54.653  1.00  0.00    -0.001 A 
HETATM   17  C12 UNL     1      28.870   1.392  53.581  1.00  0.00     0.020 A 
HETATM   18  C13 UNL     1      27.644   1.769  53.240  1.00  0.00    -0.003 A 
BRANCH  18  19
HETATM   19  N2  UNL     1      27.734   2.752  52.186  1.00  0.00    -0.305 NA
HETATM   20  H13 UNL     1      27.919   2.749  51.159  1.00  0.00     0.124 HD
HETATM   21  H14 UNL     1      27.939   2.498  51.193  1.00  0.00     0.124 HD
ENDBRANCH  18  19
ENDBRANCH  12  14
ENDBRANCH   1  12
BRANCH   1  22
HETATM   22  C14 UNL     1      23.112   0.024  53.089  1.00  0.00     0.035 A 
HETATM   23  C15 UNL     1      22.022   0.201  52.274  1.00  0.00     0.032 A 
HETATM   24  C16 UNL     1      20.758  -0.237  52.586  1.00  0.00     0.039 A 
HETATM   25  C17 UNL     1      20.518  -0.895  53.767  1.00  0.00     0.065 A 
HETATM   26  C18 UNL     1      21.564  -1.107  54.631  1.00  0.00     0.039 A 
HETATM   27  C19 UNL     1      22.797  -0.638  54.246  1.00  0.00     0.032 A 
BRANCH  25  28
HETATM   28  O1  UNL     1      19.259  -1.353  54.122  1.00  0.00    -0.361 OA
HETATM   29  H17 UNL     1      18.782  -0.959  54.922  1.00  0.00     0.217 HD
ENDBRANCH  25  28
ENDBRANCH   1  22
TORSDOF 8
ENDMDL
MODEL 4
REMARK VINA RESULT:      -8.3      2.479      5.135
REMARK  8 active torsions:
REMARK  status: ('A' for Active; 'I' for Inactive)
REMARK    1  A    between atoms: C6_6  and  C7_7 
REMARK    2  A    between atoms: C7_7  and  N1_8 
REMARK    3  A    between atoms: N1_8  and  C8_9 
REMARK    4  A    between atoms: N1_8  and  C14_17 
REMARK    5  A    between atoms: C8_9  and  C9_11 
REMARK    6  A    between atoms: C13_15  and  N2_16 
REMARK    7  A    between atoms: C17_20  and  O1_21 
REMARK    8  A    between atoms: C20_24  and  O2_25 
ROOT
HETATM    1  N1  UNL     1      24.213   1.200  53.128  1.00  0.00    -0.336 N 
ENDROOT
BRANCH   1   2
HETATM    2  C7  UNL     1      24.227   2.633  53.003  1.00  0.00     0.171 C 
BRANCH   2   3
HETATM    3  C6  UNL     1      24.835   3.082  51.710  1.00  0.00    -0.006 A 
HETATM    4  C5  UNL     1      26.117   2.860  51.253  1.00  0.00     0.012 A 
HETATM    5  C4  UNL     1      26.517   3.335  50.041  1.00  0.00     0.001 A 
HETATM    6  C3  UNL     1      25.620   4.045  49.270  1.00  0.00     0.009 A 
HETATM    7  C2  UNL     1      24.339   4.286  49.689  1.00  0.00    -0.028 A 
HETATM    8  C1  UNL     1      23.402   5.065  48.809  1.00  0.00     0.051 C 
HETATM    9  C20 UNL     1      23.936   3.804  50.917  1.00  0.00     0.079 A 
BRANCH   9  10
HETATM   10  O2  UNL     1      22.635   4.084  51.274  1.00  0.00    -0.360 OA
HETATM   11  H20 UNL     1      22.283   4.223  52.202  1.00  0.00     0.217 HD
ENDBRANCH   9  10
ENDBRANCH   2   3
ENDBRANCH   1   2
BRANCH   1  12
HETATM   12  C8  UNL     1      22.854   0.709  53.120  1.00  0.00     0.093 C 
HETATM   13  S1  UNL     1      22.135   0.513  51.635  1.00  0.00    -0.064 SA
BRANCH  12  14
HETATM   14  C9  UNL     1      21.896   0.302  54.144  1.00  0.00     0.114 A 
HETATM   15  C10 UNL     1      20.565  -0.132  53.581  1.00  0.00    -0.009 A 
HETATM   16  C11 UNL     1      20.241  -1.388  53.887  1.00  0.00    -0.001 A 
HETATM   17  C12 UNL     1      21.350  -1.914  54.697  1.00  0.00     0.020 A 
HETATM   18  C13 UNL     1      22.273  -0.971  54.840  1.00  0.00    -0.003 A 
BRANCH  18  19
HETATM   19  N2  UNL     1      23.359  -1.496  55.634  1.00  0.00    -0.305 NA
HETATM   20  H13 UNL     1      23.912  -2.379  55.673  1.00  0.00     0.124 HD
HETATM   21  H14 UNL     1      23.762  -2.447  55.481  1.00  0.00     0.124 HD
ENDBRANCH  18  19
ENDBRANCH  12  14
ENDBRANCH   1  12
BRANCH   1  22
HETATM   22  C14 UNL     1      25.407   0.465  53.261  1.00  0.00     0.035 A 
HETATM   23  C15 UNL     1      26.283   0.822  54.255  1.00  0.00     0.032 A 
HETATM   24  C16 UNL     1      27.479   0.186  54.482  1.00  0.00     0.039 A 
HETATM   25  C17 UNL     1      27.867  -0.873  53.699  1.00  0.00     0.065 A 
HETATM   26  C18 UNL     1      27.038  -1.285  52.684  1.00  0.00     0.039 A 
HETATM   27  C19 UNL     1      25.860  -0.596  52.522  1.00  0.00     0.032 A 
BRANCH  25  28
HETATM   28  O1  UNL     1      29.065  -1.543  53.892  1.00  0.00    -0.361 OA
HETATM   29  H17 UNL     1      29.068  -2.541  54.058  1.00  0.00     0.217 HD
ENDBRANCH  25  28
ENDBRANCH   1  22
TORSDOF 8
ENDMDL
MODEL 5
REMARK VINA RESULT:      -8.3      2.539      5.392
REMARK  8 active torsions:
REMARK  status: ('A' for Active; 'I' for Inactive)
REMARK    1  A    between atoms: C6_6  and  C7_7 
REMARK    2  A    between atoms: C7_7  and  N1_8 
REMARK    3  A    between atoms: N1_8  and  C8_9 
REMARK    4  A    between atoms: N1_8  and  C14_17 
REMARK    5  A    between atoms: C8_9  and  C9_11 
REMARK    6  A    between atoms: C13_15  and  N2_16 
REMARK    7  A    between atoms: C17_20  and  O1_21 
REMARK    8  A    between atoms: C20_24  and  O2_25 
ROOT
HETATM    1  N1  UNL     1      24.266   2.728  51.714  1.00  0.00    -0.336 N 
ENDROOT
BRANCH   1   2
HETATM    2  C7  UNL     1      25.058   2.607  52.908  1.00  0.00     0.171 C 
BRANCH   2   3
HETATM    3  C6  UNL     1      25.889   1.360  52.912  1.00  0.00    -0.006 A 
HETATM    4  C5  UNL     1      25.541   0.108  52.453  1.00  0.00     0.012 A 
HETATM    5  C4  UNL     1      26.422  -0.930  52.524  1.00  0.00     0.001 A 
HETATM    6  C3  UNL     1      27.672  -0.712  53.063  1.00  0.00     0.009 A 
HETATM    7  C2  UNL     1      28.054   0.517  53.529  1.00  0.00    -0.028 A 
HETATM    8  C1  UNL     1      29.430   0.700  54.106  1.00  0.00     0.051 C 
HETATM    9  C20 UNL     1      27.161   1.566  53.456  1.00  0.00     0.079 A 
BRANCH   9  10
HETATM   10  O2  UNL     1      27.613   2.774  53.944  1.00  0.00    -0.360 OA
HETATM   11  H20 UNL     1      28.513   3.186  53.787  1.00  0.00     0.217 HD
ENDBRANCH   9  10
ENDBRANCH   2   3
ENDBRANCH   1   2
BRANCH   1  12
HETATM   12  C8  UNL     1      24.887   3.649  50.791  1.00  0.00     0.093 C 
HETATM   13  S1  UNL     1      26.363   3.208  50.169  1.00  0.00    -0.064 SA
BRANCH  12  14
HETATM   14  C9  UNL     1      24.522   4.942  50.217  1.00  0.00     0.114 A 
HETATM   15  C10 UNL     1      23.351   4.866  49.268  1.00  0.00    -0.009 A 
HETATM   16  C11 UNL     1      22.314   5.617  49.640  1.00  0.00    -0.001 A 
HETATM   17  C12 UNL     1      22.710   6.272  50.896  1.00  0.00     0.020 A 
HETATM   18  C13 UNL     1      23.942   5.895  51.218  1.00  0.00    -0.003 A 
BRANCH  18  19
HETATM   19  N2  UNL     1      24.321   6.540  52.452  1.00  0.00    -0.305 NA
HETATM   20  H13 UNL     1      24.059   7.409  52.966  1.00  0.00     0.124 HD
HETATM   21  H14 UNL     1      23.904   7.444  52.769  1.00  0.00     0.124 HD
ENDBRANCH  18  19
ENDBRANCH  12  14
ENDBRANCH   1  12
BRANCH   1  22
HETATM   22  C14 UNL     1      23.053   2.026  51.566  1.00  0.00     0.035 A 
HETATM   23  C15 UNL     1      22.233   1.910  52.660  1.00  0.00     0.032 A 
HETATM   24  C16 UNL     1      21.029   1.248  52.642  1.00  0.00     0.039 A 
HETATM   25  C17 UNL     1      20.575   0.653  51.491  1.00  0.00     0.065 A 
HETATM   26  C18 UNL     1      21.346   0.731  50.357  1.00  0.00     0.039 A 
HETATM   27  C19 UNL     1      22.537   1.410  50.457  1.00  0.00     0.032 A 
BRANCH  25  28
HETATM   28  O1  UNL     1      19.367  -0.025  51.429  1.00  0.00    -0.361 OA
HETATM   29  H17 UNL     1      19.307  -0.984  51.741  1.00  0.00     0.217 HD
ENDBRANCH  25  28
ENDBRANCH   1  22
TORSDOF 8
ENDMDL
MODEL 6
REMARK VINA RESULT:      -8.2      3.032      6.940
REMARK  8 active torsions:
REMARK  status: ('A' for Active; 'I' for Inactive)
REMARK    1  A    between atoms: C6_6  and  C7_7 
REMARK    2  A    between atoms: C7_7  and  N1_8 
REMARK    3  A    between atoms: N1_8  and  C8_9 
REMARK    4  A    between atoms: N1_8  and  C14_17 
REMARK    5  A    between atoms: C8_9  and  C9_11 
REMARK    6  A    between atoms: C13_15  and  N2_16 
REMARK    7  A    between atoms: C17_20  and  O1_21 
REMARK    8  A    between atoms: C20_24  and  O2_25 
ROOT
HETATM    1  N1  UNL     1      24.239   2.842  51.660  1.00  0.00    -0.336 N 
ENDROOT
BRANCH   1   2
HETATM    2  C7  UNL     1      24.677   2.503  52.988  1.00  0.00     0.171 C 
BRANCH   2   3
HETATM    3  C6  UNL     1      25.621   1.340  52.992  1.00  0.00    -0.006 A 
HETATM    4  C5  UNL     1      25.388   0.057  52.545  1.00  0.00     0.012 A 
HETATM    5  C4  UNL     1      26.363  -0.893  52.615  1.00  0.00     0.001 A 
HETATM    6  C3  UNL     1      27.592  -0.554  53.141  1.00  0.00     0.009 A 
HETATM    7  C2  UNL     1      27.861   0.709  53.595  1.00  0.00    -0.028 A 
HETATM    8  C1  UNL     1      29.219   1.024  54.158  1.00  0.00     0.051 C 
HETATM    9  C20 UNL     1      26.873   1.669  53.523  1.00  0.00     0.079 A 
BRANCH   9  10
HETATM   10  O2  UNL     1      27.214   2.917  53.998  1.00  0.00    -0.360 OA
HETATM   11  H20 UNL     1      28.118   3.213  54.314  1.00  0.00     0.217 HD
ENDBRANCH   9  10
ENDBRANCH   2   3
ENDBRANCH   1   2
BRANCH   1  12
HETATM   12  C8  UNL     1      22.935   2.276  51.402  1.00  0.00     0.093 C 
HETATM   13  S1  UNL     1      21.673   2.849  52.319  1.00  0.00    -0.064 SA
BRANCH  12  14
HETATM   14  C9  UNL     1      22.406   1.279  50.476  1.00  0.00     0.114 A 
HETATM   15  C10 UNL     1      21.015   0.812  50.829  1.00  0.00    -0.009 A 
HETATM   16  C11 UNL     1      20.117   1.041  49.870  1.00  0.00    -0.001 A 
HETATM   17  C12 UNL     1      20.845   1.693  48.772  1.00  0.00     0.020 A 
HETATM   18  C13 UNL     1      22.122   1.827  49.110  1.00  0.00    -0.003 A 
BRANCH  18  19
HETATM   19  N2  UNL     1      22.828   2.470  48.027  1.00  0.00    -0.305 NA
HETATM   20  H13 UNL     1      23.529   3.236  47.928  1.00  0.00     0.124 HD
HETATM   21  H14 UNL     1      23.509   3.247  48.180  1.00  0.00     0.124 HD
ENDBRANCH  18  19
ENDBRANCH  12  14
ENDBRANCH   1  12
BRANCH   1  22
HETATM   22  C14 UNL     1      25.049   3.603  50.794  1.00  0.00     0.035 A 
HETATM   23  C15 UNL     1      24.724   4.920  50.590  1.00  0.00     0.032 A 
HETATM   24  C16 UNL     1      25.435   5.762  49.768  1.00  0.00     0.039 A 
HETATM   25  C17 UNL     1      26.538   5.309  49.090  1.00  0.00     0.065 A 
HETATM   26  C18 UNL     1      26.921   3.999  49.247  1.00  0.00     0.039 A 
HETATM   27  C19 UNL     1      26.159   3.222  50.087  1.00  0.00     0.032 A 
BRANCH  25  28
HETATM   28  O1  UNL     1      27.283   6.123  48.250  1.00  0.00    -0.361 OA
HETATM   29  H17 UNL     1      28.259   6.299  48.448  1.00  0.00     0.217 HD
ENDBRANCH  25  28
ENDBRANCH   1  22
TORSDOF 8
ENDMDL
MODEL 7
REMARK VINA RESULT:      -8.0      2.727      5.192
REMARK  8 active torsions:
REMARK  status: ('A' for Active; 'I' for Inactive)
REMARK    1  A    between atoms: C6_6  and  C7_7 
REMARK    2  A    between atoms: C7_7  and  N1_8 
REMARK    3  A    between atoms: N1_8  and  C8_9 
REMARK    4  A    between atoms: N1_8  and  C14_17 
REMARK    5  A    between atoms: C8_9  and  C9_11 
REMARK    6  A    between atoms: C13_15  and  N2_16 
REMARK    7  A    between atoms: C17_20  and  O1_21 
REMARK    8  A    between atoms: C20_24  and  O2_25 
ROOT
HETATM    1  N1  UNL     1      24.324   1.672  52.222  1.00  0.00    -0.336 N 
ENDROOT
BRANCH   1   2
HETATM    2  C7  UNL     1      24.288   3.110  52.199  1.00  0.00     0.171 C 
BRANCH   2   3
HETATM    3  C6  UNL     1      25.088   3.679  51.068  1.00  0.00    -0.006 A 
HETATM    4  C5  UNL     1      26.199   3.137  50.458  1.00  0.00     0.012 A 
HETATM    5  C4  UNL     1      26.814   3.783  49.428  1.00  0.00     0.001 A 
HETATM    6  C3  UNL     1      26.309   4.993  49.000  1.00  0.00     0.009 A 
HETATM    7  C2  UNL     1      25.208   5.564  49.580  1.00  0.00    -0.028 A 
HETATM    8  C1  UNL     1      24.699   6.884  49.072  1.00  0.00     0.051 C 
HETATM    9  C20 UNL     1      24.587   4.907  50.622  1.00  0.00     0.079 A 
BRANCH   9  10
HETATM   10  O2  UNL     1      23.485   5.539  51.157  1.00  0.00    -0.360 OA
HETATM   11  H20 UNL     1      23.043   5.336  52.034  1.00  0.00     0.217 HD
ENDBRANCH   9  10
ENDBRANCH   2   3
ENDBRANCH   1   2
BRANCH   1  12
HETATM   12  C8  UNL     1      23.071   1.132  51.750  1.00  0.00     0.093 C 
HETATM   13  S1  UNL     1      22.544   1.647  50.261  1.00  0.00    -0.064 SA
BRANCH  12  14
HETATM   14  C9  UNL     1      22.095   0.178  52.271  1.00  0.00     0.114 A 
HETATM   15  C10 UNL     1      22.616  -0.640  53.427  1.00  0.00    -0.009 A 
HETATM   16  C11 UNL     1      21.906  -0.493  54.546  1.00  0.00    -0.001 A 
HETATM   17  C12 UNL     1      20.827   0.455  54.227  1.00  0.00     0.020 A 
HETATM   18  C13 UNL     1      20.934   0.830  52.958  1.00  0.00    -0.003 A 
BRANCH  18  19
HETATM   19  N2  UNL     1      19.874   1.762  52.656  1.00  0.00    -0.305 NA
HETATM   20  H13 UNL     1      19.707   2.523  51.961  1.00  0.00     0.124 HD
HETATM   21  H14 UNL     1      19.939   2.460  51.880  1.00  0.00     0.124 HD
ENDBRANCH  18  19
ENDBRANCH  12  14
ENDBRANCH   1  12
BRANCH   1  22
HETATM   22  C14 UNL     1      25.460   0.976  52.682  1.00  0.00     0.035 A 
HETATM   23  C15 UNL     1      26.017   1.359  53.875  1.00  0.00     0.032 A 
HETATM   24  C16 UNL     1      27.125   0.761  54.425  1.00  0.00     0.039 A 
HETATM   25  C17 UNL     1      27.746  -0.282  53.785  1.00  0.00     0.065 A 
HETATM   26  C18 UNL     1      27.241  -0.718  52.584  1.00  0.00     0.039 A 
HETATM   27  C19 UNL     1      26.131  -0.067  52.102  1.00  0.00     0.032 A 
BRANCH  25  28
HETATM   28  O1  UNL     1      28.866  -0.914  54.304  1.00  0.00    -0.361 OA
HETATM   29  H17 UNL     1      29.679  -0.372  54.567  1.00  0.00     0.217 HD
ENDBRANCH  25  28
ENDBRANCH   1  22
TORSDOF 8
ENDMDL
MODEL 8
REMARK VINA RESULT:      -8.0      4.211      6.231
REMARK  8 active torsions:
REMARK  status: ('A' for Active; 'I' for Inactive)
REMARK    1  A    between atoms: C6_6  and  C7_7 
REMARK    2  A    between atoms: C7_7  and  N1_8 
REMARK    3  A    between atoms: N1_8  and  C8_9 
REMARK    4  A    between atoms: N1_8  and  C14_17 
REMARK    5  A    between atoms: C8_9  and  C9_11 
REMARK    6  A    between atoms: C13_15  and  N2_16 
REMARK    7  A    between atoms: C17_20  and  O1_21 
REMARK    8  A    between atoms: C20_24  and  O2_25 
ROOT
HETATM    1  N1  UNL     1      20.936   0.814  51.542  1.00  0.00    -0.336 N 
ENDROOT
BRANCH   1   2
HETATM    2  C7  UNL     1      21.349   0.582  50.184  1.00  0.00     0.171 C 
BRANCH   2   3
HETATM    3  C6  UNL     1      22.158   1.718  49.637  1.00  0.00    -0.006 A 
HETATM    4  C5  UNL     1      23.375   2.187  50.087  1.00  0.00     0.012 A 
HETATM    5  C4  UNL     1      23.989   3.235  49.470  1.00  0.00     0.001 A 
HETATM    6  C3  UNL     1      23.377   3.826  48.385  1.00  0.00     0.009 A 
HETATM    7  C2  UNL     1      22.170   3.389  47.909  1.00  0.00    -0.028 A 
HETATM    8  C1  UNL     1      21.548   4.069  46.721  1.00  0.00     0.051 C 
HETATM    9  C20 UNL     1      21.550   2.327  48.534  1.00  0.00     0.079 A 
BRANCH   9  10
HETATM   10  O2  UNL     1      20.339   1.942  48.002  1.00  0.00    -0.360 OA
HETATM   11  H20 UNL     1      19.937   2.251  47.137  1.00  0.00     0.217 HD
ENDBRANCH   9  10
ENDBRANCH   2   3
ENDBRANCH   1   2
BRANCH   1  12
HETATM   12  C8  UNL     1      19.866   1.783  51.583  1.00  0.00     0.093 C 
HETATM   13  S1  UNL     1      18.357   1.255  51.131  1.00  0.00    -0.064 SA
BRANCH  12  14
HETATM   14  C9  UNL     1      19.760   3.191  51.957  1.00  0.00     0.114 A 
HETATM   15  C10 UNL     1      21.036   3.754  52.534  1.00  0.00    -0.009 A 
HETATM   16  C11 UNL     1      21.526   4.782  51.840  1.00  0.00    -0.001 A 
HETATM   17  C12 UNL     1      20.602   4.998  50.716  1.00  0.00     0.020 A 
HETATM   18  C13 UNL     1      19.617   4.110  50.781  1.00  0.00    -0.003 A 
BRANCH  18  19
HETATM   19  N2  UNL     1      18.717   4.327  49.673  1.00  0.00    -0.305 NA
HETATM   20  H13 UNL     1      18.770   4.281  48.633  1.00  0.00     0.124 HD
HETATM   21  H14 UNL     1      19.010   4.216  48.677  1.00  0.00     0.124 HD
ENDBRANCH  18  19
ENDBRANCH  12  14
ENDBRANCH   1  12
BRANCH   1  22
HETATM   22  C14 UNL     1      21.565   0.159  52.620  1.00  0.00     0.035 A 
HETATM   23  C15 UNL     1      20.777  -0.509  53.523  1.00  0.00     0.032 A 
HETATM   24  C16 UNL     1      21.273  -1.181  54.614  1.00  0.00     0.039 A 
HETATM   25  C17 UNL     1      22.623  -1.218  54.860  1.00  0.00     0.065 A 
HETATM   26  C18 UNL     1      23.471  -0.570  53.994  1.00  0.00     0.039 A 
HETATM   27  C19 UNL     1      22.897   0.079  52.928  1.00  0.00     0.032 A 
BRANCH  25  28
HETATM   28  O1  UNL     1      23.164  -1.883  55.948  1.00  0.00    -0.361 OA
HETATM   29  H17 UNL     1      22.590  -2.088  56.755  1.00  0.00     0.217 HD
ENDBRANCH  25  28
ENDBRANCH   1  22
TORSDOF 8
ENDMDL
MODEL 9
REMARK VINA RESULT:      -8.0      3.280      7.314
REMARK  8 active torsions:
REMARK  status: ('A' for Active; 'I' for Inactive)
REMARK    1  A    between atoms: C6_6  and  C7_7 
REMARK    2  A    between atoms: C7_7  and  N1_8 
REMARK    3  A    between atoms: N1_8  and  C8_9 
REMARK    4  A    between atoms: N1_8  and  C14_17 
REMARK    5  A    between atoms: C8_9  and  C9_11 
REMARK    6  A    between atoms: C13_15  and  N2_16 
REMARK    7  A    between atoms: C17_20  and  O1_21 
REMARK    8  A    between atoms: C20_24  and  O2_25 
ROOT
HETATM    1  N1  UNL     1      23.396   4.108  50.892  1.00  0.00    -0.336 N 
ENDROOT
BRANCH   1   2
HETATM    2  C7  UNL     1      23.276   3.832  52.299  1.00  0.00     0.171 C 
BRANCH   2   3
HETATM    3  C6  UNL     1      23.426   2.373  52.604  1.00  0.00    -0.006 A 
HETATM    4  C5  UNL     1      22.532   1.355  52.347  1.00  0.00     0.012 A 
HETATM    5  C4  UNL     1      22.824   0.068  52.684  1.00  0.00     0.001 A 
HETATM    6  C3  UNL     1      24.033  -0.208  53.289  1.00  0.00     0.009 A 
HETATM    7  C2  UNL     1      24.947   0.775  53.561  1.00  0.00    -0.028 A 
HETATM    8  C1  UNL     1      26.249   0.418  54.221  1.00  0.00     0.051 C 
HETATM    9  C20 UNL     1      24.648   2.077  53.218  1.00  0.00     0.079 A 
BRANCH   9  10
HETATM   10  O2  UNL     1      25.614   3.013  53.520  1.00  0.00    -0.360 OA
HETATM   11  H20 UNL     1      26.591   2.843  53.666  1.00  0.00     0.217 HD
ENDBRANCH   9  10
ENDBRANCH   2   3
ENDBRANCH   1   2
BRANCH   1  12
HETATM   12  C8  UNL     1      22.088   4.233  50.291  1.00  0.00     0.093 C 
HETATM   13  S1  UNL     1      21.095   5.419  50.896  1.00  0.00    -0.064 SA
BRANCH  12  14
HETATM   14  C9  UNL     1      21.377   3.553  49.213  1.00  0.00     0.114 A 
HETATM   15  C10 UNL     1      22.275   2.706  48.344  1.00  0.00    -0.009 A 
HETATM   16  C11 UNL     1      21.938   1.417  48.327  1.00  0.00    -0.001 A 
HETATM   17  C12 UNL     1      20.763   1.287  49.201  1.00  0.00     0.020 A 
HETATM   18  C13 UNL     1      20.450   2.479  49.696  1.00  0.00    -0.003 A 
BRANCH  18  19
HETATM   19  N2  UNL     1      19.298   2.341  50.554  1.00  0.00    -0.305 NA
HETATM   20  H13 UNL     1      18.263   2.302  50.435  1.00  0.00     0.124 HD
HETATM   21  H14 UNL     1      18.319   2.329  50.189  1.00  0.00     0.124 HD
ENDBRANCH  18  19
ENDBRANCH  12  14
ENDBRANCH   1  12
BRANCH   1  22
HETATM   22  C14 UNL     1      24.657   4.200  50.270  1.00  0.00     0.035 A 
HETATM   23  C15 UNL     1      25.091   5.435  49.860  1.00  0.00     0.032 A 
HETATM   24  C16 UNL     1      26.298   5.651  49.240  1.00  0.00     0.039 A 
HETATM   25  C17 UNL     1      27.155   4.608  48.994  1.00  0.00     0.065 A 
HETATM   26  C18 UNL     1      26.784   3.342  49.379  1.00  0.00     0.039 A 
HETATM   27  C19 UNL     1      25.562   3.209  49.993  1.00  0.00     0.032 A 
BRANCH  25  28
HETATM   28  O1  UNL     1      28.381   4.781  48.371  1.00  0.00    -0.361 OA
HETATM   29  H17 UNL     1      28.667   4.156  47.630  1.00  0.00     0.217 HD
ENDBRANCH  25  28
ENDBRANCH   1  22
TORSDOF 8
ENDMDL
