MODEL 1
REMARK VINA RESULT:      -8.0      0.000      0.000
REMARK  7 active torsions:
REMARK  status: ('A' for Active; 'I' for Inactive)
REMARK    1  A    between atoms: O1_1  and  C1_2 
REMARK    2  A    between atoms: C1_2  and  C2_3 
REMARK    3  A    between atoms: C1_2  and  C4_7 
REMARK    4  A    between atoms: C2_3  and  N1_4 
REMARK    5  A    between atoms: N1_4  and  C3_5 
REMARK    6  A    between atoms: C7_10  and  N2_11 
REMARK    7  A    between atoms: N2_11  and  C8_12 
ROOT
HETATM    1  C4  UNL     1      25.740   4.531  49.636  1.00  0.00     0.016 A 
HETATM    2  C5  UNL     1      25.705   3.933  50.843  1.00  0.00     0.035 A 
HETATM    3  C6  UNL     1      24.528   3.430  51.327  1.00  0.00     0.047 A 
HETATM    4  C7  UNL     1      24.278   2.793  52.515  1.00  0.00     0.144 A 
HETATM    5  N3  UNL     1      23.063   2.355  52.845  1.00  0.00    -0.223 NA
HETATM    6  C14 UNL     1      21.995   2.499  52.051  1.00  0.00     0.236 A 
HETATM    7  N4  UNL     1      22.176   3.116  50.873  1.00  0.00    -0.234 NA
HETATM    8  C15 UNL     1      23.383   3.576  50.493  1.00  0.00     0.113 A 
HETATM    9  S1  UNL     1      24.045   4.455  49.001  1.00  0.00    -0.071 SA
ENDROOT
BRANCH   4  10
HETATM   10  N2  UNL     1      25.328   2.577  53.451  1.00  0.00    -0.321 N 
HETATM   11  H9  UNL     1      25.598   3.277  54.151  1.00  0.00     0.169 HD
BRANCH  10  12
HETATM   12  C8  UNL     1      26.074   1.366  53.474  1.00  0.00     0.148 C 
HETATM   13  C9  UNL     1      25.760   0.347  52.656  1.00  0.00     0.059 C 
HETATM   14  C10 UNL     1      26.423  -0.958  52.553  1.00  0.00     0.048 C 
HETATM   15  C11 UNL     1      27.626  -1.313  53.023  1.00  0.00     0.140 C 
HETATM   16  F2  UNL     1      27.965  -2.603  52.767  1.00  0.00    -0.204 F 
HETATM   17  C12 UNL     1      28.588  -0.472  53.764  1.00  0.00     0.095 C 
HETATM   18 CL1  UNL     1      30.205  -1.132  53.833  1.00  0.00    -0.079 Cl
HETATM   19  C13 UNL     1      28.352   0.703  54.367  1.00  0.00     0.171 C 
HETATM   20  O2  UNL     1      27.124   1.354  54.400  1.00  0.00    -0.304 OA
ENDBRANCH  10  12
ENDBRANCH   4  10
BRANCH   1  21
HETATM   21  C1  UNL     1      26.762   5.166  48.812  1.00  0.00     0.186 C 
BRANCH  21  22
HETATM   22  O1  UNL     1      27.999   4.803  49.333  1.00  0.00    -0.389 OA
HETATM   23  H1  UNL     1      27.866   4.448  50.263  1.00  0.00     0.210 HD
ENDBRANCH  21  22
BRANCH  21  24
HETATM   24  C2  UNL     1      26.565   6.647  48.729  1.00  0.00     0.309 C 
BRANCH  24  25
HETATM   25  N1  UNL     1      27.159   7.389  49.784  1.00  0.00     0.114 N 
HETATM   26  H5  UNL     1      28.185   7.483  49.622  1.00  0.00     0.319 HD
BRANCH  25  27
HETATM   27  C3  UNL     1      26.611   8.706  49.991  1.00  0.00     0.490 C 
HETATM   28  F1  UNL     1      27.487   9.426  50.782  1.00  0.00    -0.224 F 
ENDBRANCH  25  27
ENDBRANCH  24  25
ENDBRANCH  21  24
ENDBRANCH   1  21
TORSDOF 7
ENDMDL
MODEL 2
REMARK VINA RESULT:      -7.8      3.905      6.979
REMARK  7 active torsions:
REMARK  status: ('A' for Active; 'I' for Inactive)
REMARK    1  A    between atoms: O1_1  and  C1_2 
REMARK    2  A    between atoms: C1_2  and  C2_3 
REMARK    3  A    between atoms: C1_2  and  C4_7 
REMARK    4  A    between atoms: C2_3  and  N1_4 
REMARK    5  A    between atoms: N1_4  and  C3_5 
REMARK    6  A    between atoms: C7_10  and  N2_11 
REMARK    7  A    between atoms: N2_11  and  C8_12 
ROOT
HETATM    1  C4  UNL     1      20.920   0.236  53.218  1.00  0.00     0.016 A 
HETATM    2  C5  UNL     1      22.177   0.700  53.367  1.00  0.00     0.035 A 
HETATM    3  C6  UNL     1      22.774   1.404  52.358  1.00  0.00     0.047 A 
HETATM    4  C7  UNL     1      24.029   1.956  52.307  1.00  0.00     0.144 A 
HETATM    5  N3  UNL     1      24.470   2.622  51.240  1.00  0.00    -0.223 NA
HETATM    6  C14 UNL     1      23.733   2.804  50.138  1.00  0.00     0.236 A 
HETATM    7  N4  UNL     1      22.494   2.286  50.126  1.00  0.00    -0.234 NA
HETATM    8  C15 UNL     1      22.002   1.606  51.179  1.00  0.00     0.113 A 
HETATM    9  S1  UNL     1      20.399   0.758  51.563  1.00  0.00    -0.071 SA
ENDROOT
BRANCH   4  10
HETATM   10  N2  UNL     1      24.915   1.832  53.414  1.00  0.00    -0.321 N 
HETATM   11  H9  UNL     1      24.893   2.473  54.216  1.00  0.00     0.169 HD
BRANCH  10  12
HETATM   12  C8  UNL     1      25.894   0.802  53.478  1.00  0.00     0.148 C 
HETATM   13  C9  UNL     1      25.779  -0.306  52.727  1.00  0.00     0.059 C 
HETATM   14  C10 UNL     1      26.693  -1.453  52.673  1.00  0.00     0.048 C 
HETATM   15  C11 UNL     1      27.952  -1.526  53.122  1.00  0.00     0.140 C 
HETATM   16  F2  UNL     1      28.544  -2.733  52.926  1.00  0.00    -0.204 F 
HETATM   17  C12 UNL     1      28.736  -0.465  53.785  1.00  0.00     0.095 C 
HETATM   18 CL1  UNL     1      30.456  -0.776  53.838  1.00  0.00    -0.079 Cl
HETATM   19  C13 UNL     1      28.277   0.672  54.331  1.00  0.00     0.171 C 
HETATM   20  O2  UNL     1      26.942   1.059  54.369  1.00  0.00    -0.304 OA
ENDBRANCH  10  12
ENDBRANCH   4  10
BRANCH   1  21
HETATM   21  C1  UNL     1      19.982  -0.526  54.033  1.00  0.00     0.186 C 
BRANCH  21  22
HETATM   22  O1  UNL     1      20.702  -1.539  54.656  1.00  0.00    -0.389 OA
HETATM   23  H1  UNL     1      21.313  -1.127  55.339  1.00  0.00     0.210 HD
ENDBRANCH  21  22
BRANCH  21  24
HETATM   24  C2  UNL     1      18.827  -1.029  53.225  1.00  0.00     0.309 C 
BRANCH  24  25
HETATM   25  N1  UNL     1      17.806  -1.669  53.977  1.00  0.00     0.114 N 
HETATM   26  H5  UNL     1      16.908  -1.147  53.876  1.00  0.00     0.319 HD
BRANCH  25  27
HETATM   27  C3  UNL     1      17.568  -3.049  53.636  1.00  0.00     0.490 C 
HETATM   28  F1  UNL     1      16.460  -3.112  52.811  1.00  0.00    -0.224 F 
ENDBRANCH  25  27
ENDBRANCH  24  25
ENDBRANCH  21  24
ENDBRANCH   1  21
TORSDOF 7
ENDMDL
MODEL 3
REMARK VINA RESULT:      -7.7      3.787      6.561
REMARK  7 active torsions:
REMARK  status: ('A' for Active; 'I' for Inactive)
REMARK    1  A    between atoms: O1_1  and  C1_2 
REMARK    2  A    between atoms: C1_2  and  C2_3 
REMARK    3  A    between atoms: C1_2  and  C4_7 
REMARK    4  A    between atoms: C2_3  and  N1_4 
REMARK    5  A    between atoms: N1_4  and  C3_5 
REMARK    6  A    between atoms: C7_10  and  N2_11 
REMARK    7  A    between atoms: N2_11  and  C8_12 
ROOT
HETATM    1  C4  UNL     1      26.015  -0.178  53.203  1.00  0.00     0.016 A 
HETATM    2  C5  UNL     1      25.238   0.491  52.328  1.00  0.00     0.035 A 
HETATM    3  C6  UNL     1      23.894   0.604  52.550  1.00  0.00     0.047 A 
HETATM    4  C7  UNL     1      22.937   1.234  51.795  1.00  0.00     0.144 A 
HETATM    5  N3  UNL     1      21.652   1.257  52.150  1.00  0.00    -0.223 NA
HETATM    6  C14 UNL     1      21.192   0.672  53.263  1.00  0.00     0.236 A 
HETATM    7  N4  UNL     1      22.081   0.038  54.045  1.00  0.00    -0.234 NA
HETATM    8  C15 UNL     1      23.389  -0.013  53.730  1.00  0.00     0.113 A 
HETATM    9  S1  UNL     1      24.899  -0.758  54.507  1.00  0.00    -0.071 SA
ENDROOT
BRANCH   4  10
HETATM   10  N2  UNL     1      23.294   1.894  50.586  1.00  0.00    -0.321 N 
HETATM   11  H9  UNL     1      23.105   1.493  49.660  1.00  0.00     0.169 HD
BRANCH  10  12
HETATM   12  C8  UNL     1      23.941   3.161  50.587  1.00  0.00     0.148 C 
HETATM   13  C9  UNL     1      24.984   3.404  49.775  1.00  0.00     0.059 C 
HETATM   14  C10 UNL     1      25.755   4.646  49.652  1.00  0.00     0.048 C 
HETATM   15  C11 UNL     1      25.427   5.868  50.089  1.00  0.00     0.140 C 
HETATM   16  F2  UNL     1      26.355   6.824  49.822  1.00  0.00    -0.204 F 
HETATM   17  C12 UNL     1      24.199   6.270  50.807  1.00  0.00     0.095 C 
HETATM   18 CL1  UNL     1      23.921   7.996  50.833  1.00  0.00    -0.079 Cl
HETATM   19  C13 UNL     1      23.311   5.471  51.418  1.00  0.00     0.171 C 
HETATM   20  O2  UNL     1      23.394   4.085  51.485  1.00  0.00    -0.304 OA
ENDBRANCH  10  12
ENDBRANCH   4  10
BRANCH   1  21
HETATM   21  C1  UNL     1      27.433  -0.503  53.308  1.00  0.00     0.186 C 
BRANCH  21  22
HETATM   22  O1  UNL     1      27.544  -1.889  53.284  1.00  0.00    -0.389 OA
HETATM   23  H1  UNL     1      28.425  -2.148  53.692  1.00  0.00     0.210 HD
ENDBRANCH  21  22
BRANCH  21  24
HETATM   24  C2  UNL     1      28.056   0.121  54.517  1.00  0.00     0.309 C 
BRANCH  24  25
HETATM   25  N1  UNL     1      27.957   1.537  54.577  1.00  0.00     0.114 N 
HETATM   26  H5  UNL     1      28.256   1.876  55.517  1.00  0.00     0.319 HD
BRANCH  25  27
HETATM   27  C3  UNL     1      28.716   2.246  53.578  1.00  0.00     0.490 C 
HETATM   28  F1  UNL     1      27.846   2.686  52.598  1.00  0.00    -0.224 F 
ENDBRANCH  25  27
ENDBRANCH  24  25
ENDBRANCH  21  24
ENDBRANCH   1  21
TORSDOF 7
ENDMDL
MODEL 4
REMARK VINA RESULT:      -7.7      3.387      5.766
REMARK  7 active torsions:
REMARK  status: ('A' for Active; 'I' for Inactive)
REMARK    1  A    between atoms: O1_1  and  C1_2 
REMARK    2  A    between atoms: C1_2  and  C2_3 
REMARK    3  A    between atoms: C1_2  and  C4_7 
REMARK    4  A    between atoms: C2_3  and  N1_4 
REMARK    5  A    between atoms: N1_4  and  C3_5 
REMARK    6  A    between atoms: C7_10  and  N2_11 
REMARK    7  A    between atoms: N2_11  and  C8_12 
ROOT
HETATM    1  C4  UNL     1      21.463   0.867  51.604  1.00  0.00     0.016 A 
HETATM    2  C5  UNL     1      22.649   1.215  52.142  1.00  0.00     0.035 A 
HETATM    3  C6  UNL     1      23.517   2.006  51.439  1.00  0.00     0.047 A 
HETATM    4  C7  UNL     1      24.757   2.469  51.799  1.00  0.00     0.144 A 
HETATM    5  N3  UNL     1      25.488   3.240  50.994  1.00  0.00    -0.223 NA
HETATM    6  C14 UNL     1      25.077   3.624  49.779  1.00  0.00     0.236 A 
HETATM    7  N4  UNL     1      23.871   3.201  49.370  1.00  0.00    -0.234 NA
HETATM    8  C15 UNL     1      23.094   2.421  50.145  1.00  0.00     0.113 A 
HETATM    9  S1  UNL     1      21.420   1.645  49.969  1.00  0.00    -0.071 SA
ENDROOT
BRANCH   4  10
HETATM   10  N2  UNL     1      25.311   2.133  53.065  1.00  0.00    -0.321 N 
HETATM   11  H9  UNL     1      25.114   2.671  53.916  1.00  0.00     0.169 HD
BRANCH  10  12
HETATM   12  C8  UNL     1      26.180   1.018  53.231  1.00  0.00     0.148 C 
HETATM   13  C9  UNL     1      26.025  -0.092  52.490  1.00  0.00     0.059 C 
HETATM   14  C10 UNL     1      26.829  -1.319  52.534  1.00  0.00     0.048 C 
HETATM   15  C11 UNL     1      28.032  -1.499  53.093  1.00  0.00     0.140 C 
HETATM   16  F2  UNL     1      28.523  -2.759  52.968  1.00  0.00    -0.204 F 
HETATM   17  C12 UNL     1      28.853  -0.499  53.806  1.00  0.00     0.095 C 
HETATM   18 CL1  UNL     1      30.525  -0.966  54.014  1.00  0.00    -0.079 Cl
HETATM   19  C13 UNL     1      28.458   0.688  54.292  1.00  0.00     0.171 C 
HETATM   20  O2  UNL     1      27.167   1.198  54.206  1.00  0.00    -0.304 OA
ENDBRANCH  10  12
ENDBRANCH   4  10
BRANCH   1  21
HETATM   21  C1  UNL     1      20.317   0.070  52.025  1.00  0.00     0.186 C 
BRANCH  21  22
HETATM   22  O1  UNL     1      19.212   0.524  51.312  1.00  0.00    -0.389 OA
HETATM   23  H1  UNL     1      18.393   0.409  51.881  1.00  0.00     0.210 HD
ENDBRANCH  21  22
BRANCH  21  24
HETATM   24  C2  UNL     1      20.125   0.115  53.508  1.00  0.00     0.309 C 
BRANCH  24  25
HETATM   25  N1  UNL     1      20.164  -1.149  54.154  1.00  0.00     0.114 N 
HETATM   26  H5  UNL     1      19.720  -1.874  53.548  1.00  0.00     0.319 HD
BRANCH  25  27
HETATM   27  C3  UNL     1      21.479  -1.610  54.520  1.00  0.00     0.490 C 
HETATM   28  F1  UNL     1      22.212  -0.528  54.973  1.00  0.00    -0.224 F 
ENDBRANCH  25  27
ENDBRANCH  24  25
ENDBRANCH  21  24
ENDBRANCH   1  21
TORSDOF 7
ENDMDL
MODEL 5
REMARK VINA RESULT:      -7.5      3.061      6.824
REMARK  7 active torsions:
REMARK  status: ('A' for Active; 'I' for Inactive)
REMARK    1  A    between atoms: O1_1  and  C1_2 
REMARK    2  A    between atoms: C1_2  and  C2_3 
REMARK    3  A    between atoms: C1_2  and  C4_7 
REMARK    4  A    between atoms: C2_3  and  N1_4 
REMARK    5  A    between atoms: N1_4  and  C3_5 
REMARK    6  A    between atoms: C7_10  and  N2_11 
REMARK    7  A    between atoms: N2_11  and  C8_12 
ROOT
HETATM    1  C4  UNL     1      24.598   0.176  53.451  1.00  0.00     0.016 A 
HETATM    2  C5  UNL     1      24.482   1.483  53.140  1.00  0.00     0.035 A 
HETATM    3  C6  UNL     1      23.271   1.995  52.765  1.00  0.00     0.047 A 
HETATM    4  C7  UNL     1      22.941   3.279  52.412  1.00  0.00     0.144 A 
HETATM    5  N3  UNL     1      21.700   3.625  52.068  1.00  0.00    -0.223 NA
HETATM    6  C14 UNL     1      20.682   2.757  52.038  1.00  0.00     0.236 A 
HETATM    7  N4  UNL     1      20.942   1.483  52.373  1.00  0.00    -0.234 NA
HETATM    8  C15 UNL     1      22.177   1.083  52.728  1.00  0.00     0.113 A 
HETATM    9  S1  UNL     1      22.941  -0.525  53.246  1.00  0.00    -0.071 SA
ENDROOT
BRANCH   4  10
HETATM   10  N2  UNL     1      23.932   4.299  52.401  1.00  0.00    -0.321 N 
HETATM   11  H9  UNL     1      24.243   4.779  53.254  1.00  0.00     0.169 HD
BRANCH  10  12
HETATM   12  C8  UNL     1      24.562   4.720  51.196  1.00  0.00     0.148 C 
HETATM   13  C9  UNL     1      24.285   5.920  50.657  1.00  0.00     0.059 C 
HETATM   14  C10 UNL     1      24.842   6.502  49.431  1.00  0.00     0.048 C 
HETATM   15  C11 UNL     1      25.929   6.112  48.752  1.00  0.00     0.140 C 
HETATM   16  F2  UNL     1      26.191   6.857  47.646  1.00  0.00    -0.204 F 
HETATM   17  C12 UNL     1      26.840   4.995  49.073  1.00  0.00     0.095 C 
HETATM   18 CL1  UNL     1      28.368   5.056  48.225  1.00  0.00    -0.079 Cl
HETATM   19  C13 UNL     1      26.620   3.977  49.918  1.00  0.00     0.171 C 
HETATM   20  O2  UNL     1      25.459   3.790  50.661  1.00  0.00    -0.304 OA
ENDBRANCH  10  12
ENDBRANCH   4  10
BRANCH   1  21
HETATM   21  C1  UNL     1      25.677  -0.706  53.877  1.00  0.00     0.186 C 
BRANCH  21  22
HETATM   22  O1  UNL     1      25.426  -1.060  55.199  1.00  0.00    -0.389 OA
HETATM   23  H1  UNL     1      26.103  -0.608  55.787  1.00  0.00     0.210 HD
ENDBRANCH  21  22
BRANCH  21  24
HETATM   24  C2  UNL     1      27.020  -0.077  53.677  1.00  0.00     0.309 C 
BRANCH  24  25
HETATM   25  N1  UNL     1      28.121  -0.872  54.093  1.00  0.00     0.114 N 
HETATM   26  H5  UNL     1      28.121  -1.779  53.577  1.00  0.00     0.319 HD
BRANCH  25  27
HETATM   27  C3  UNL     1      29.415  -0.259  53.931  1.00  0.00     0.490 C 
HETATM   28  F1  UNL     1      30.377  -1.251  53.962  1.00  0.00    -0.224 F 
ENDBRANCH  25  27
ENDBRANCH  24  25
ENDBRANCH  21  24
ENDBRANCH   1  21
TORSDOF 7
ENDMDL
MODEL 6
REMARK VINA RESULT:      -7.4      4.254      7.242
REMARK  7 active torsions:
REMARK  status: ('A' for Active; 'I' for Inactive)
REMARK    1  A    between atoms: O1_1  and  C1_2 
REMARK    2  A    between atoms: C1_2  and  C2_3 
REMARK    3  A    between atoms: C1_2  and  C4_7 
REMARK    4  A    between atoms: C2_3  and  N1_4 
REMARK    5  A    between atoms: N1_4  and  C3_5 
REMARK    6  A    between atoms: C7_10  and  N2_11 
REMARK    7  A    between atoms: N2_11  and  C8_12 
ROOT
HETATM    1  C4  UNL     1      25.497  -0.143  54.185  1.00  0.00     0.016 A 
HETATM    2  C5  UNL     1      24.532   0.086  53.272  1.00  0.00     0.035 A 
HETATM    3  C6  UNL     1      23.254  -0.342  53.502  1.00  0.00     0.047 A 
HETATM    4  C7  UNL     1      22.138  -0.213  52.714  1.00  0.00     0.144 A 
HETATM    5  N3  UNL     1      20.949  -0.689  53.082  1.00  0.00    -0.223 NA
HETATM    6  C14 UNL     1      20.745  -1.327  54.241  1.00  0.00     0.236 A 
HETATM    7  N4  UNL     1      21.799  -1.486  55.056  1.00  0.00    -0.234 NA
HETATM    8  C15 UNL     1      23.021  -1.023  54.730  1.00  0.00     0.113 A 
HETATM    9  S1  UNL     1      24.688  -1.029  55.541  1.00  0.00    -0.071 SA
ENDROOT
BRANCH   4  10
HETATM   10  N2  UNL     1      22.219   0.445  51.454  1.00  0.00    -0.321 N 
HETATM   11  H9  UNL     1      22.299  -0.065  50.568  1.00  0.00     0.169 HD
BRANCH  10  12
HETATM   12  C8  UNL     1      22.192   1.864  51.347  1.00  0.00     0.148 C 
HETATM   13  C9  UNL     1      21.208   2.580  51.917  1.00  0.00     0.059 C 
HETATM   14  C10 UNL     1      21.035   4.037  51.902  1.00  0.00     0.048 C 
HETATM   15  C11 UNL     1      21.938   4.972  51.581  1.00  0.00     0.140 C 
HETATM   16  F2  UNL     1      21.473   6.246  51.664  1.00  0.00    -0.204 F 
HETATM   17  C12 UNL     1      23.339   4.767  51.161  1.00  0.00     0.095 C 
HETATM   18 CL1  UNL     1      24.327   6.207  51.245  1.00  0.00    -0.079 Cl
HETATM   19  C13 UNL     1      23.907   3.628  50.738  1.00  0.00     0.171 C 
HETATM   20  O2  UNL     1      23.256   2.405  50.616  1.00  0.00    -0.304 OA
ENDBRANCH  10  12
ENDBRANCH   4  10
BRANCH   1  21
HETATM   21  C1  UNL     1      26.922   0.147  54.296  1.00  0.00     0.186 C 
BRANCH  21  22
HETATM   22  O1  UNL     1      27.055   1.523  54.446  1.00  0.00    -0.389 OA
HETATM   23  H1  UNL     1      26.721   1.781  55.358  1.00  0.00     0.210 HD
ENDBRANCH  21  22
BRANCH  21  24
HETATM   24  C2  UNL     1      27.691  -0.399  53.135  1.00  0.00     0.309 C 
BRANCH  24  25
HETATM   25  N1  UNL     1      28.495  -1.532  53.431  1.00  0.00     0.114 N 
HETATM   26  H5  UNL     1      28.457  -2.213  52.641  1.00  0.00     0.319 HD
BRANCH  25  27
HETATM   27  C3  UNL     1      29.879  -1.244  53.713  1.00  0.00     0.490 C 
HETATM   28  F1  UNL     1      30.168   0.023  53.241  1.00  0.00    -0.224 F 
ENDBRANCH  25  27
ENDBRANCH  24  25
ENDBRANCH  21  24
ENDBRANCH   1  21
TORSDOF 7
ENDMDL
MODEL 7
REMARK VINA RESULT:      -7.4      4.485      6.443
REMARK  7 active torsions:
REMARK  status: ('A' for Active; 'I' for Inactive)
REMARK    1  A    between atoms: O1_1  and  C1_2 
REMARK    2  A    between atoms: C1_2  and  C2_3 
REMARK    3  A    between atoms: C1_2  and  C4_7 
REMARK    4  A    between atoms: C2_3  and  N1_4 
REMARK    5  A    between atoms: N1_4  and  C3_5 
REMARK    6  A    between atoms: C7_10  and  N2_11 
REMARK    7  A    between atoms: N2_11  and  C8_12 
ROOT
HETATM    1  C4  UNL     1      25.158   0.965  53.284  1.00  0.00     0.016 A 
HETATM    2  C5  UNL     1      23.899   1.315  52.952  1.00  0.00     0.035 A 
HETATM    3  C6  UNL     1      22.847   0.521  53.313  1.00  0.00     0.047 A 
HETATM    4  C7  UNL     1      21.506   0.693  53.078  1.00  0.00     0.144 A 
HETATM    5  N3  UNL     1      20.592  -0.181  53.500  1.00  0.00    -0.223 NA
HETATM    6  C14 UNL     1      20.903  -1.290  54.183  1.00  0.00     0.236 A 
HETATM    7  N4  UNL     1      22.201  -1.515  54.445  1.00  0.00    -0.234 NA
HETATM    8  C15 UNL     1      23.162  -0.663  54.040  1.00  0.00     0.113 A 
HETATM    9  S1  UNL     1      25.009  -0.598  54.187  1.00  0.00    -0.071 SA
ENDROOT
BRANCH   4  10
HETATM   10  N2  UNL     1      21.042   1.831  52.361  1.00  0.00    -0.321 N 
HETATM   11  H9  UNL     1      20.355   2.487  52.749  1.00  0.00     0.169 HD
BRANCH  10  12
HETATM   12  C8  UNL     1      21.507   2.131  51.050  1.00  0.00     0.148 C 
HETATM   13  C9  UNL     1      21.428   1.221  50.065  1.00  0.00     0.059 C 
HETATM   14  C10 UNL     1      21.856   1.369  48.670  1.00  0.00     0.048 C 
HETATM   15  C11 UNL     1      22.143   2.499  48.010  1.00  0.00     0.140 C 
HETATM   16  F2  UNL     1      22.514   2.309  46.717  1.00  0.00    -0.204 F 
HETATM   17  C12 UNL     1      22.097   3.881  48.527  1.00  0.00     0.095 C 
HETATM   18 CL1  UNL     1      22.113   5.109  47.282  1.00  0.00    -0.079 Cl
HETATM   19  C13 UNL     1      22.048   4.274  49.809  1.00  0.00     0.171 C 
HETATM   20  O2  UNL     1      22.030   3.421  50.907  1.00  0.00    -0.304 OA
ENDBRANCH  10  12
ENDBRANCH   4  10
BRANCH   1  21
HETATM   21  C1  UNL     1      26.488   1.528  53.086  1.00  0.00     0.186 C 
BRANCH  21  22
HETATM   22  O1  UNL     1      26.595   2.640  53.914  1.00  0.00    -0.389 OA
HETATM   23  H1  UNL     1      26.014   2.498  54.720  1.00  0.00     0.210 HD
ENDBRANCH  21  22
BRANCH  21  24
HETATM   24  C2  UNL     1      26.751   1.834  51.645  1.00  0.00     0.309 C 
BRANCH  24  25
HETATM   25  N1  UNL     1      26.773   3.217  51.322  1.00  0.00     0.114 N 
HETATM   26  H5  UNL     1      27.656   3.453  50.820  1.00  0.00     0.319 HD
BRANCH  25  27
HETATM   27  C3  UNL     1      25.664   3.677  50.525  1.00  0.00     0.490 C 
HETATM   28  F1  UNL     1      24.952   2.576  50.087  1.00  0.00    -0.224 F 
ENDBRANCH  25  27
ENDBRANCH  24  25
ENDBRANCH  21  24
ENDBRANCH   1  21
TORSDOF 7
ENDMDL
MODEL 8
REMARK VINA RESULT:      -7.3      4.024      7.399
REMARK  7 active torsions:
REMARK  status: ('A' for Active; 'I' for Inactive)
REMARK    1  A    between atoms: O1_1  and  C1_2 
REMARK    2  A    between atoms: C1_2  and  C2_3 
REMARK    3  A    between atoms: C1_2  and  C4_7 
REMARK    4  A    between atoms: C2_3  and  N1_4 
REMARK    5  A    between atoms: N1_4  and  C3_5 
REMARK    6  A    between atoms: C7_10  and  N2_11 
REMARK    7  A    between atoms: N2_11  and  C8_12 
ROOT
HETATM    1  C4  UNL     1      24.031  -0.612  54.132  1.00  0.00     0.016 A 
HETATM    2  C5  UNL     1      23.747   0.084  53.014  1.00  0.00     0.035 A 
HETATM    3  C6  UNL     1      22.448   0.265  52.628  1.00  0.00     0.047 A 
HETATM    4  C7  UNL     1      21.948   0.932  51.539  1.00  0.00     0.144 A 
HETATM    5  N3  UNL     1      20.640   1.022  51.297  1.00  0.00    -0.223 NA
HETATM    6  C14 UNL     1      19.713   0.473  52.092  1.00  0.00     0.236 A 
HETATM    7  N4  UNL     1      20.139  -0.195  53.175  1.00  0.00    -0.234 NA
HETATM    8  C15 UNL     1      21.449  -0.314  53.463  1.00  0.00     0.113 A 
HETATM    9  S1  UNL     1      22.431  -1.122  54.812  1.00  0.00    -0.071 SA
ENDROOT
BRANCH   4  10
HETATM   10  N2  UNL     1      22.829   1.560  50.614  1.00  0.00    -0.321 N 
HETATM   11  H9  UNL     1      23.359   1.035  49.910  1.00  0.00     0.169 HD
BRANCH  10  12
HETATM   12  C8  UNL     1      23.029   2.969  50.608  1.00  0.00     0.148 C 
HETATM   13  C9  UNL     1      23.328   3.628  51.741  1.00  0.00     0.059 C 
HETATM   14  C10 UNL     1      23.565   5.067  51.906  1.00  0.00     0.048 C 
HETATM   15  C11 UNL     1      23.817   5.976  50.956  1.00  0.00     0.140 C 
HETATM   16  F2  UNL     1      23.993   7.239  51.426  1.00  0.00    -0.204 F 
HETATM   17  C12 UNL     1      23.920   5.754  49.500  1.00  0.00     0.095 C 
HETATM   18 CL1  UNL     1      24.678   7.068  48.630  1.00  0.00    -0.079 Cl
HETATM   19  C13 UNL     1      23.506   4.684  48.804  1.00  0.00     0.171 C 
HETATM   20  O2  UNL     1      22.887   3.565  49.350  1.00  0.00    -0.304 OA
ENDBRANCH  10  12
ENDBRANCH   4  10
BRANCH   1  21
HETATM   21  C1  UNL     1      25.243  -1.004  54.842  1.00  0.00     0.186 C 
BRANCH  21  22
HETATM   22  O1  UNL     1      24.873  -1.342  56.139  1.00  0.00    -0.389 OA
HETATM   23  H1  UNL     1      25.369  -0.749  56.780  1.00  0.00     0.210 HD
ENDBRANCH  21  22
BRANCH  21  24
HETATM   24  C2  UNL     1      26.290   0.064  54.783  1.00  0.00     0.309 C 
BRANCH  24  25
HETATM   25  N1  UNL     1      27.568  -0.376  54.348  1.00  0.00     0.114 N 
HETATM   26  H5  UNL     1      27.966  -1.054  55.034  1.00  0.00     0.319 HD
BRANCH  25  27
HETATM   27  C3  UNL     1      27.593  -0.986  53.042  1.00  0.00     0.490 C 
HETATM   28  F1  UNL     1      27.073  -0.089  52.128  1.00  0.00    -0.224 F 
ENDBRANCH  25  27
ENDBRANCH  24  25
ENDBRANCH  21  24
ENDBRANCH   1  21
TORSDOF 7
ENDMDL
MODEL 9
REMARK VINA RESULT:      -7.3      3.055      3.683
REMARK  7 active torsions:
REMARK  status: ('A' for Active; 'I' for Inactive)
REMARK    1  A    between atoms: O1_1  and  C1_2 
REMARK    2  A    between atoms: C1_2  and  C2_3 
REMARK    3  A    between atoms: C1_2  and  C4_7 
REMARK    4  A    between atoms: C2_3  and  N1_4 
REMARK    5  A    between atoms: N1_4  and  C3_5 
REMARK    6  A    between atoms: C7_10  and  N2_11 
REMARK    7  A    between atoms: N2_11  and  C8_12 
ROOT
HETATM    1  C4  UNL     1      26.623   5.733  49.052  1.00  0.00     0.016 A 
HETATM    2  C5  UNL     1      25.788   4.714  49.339  1.00  0.00     0.035 A 
HETATM    3  C6  UNL     1      24.626   4.950  50.021  1.00  0.00     0.047 A 
HETATM    4  C7  UNL     1      23.651   4.066  50.410  1.00  0.00     0.144 A 
HETATM    5  N3  UNL     1      22.564   4.455  51.076  1.00  0.00    -0.223 NA
HETATM    6  C14 UNL     1      22.335   5.728  51.420  1.00  0.00     0.236 A 
HETATM    7  N4  UNL     1      23.255   6.641  51.068  1.00  0.00    -0.234 NA
HETATM    8  C15 UNL     1      24.369   6.300  50.394  1.00  0.00     0.113 A 
HETATM    9  S1  UNL     1      25.841   7.216  49.737  1.00  0.00    -0.071 SA
ENDROOT
BRANCH   4  10
HETATM   10  N2  UNL     1      23.774   2.681  50.107  1.00  0.00    -0.321 N 
HETATM   11  H9  UNL     1      23.849   2.329  49.147  1.00  0.00     0.169 HD
BRANCH  10  12
HETATM   12  C8  UNL     1      23.801   1.691  51.129  1.00  0.00     0.148 C 
HETATM   13  C9  UNL     1      24.923   1.455  51.831  1.00  0.00     0.059 C 
HETATM   14  C10 UNL     1      25.117   0.479  52.909  1.00  0.00     0.048 C 
HETATM   15  C11 UNL     1      24.182  -0.171  53.613  1.00  0.00     0.140 C 
HETATM   16  F2  UNL     1      24.680  -1.017  54.552  1.00  0.00    -0.204 F 
HETATM   17  C12 UNL     1      22.716  -0.063  53.479  1.00  0.00     0.095 C 
HETATM   18 CL1  UNL     1      21.825  -0.717  54.834  1.00  0.00    -0.079 Cl
HETATM   19  C13 UNL     1      22.024   0.466  52.458  1.00  0.00     0.171 C 
HETATM   20  O2  UNL     1      22.586   1.022  51.314  1.00  0.00    -0.304 OA
ENDBRANCH  10  12
ENDBRANCH   4  10
BRANCH   1  21
HETATM   21  C1  UNL     1      27.903   5.876  48.369  1.00  0.00     0.186 C 
BRANCH  21  22
HETATM   22  O1  UNL     1      28.850   5.178  49.112  1.00  0.00    -0.389 OA
HETATM   23  H1  UNL     1      28.399   4.786  49.920  1.00  0.00     0.210 HD
ENDBRANCH  21  22
BRANCH  21  24
HETATM   24  C2  UNL     1      28.260   7.313  48.154  1.00  0.00     0.309 C 
BRANCH  24  25
HETATM   25  N1  UNL     1      29.334   7.788  48.952  1.00  0.00     0.114 N 
HETATM   26  H5  UNL     1      30.241   7.625  48.463  1.00  0.00     0.319 HD
BRANCH  25  27
HETATM   27  C3  UNL     1      29.259   9.180  49.314  1.00  0.00     0.490 C 
HETATM   28  F1  UNL     1      30.514   9.597  49.717  1.00  0.00    -0.224 F 
ENDBRANCH  25  27
ENDBRANCH  24  25
ENDBRANCH  21  24
ENDBRANCH   1  21
TORSDOF 7
ENDMDL
