MODEL 1
REMARK VINA RESULT:      -8.0      0.000      0.000
REMARK  5 active torsions:
REMARK  status: ('A' for Active; 'I' for Inactive)
REMARK    1  A    between atoms: N2_4  and  C3_5 
REMARK    2  A    between atoms: C4_7  and  O1_8 
REMARK    3  A    between atoms: O1_8  and  C5_9 
REMARK    4  A    between atoms: C12_17  and  C13_18 
REMARK    5  A    between atoms: C13_18  and  C14_19 
ROOT
HETATM    1  C1  UNL     1      20.679  -1.868  54.213  1.00  0.00     0.042 C 
HETATM    2  C2  UNL     1      21.217  -0.695  53.935  1.00  0.00     0.042 C 
HETATM    3  N1  UNL     1      20.579   0.567  53.631  1.00  0.00    -0.299 N 
HETATM    4  N2  UNL     1      21.697   0.830  52.841  1.00  0.00    -0.258 N 
HETATM    5  C12 UNL     1      22.474   0.036  53.763  1.00  0.00     0.165 C 
HETATM    6  H3  UNL     1      19.679   1.078  53.881  1.00  0.00     0.187 HD
ENDROOT
BRANCH   4   7
HETATM    7  C3  UNL     1      21.913   1.572  51.645  1.00  0.00     0.190 A 
HETATM    8  N3  UNL     1      22.475   2.716  51.413  1.00  0.00    -0.198 NA
HETATM    9  C4  UNL     1      22.518   3.138  50.165  1.00  0.00     0.178 A 
HETATM   10  C11 UNL     1      21.989   2.408  49.109  1.00  0.00     0.111 A 
HETATM   11  S1  UNL     1      21.372   0.960  50.065  1.00  0.00    -0.058 SA
BRANCH   9  12
HETATM   12  O1  UNL     1      23.097   4.361  49.770  1.00  0.00    -0.291 OA
BRANCH  12  13
HETATM   13  C5  UNL     1      24.464   4.371  49.534  1.00  0.00     0.077 A 
HETATM   14  C6  UNL     1      25.390   3.360  49.704  1.00  0.00     0.037 A 
HETATM   15  C7  UNL     1      26.712   3.602  49.401  1.00  0.00     0.003 A 
HETATM   16  C8  UNL     1      27.137   4.826  48.934  1.00  0.00     0.000 A 
HETATM   17  C9  UNL     1      26.224   5.858  48.755  1.00  0.00     0.003 A 
HETATM   18  C10 UNL     1      24.888   5.613  49.061  1.00  0.00     0.037 A 
ENDBRANCH  12  13
ENDBRANCH   9  12
ENDBRANCH   4   7
BRANCH   5  19
HETATM   19  C13 UNL     1      23.626  -0.641  53.119  1.00  0.00     0.072 C 
BRANCH  19  20
HETATM   20  C14 UNL     1      24.942  -0.097  53.444  1.00  0.00    -0.056 A 
HETATM   21  C15 UNL     1      25.674  -0.228  54.605  1.00  0.00     0.008 A 
HETATM   22  C16 UNL     1      26.916   0.346  54.775  1.00  0.00     0.019 A 
HETATM   23  C17 UNL     1      27.499   1.091  53.780  1.00  0.00     0.011 A 
HETATM   24 BR1  UNL     1      29.207   1.885  54.006  1.00  0.00    -0.051 Br
HETATM   25  C18 UNL     1      26.824   1.264  52.592  1.00  0.00     0.019 A 
HETATM   26  C19 UNL     1      25.585   0.672  52.466  1.00  0.00     0.008 A 
ENDBRANCH  19  20
ENDBRANCH   5  19
TORSDOF 5
ENDMDL
MODEL 2
REMARK VINA RESULT:      -8.0      3.213      5.852
REMARK  5 active torsions:
REMARK  status: ('A' for Active; 'I' for Inactive)
REMARK    1  A    between atoms: N2_4  and  C3_5 
REMARK    2  A    between atoms: C4_7  and  O1_8 
REMARK    3  A    between atoms: O1_8  and  C5_9 
REMARK    4  A    between atoms: C12_17  and  C13_18 
REMARK    5  A    between atoms: C13_18  and  C14_19 
ROOT
HETATM    1  C1  UNL     1      29.202  -0.683  53.457  1.00  0.00     0.042 C 
HETATM    2  C2  UNL     1      28.060  -0.106  53.782  1.00  0.00     0.042 C 
HETATM    3  N1  UNL     1      27.304  -0.176  55.013  1.00  0.00    -0.299 N 
HETATM    4  N2  UNL     1      26.174  -0.006  54.214  1.00  0.00    -0.258 N 
HETATM    5  C12 UNL     1      26.989   0.776  53.315  1.00  0.00     0.165 C 
HETATM    6  H3  UNL     1      27.497  -0.299  56.052  1.00  0.00     0.187 HD
ENDROOT
BRANCH   4   7
HETATM    7  C3  UNL     1      24.823  -0.445  54.303  1.00  0.00     0.190 A 
HETATM    8  N3  UNL     1      23.821  -0.366  53.486  1.00  0.00    -0.198 NA
HETATM    9  C4  UNL     1      22.671  -0.882  53.873  1.00  0.00     0.178 A 
HETATM   10  C11 UNL     1      22.502  -1.497  55.107  1.00  0.00     0.111 A 
HETATM   11  S1  UNL     1      24.216  -1.285  55.748  1.00  0.00    -0.058 SA
BRANCH   9  12
HETATM   12  O1  UNL     1      21.500  -0.868  53.087  1.00  0.00    -0.291 OA
BRANCH  12  13
HETATM   13  C5  UNL     1      21.276   0.252  52.301  1.00  0.00     0.077 A 
HETATM   14  C6  UNL     1      21.462   0.423  50.944  1.00  0.00     0.037 A 
HETATM   15  C7  UNL     1      21.168   1.641  50.372  1.00  0.00     0.003 A 
HETATM   16  C8  UNL     1      20.693   2.697  51.119  1.00  0.00     0.000 A 
HETATM   17  C9  UNL     1      20.498   2.550  52.487  1.00  0.00     0.003 A 
HETATM   18  C10 UNL     1      20.795   1.318  53.063  1.00  0.00     0.037 A 
ENDBRANCH  12  13
ENDBRANCH   9  12
ENDBRANCH   4   7
BRANCH   5  19
HETATM   19  C13 UNL     1      26.541   0.691  51.903  1.00  0.00     0.072 C 
BRANCH  19  20
HETATM   20  C14 UNL     1      25.944   1.907  51.355  1.00  0.00    -0.056 A 
HETATM   21  C15 UNL     1      24.707   2.458  51.606  1.00  0.00     0.008 A 
HETATM   22  C16 UNL     1      24.270   3.622  51.011  1.00  0.00     0.019 A 
HETATM   23  C17 UNL     1      25.061   4.306  50.121  1.00  0.00     0.011 A 
HETATM   24 BR1  UNL     1      24.469   5.908  49.296  1.00  0.00    -0.051 Br
HETATM   25  C18 UNL     1      26.311   3.812  49.821  1.00  0.00     0.019 A 
HETATM   26  C19 UNL     1      26.706   2.646  50.440  1.00  0.00     0.008 A 
ENDBRANCH  19  20
ENDBRANCH   5  19
TORSDOF 5
ENDMDL
MODEL 3
REMARK VINA RESULT:      -7.8      3.031      5.891
REMARK  5 active torsions:
REMARK  status: ('A' for Active; 'I' for Inactive)
REMARK    1  A    between atoms: N2_4  and  C3_5 
REMARK    2  A    between atoms: C4_7  and  O1_8 
REMARK    3  A    between atoms: O1_8  and  C5_9 
REMARK    4  A    between atoms: C12_17  and  C13_18 
REMARK    5  A    between atoms: C13_18  and  C14_19 
ROOT
HETATM    1  C1  UNL     1      20.918   6.946  50.529  1.00  0.00     0.042 C 
HETATM    2  C2  UNL     1      21.817   6.201  51.147  1.00  0.00     0.042 C 
HETATM    3  N1  UNL     1      23.165   6.525  51.556  1.00  0.00    -0.299 N 
HETATM    4  N2  UNL     1      23.449   5.177  51.344  1.00  0.00    -0.258 N 
HETATM    5  C12 UNL     1      22.087   4.882  51.722  1.00  0.00     0.165 C 
HETATM    6  H3  UNL     1      23.709   7.383  51.874  1.00  0.00     0.187 HD
ENDROOT
BRANCH   4   7
HETATM    7  C3  UNL     1      24.608   4.461  50.931  1.00  0.00     0.190 A 
HETATM    8  N3  UNL     1      25.394   3.636  51.547  1.00  0.00    -0.198 NA
HETATM    9  C4  UNL     1      26.406   3.131  50.870  1.00  0.00     0.178 A 
HETATM   10  C11 UNL     1      26.654   3.450  49.541  1.00  0.00     0.111 A 
HETATM   11  S1  UNL     1      25.247   4.610  49.278  1.00  0.00    -0.058 SA
BRANCH   9  12
HETATM   12  O1  UNL     1      27.338   2.222  51.413  1.00  0.00    -0.291 OA
BRANCH  12  13
HETATM   13  C5  UNL     1      26.893   1.383  52.423  1.00  0.00     0.077 A 
HETATM   14  C6  UNL     1      26.766   1.629  53.776  1.00  0.00     0.037 A 
HETATM   15  C7  UNL     1      26.296   0.631  54.600  1.00  0.00     0.003 A 
HETATM   16  C8  UNL     1      25.950  -0.610  54.112  1.00  0.00     0.000 A 
HETATM   17  C9  UNL     1      26.070  -0.883  52.755  1.00  0.00     0.003 A 
HETATM   18  C10 UNL     1      26.544   0.128  51.922  1.00  0.00     0.037 A 
ENDBRANCH  12  13
ENDBRANCH   9  12
ENDBRANCH   4   7
BRANCH   5  19
HETATM   19  C13 UNL     1      21.548   3.673  51.053  1.00  0.00     0.072 C 
BRANCH  19  20
HETATM   20  C14 UNL     1      21.663   2.428  51.809  1.00  0.00    -0.056 A 
HETATM   21  C15 UNL     1      22.671   1.489  51.790  1.00  0.00     0.008 A 
HETATM   22  C16 UNL     1      22.647   0.348  52.565  1.00  0.00     0.019 A 
HETATM   23  C17 UNL     1      21.599   0.084  53.412  1.00  0.00     0.011 A 
HETATM   24 BR1  UNL     1      21.557  -1.482  54.480  1.00  0.00    -0.051 Br
HETATM   25  C18 UNL     1      20.555   0.980  53.481  1.00  0.00     0.019 A 
HETATM   26  C19 UNL     1      20.621   2.106  52.689  1.00  0.00     0.008 A 
ENDBRANCH  19  20
ENDBRANCH   5  19
TORSDOF 5
ENDMDL
MODEL 4
REMARK VINA RESULT:      -7.7      7.751     10.753
REMARK  5 active torsions:
REMARK  status: ('A' for Active; 'I' for Inactive)
REMARK    1  A    between atoms: N2_4  and  C3_5 
REMARK    2  A    between atoms: C4_7  and  O1_8 
REMARK    3  A    between atoms: O1_8  and  C5_9 
REMARK    4  A    between atoms: C12_17  and  C13_18 
REMARK    5  A    between atoms: C13_18  and  C14_19 
ROOT
HETATM    1  C1  UNL     1      28.065  11.892  48.088  1.00  0.00     0.042 C 
HETATM    2  C2  UNL     1      28.747  10.913  48.654  1.00  0.00     0.042 C 
HETATM    3  N1  UNL     1      29.957  10.964  49.444  1.00  0.00    -0.299 N 
HETATM    4  N2  UNL     1      30.235   9.702  48.920  1.00  0.00    -0.258 N 
HETATM    5  C12 UNL     1      28.812   9.466  48.866  1.00  0.00     0.165 C 
HETATM    6  H3  UNL     1      30.433  11.637  50.117  1.00  0.00     0.187 HD
ENDROOT
BRANCH   4   7
HETATM    7  C3  UNL     1      31.433   9.004  48.600  1.00  0.00     0.190 A 
HETATM    8  N3  UNL     1      31.980   7.933  49.081  1.00  0.00    -0.198 NA
HETATM    9  C4  UNL     1      33.121   7.534  48.554  1.00  0.00     0.178 A 
HETATM   10  C11 UNL     1      33.746   8.215  47.518  1.00  0.00     0.111 A 
HETATM   11  S1  UNL     1      32.519   9.573  47.310  1.00  0.00    -0.058 SA
BRANCH   9  12
HETATM   12  O1  UNL     1      33.824   6.388  48.980  1.00  0.00    -0.291 OA
BRANCH  12  13
HETATM   13  C5  UNL     1      33.591   5.208  48.291  1.00  0.00     0.077 A 
HETATM   14  C6  UNL     1      32.394   4.652  47.882  1.00  0.00     0.037 A 
HETATM   15  C7  UNL     1      32.406   3.454  47.203  1.00  0.00     0.003 A 
HETATM   16  C8  UNL     1      33.581   2.792  46.921  1.00  0.00     0.000 A 
HETATM   17  C9  UNL     1      34.797   3.330  47.322  1.00  0.00     0.003 A 
HETATM   18  C10 UNL     1      34.784   4.542  48.008  1.00  0.00     0.037 A 
ENDBRANCH  12  13
ENDBRANCH   9  12
ENDBRANCH   4   7
BRANCH   5  19
HETATM   19  C13 UNL     1      28.417   8.552  47.766  1.00  0.00     0.072 C 
BRANCH  19  20
HETATM   20  C14 UNL     1      27.961   7.226  48.178  1.00  0.00    -0.056 A 
HETATM   21  C15 UNL     1      28.627   6.021  48.120  1.00  0.00     0.008 A 
HETATM   22  C16 UNL     1      28.068   4.836  48.549  1.00  0.00     0.019 A 
HETATM   23  C17 UNL     1      26.797   4.793  49.066  1.00  0.00     0.011 A 
HETATM   24 BR1  UNL     1      26.020   3.168  49.658  1.00  0.00    -0.051 Br
HETATM   25  C18 UNL     1      26.072   5.962  49.154  1.00  0.00     0.019 A 
HETATM   26  C19 UNL     1      26.671   7.123  48.713  1.00  0.00     0.008 A 
ENDBRANCH  19  20
ENDBRANCH   5  19
TORSDOF 5
ENDMDL
MODEL 5
REMARK VINA RESULT:      -7.6      2.494      5.978
REMARK  5 active torsions:
REMARK  status: ('A' for Active; 'I' for Inactive)
REMARK    1  A    between atoms: N2_4  and  C3_5 
REMARK    2  A    between atoms: C4_7  and  O1_8 
REMARK    3  A    between atoms: O1_8  and  C5_9 
REMARK    4  A    between atoms: C12_17  and  C13_18 
REMARK    5  A    between atoms: C13_18  and  C14_19 
ROOT
HETATM    1  C1  UNL     1      21.078   3.620  48.458  1.00  0.00     0.042 C 
HETATM    2  C2  UNL     1      21.882   2.743  49.030  1.00  0.00     0.042 C 
HETATM    3  N1  UNL     1      21.671   1.340  49.312  1.00  0.00    -0.299 N 
HETATM    4  N2  UNL     1      22.507   1.536  50.410  1.00  0.00    -0.258 N 
HETATM    5  C12 UNL     1      23.197   2.545  49.642  1.00  0.00     0.165 C 
HETATM    6  H3  UNL     1      21.134   0.522  48.893  1.00  0.00     0.187 HD
ENDROOT
BRANCH   4   7
HETATM    7  C3  UNL     1      22.591   0.955  51.707  1.00  0.00     0.190 A 
HETATM    8  N3  UNL     1      23.540   0.325  52.326  1.00  0.00    -0.198 NA
HETATM    9  C4  UNL     1      23.299  -0.098  53.551  1.00  0.00     0.178 A 
HETATM   10  C11 UNL     1      22.083   0.105  54.189  1.00  0.00     0.111 A 
HETATM   11  S1  UNL     1      21.219   1.011  52.837  1.00  0.00    -0.058 SA
BRANCH   9  12
HETATM   12  O1  UNL     1      24.238  -0.795  54.338  1.00  0.00    -0.291 OA
BRANCH  12  13
HETATM   13  C5  UNL     1      25.573  -0.687  53.981  1.00  0.00     0.077 A 
HETATM   14  C6  UNL     1      26.260  -1.310  52.957  1.00  0.00     0.037 A 
HETATM   15  C7  UNL     1      27.602  -1.047  52.790  1.00  0.00     0.003 A 
HETATM   16  C8  UNL     1      28.279  -0.178  53.618  1.00  0.00     0.000 A 
HETATM   17  C9  UNL     1      27.610   0.460  54.655  1.00  0.00     0.003 A 
HETATM   18  C10 UNL     1      26.254   0.194  54.822  1.00  0.00     0.037 A 
ENDBRANCH  12  13
ENDBRANCH   9  12
ENDBRANCH   4   7
BRANCH   5  19
HETATM   19  C13 UNL     1      23.776   3.620  50.485  1.00  0.00     0.072 C 
BRANCH  19  20
HETATM   20  C14 UNL     1      24.870   4.377  49.880  1.00  0.00    -0.056 A 
HETATM   21  C15 UNL     1      24.904   5.700  49.497  1.00  0.00     0.008 A 
HETATM   22  C16 UNL     1      26.016   6.288  48.933  1.00  0.00     0.019 A 
HETATM   23  C17 UNL     1      27.169   5.573  48.721  1.00  0.00     0.011 A 
HETATM   24 BR1  UNL     1      28.704   6.374  47.946  1.00  0.00    -0.051 Br
HETATM   25  C18 UNL     1      27.207   4.244  49.080  1.00  0.00     0.019 A 
HETATM   26  C19 UNL     1      26.071   3.698  49.640  1.00  0.00     0.008 A 
ENDBRANCH  19  20
ENDBRANCH   5  19
TORSDOF 5
ENDMDL
MODEL 6
REMARK VINA RESULT:      -7.5      1.846      2.544
REMARK  5 active torsions:
REMARK  status: ('A' for Active; 'I' for Inactive)
REMARK    1  A    between atoms: N2_4  and  C3_5 
REMARK    2  A    between atoms: C4_7  and  O1_8 
REMARK    3  A    between atoms: O1_8  and  C5_9 
REMARK    4  A    between atoms: C12_17  and  C13_18 
REMARK    5  A    between atoms: C13_18  and  C14_19 
ROOT
HETATM    1  C1  UNL     1      20.078   0.179  51.907  1.00  0.00     0.042 C 
HETATM    2  C2  UNL     1      20.834   1.201  52.265  1.00  0.00     0.042 C 
HETATM    3  N1  UNL     1      20.455   2.544  52.646  1.00  0.00    -0.299 N 
HETATM    4  N2  UNL     1      21.675   2.938  52.099  1.00  0.00    -0.258 N 
HETATM    5  C12 UNL     1      22.207   1.654  52.489  1.00  0.00     0.165 C 
HETATM    6  H3  UNL     1      19.635   3.029  53.121  1.00  0.00     0.187 HD
ENDROOT
BRANCH   4   7
HETATM    7  C3  UNL     1      22.134   4.118  51.448  1.00  0.00     0.190 A 
HETATM    8  N3  UNL     1      23.251   4.772  51.505  1.00  0.00    -0.198 NA
HETATM    9  C4  UNL     1      23.368   5.854  50.760  1.00  0.00     0.178 A 
HETATM   10  C11 UNL     1      22.350   6.307  49.931  1.00  0.00     0.111 A 
HETATM   11  S1  UNL     1      21.105   4.999  50.296  1.00  0.00    -0.058 SA
BRANCH   9  12
HETATM   12  O1  UNL     1      24.524   6.660  50.723  1.00  0.00    -0.291 OA
BRANCH  12  13
HETATM   13  C5  UNL     1      25.588   6.211  49.956  1.00  0.00     0.077 A 
HETATM   14  C6  UNL     1      26.461   6.928  49.161  1.00  0.00     0.037 A 
HETATM   15  C7  UNL     1      27.455   6.260  48.481  1.00  0.00     0.003 A 
HETATM   16  C8  UNL     1      27.604   4.893  48.573  1.00  0.00     0.000 A 
HETATM   17  C9  UNL     1      26.739   4.150  49.366  1.00  0.00     0.003 A 
HETATM   18  C10 UNL     1      25.734   4.826  50.053  1.00  0.00     0.037 A 
ENDBRANCH  12  13
ENDBRANCH   9  12
ENDBRANCH   4   7
BRANCH   5  19
HETATM   19  C13 UNL     1      23.286   1.176  51.589  1.00  0.00     0.072 C 
BRANCH  19  20
HETATM   20  C14 UNL     1      24.593   0.985  52.213  1.00  0.00    -0.056 A 
HETATM   21  C15 UNL     1      25.824   1.461  51.816  1.00  0.00     0.008 A 
HETATM   22  C16 UNL     1      26.986   1.199  52.509  1.00  0.00     0.019 A 
HETATM   23  C17 UNL     1      26.978   0.439  53.653  1.00  0.00     0.011 A 
HETATM   24 BR1  UNL     1      28.573   0.074  54.613  1.00  0.00    -0.051 Br
HETATM   25  C18 UNL     1      25.782  -0.070  54.108  1.00  0.00     0.019 A 
HETATM   26  C19 UNL     1      24.645   0.217  53.383  1.00  0.00     0.008 A 
ENDBRANCH  19  20
ENDBRANCH   5  19
TORSDOF 5
ENDMDL
MODEL 7
REMARK VINA RESULT:      -7.4      3.092      4.787
REMARK  5 active torsions:
REMARK  status: ('A' for Active; 'I' for Inactive)
REMARK    1  A    between atoms: N2_4  and  C3_5 
REMARK    2  A    between atoms: C4_7  and  O1_8 
REMARK    3  A    between atoms: O1_8  and  C5_9 
REMARK    4  A    between atoms: C12_17  and  C13_18 
REMARK    5  A    between atoms: C13_18  and  C14_19 
ROOT
HETATM    1  C1  UNL     1      26.266   0.813  54.406  1.00  0.00     0.042 C 
HETATM    2  C2  UNL     1      25.707   0.911  53.214  1.00  0.00     0.042 C 
HETATM    3  N1  UNL     1      26.320   1.097  51.917  1.00  0.00    -0.299 N 
HETATM    4  N2  UNL     1      25.153   1.779  51.573  1.00  0.00    -0.258 N 
HETATM    5  C12 UNL     1      24.440   0.915  52.482  1.00  0.00     0.165 C 
HETATM    6  H3  UNL     1      27.231   0.842  51.430  1.00  0.00     0.187 HD
ENDROOT
BRANCH   4   7
HETATM    7  C3  UNL     1      24.860   2.859  50.693  1.00  0.00     0.190 A 
HETATM    8  N3  UNL     1      25.454   3.987  50.462  1.00  0.00    -0.198 NA
HETATM    9  C4  UNL     1      24.919   4.791  49.565  1.00  0.00     0.178 A 
HETATM   10  C11 UNL     1      23.759   4.473  48.871  1.00  0.00     0.111 A 
HETATM   11  S1  UNL     1      23.437   2.824  49.627  1.00  0.00    -0.058 SA
BRANCH   9  12
HETATM   12  O1  UNL     1      25.458   6.045  49.214  1.00  0.00    -0.291 OA
BRANCH  12  13
HETATM   13  C5  UNL     1      26.764   6.069  48.749  1.00  0.00     0.077 A 
HETATM   14  C6  UNL     1      27.671   5.034  48.629  1.00  0.00     0.037 A 
HETATM   15  C7  UNL     1      28.930   5.297  48.135  1.00  0.00     0.003 A 
HETATM   16  C8  UNL     1      29.310   6.566  47.758  1.00  0.00     0.000 A 
HETATM   17  C9  UNL     1      28.416   7.624  47.870  1.00  0.00     0.003 A 
HETATM   18  C10 UNL     1      27.144   7.357  48.368  1.00  0.00     0.037 A 
ENDBRANCH  12  13
ENDBRANCH   9  12
ENDBRANCH   4   7
BRANCH   5  19
HETATM   19  C13 UNL     1      23.252   1.565  53.089  1.00  0.00     0.072 C 
BRANCH  19  20
HETATM   20  C14 UNL     1      22.080   0.710  53.259  1.00  0.00    -0.056 A 
HETATM   21  C15 UNL     1      21.912  -0.381  54.085  1.00  0.00     0.008 A 
HETATM   22  C16 UNL     1      20.739  -1.103  54.143  1.00  0.00     0.019 A 
HETATM   23  C17 UNL     1      19.656  -0.766  53.368  1.00  0.00     0.011 A 
HETATM   24 BR1  UNL     1      18.039  -1.753  53.441  1.00  0.00    -0.051 Br
HETATM   25  C18 UNL     1      19.753   0.314  52.518  1.00  0.00     0.019 A 
HETATM   26  C19 UNL     1      20.945   1.006  52.493  1.00  0.00     0.008 A 
ENDBRANCH  19  20
ENDBRANCH   5  19
TORSDOF 5
ENDMDL
MODEL 8
REMARK VINA RESULT:      -7.3      3.128      6.970
REMARK  5 active torsions:
REMARK  status: ('A' for Active; 'I' for Inactive)
REMARK    1  A    between atoms: N2_4  and  C3_5 
REMARK    2  A    between atoms: C4_7  and  O1_8 
REMARK    3  A    between atoms: O1_8  and  C5_9 
REMARK    4  A    between atoms: C12_17  and  C13_18 
REMARK    5  A    between atoms: C13_18  and  C14_19 
ROOT
HETATM    1  C1  UNL     1      26.550   1.365  52.134  1.00  0.00     0.042 C 
HETATM    2  C2  UNL     1      25.508   2.175  52.171  1.00  0.00     0.042 C 
HETATM    3  N1  UNL     1      24.423   2.244  53.125  1.00  0.00    -0.299 N 
HETATM    4  N2  UNL     1      23.642   2.682  52.056  1.00  0.00    -0.258 N 
HETATM    5  C12 UNL     1      24.829   3.285  51.500  1.00  0.00     0.165 C 
HETATM    6  H3  UNL     1      24.269   2.055  54.160  1.00  0.00     0.187 HD
ENDROOT
BRANCH   4   7
HETATM    7  C3  UNL     1      22.265   2.553  51.717  1.00  0.00     0.190 A 
HETATM    8  N3  UNL     1      21.581   1.595  51.176  1.00  0.00    -0.198 NA
HETATM    9  C4  UNL     1      20.291   1.790  50.991  1.00  0.00     0.178 A 
HETATM   10  C11 UNL     1      19.651   2.969  51.350  1.00  0.00     0.111 A 
HETATM   11  S1  UNL     1      21.110   3.869  52.027  1.00  0.00    -0.058 SA
BRANCH   9  12
HETATM   12  O1  UNL     1      19.428   0.836  50.414  1.00  0.00    -0.291 OA
BRANCH  12  13
HETATM   13  C5  UNL     1      18.643   0.085  51.276  1.00  0.00     0.077 A 
HETATM   14  C6  UNL     1      18.955  -0.437  52.516  1.00  0.00     0.037 A 
HETATM   15  C7  UNL     1      18.003  -1.161  53.200  1.00  0.00     0.003 A 
HETATM   16  C8  UNL     1      16.746  -1.378  52.680  1.00  0.00     0.000 A 
HETATM   17  C9  UNL     1      16.408  -0.863  51.435  1.00  0.00     0.003 A 
HETATM   18  C10 UNL     1      17.371  -0.132  50.745  1.00  0.00     0.037 A 
ENDBRANCH  12  13
ENDBRANCH   9  12
ENDBRANCH   4   7
BRANCH   5  19
HETATM   19  C13 UNL     1      24.814   3.338  50.017  1.00  0.00     0.072 C 
BRANCH  19  20
HETATM   20  C14 UNL     1      25.626   4.390  49.413  1.00  0.00    -0.056 A 
HETATM   21  C15 UNL     1      25.259   5.664  49.035  1.00  0.00     0.008 A 
HETATM   22  C16 UNL     1      26.140   6.561  48.471  1.00  0.00     0.019 A 
HETATM   23  C17 UNL     1      27.455   6.227  48.253  1.00  0.00     0.011 A 
HETATM   24 BR1  UNL     1      28.674   7.455  47.477  1.00  0.00    -0.051 Br
HETATM   25  C18 UNL     1      27.892   4.970  48.606  1.00  0.00     0.019 A 
HETATM   26  C19 UNL     1      26.976   4.106  49.167  1.00  0.00     0.008 A 
ENDBRANCH  19  20
ENDBRANCH   5  19
TORSDOF 5
ENDMDL
MODEL 9
REMARK VINA RESULT:      -7.2      3.638      7.391
REMARK  5 active torsions:
REMARK  status: ('A' for Active; 'I' for Inactive)
REMARK    1  A    between atoms: N2_4  and  C3_5 
REMARK    2  A    between atoms: C4_7  and  O1_8 
REMARK    3  A    between atoms: O1_8  and  C5_9 
REMARK    4  A    between atoms: C12_17  and  C13_18 
REMARK    5  A    between atoms: C13_18  and  C14_19 
ROOT
HETATM    1  C1  UNL     1      26.338   4.886  48.999  1.00  0.00     0.042 C 
HETATM    2  C2  UNL     1      25.309   4.534  49.748  1.00  0.00     0.042 C 
HETATM    3  N1  UNL     1      25.158   4.563  51.186  1.00  0.00    -0.299 N 
HETATM    4  N2  UNL     1      24.318   3.463  51.022  1.00  0.00    -0.258 N 
HETATM    5  C12 UNL     1      23.945   4.003  49.736  1.00  0.00     0.165 C 
HETATM    6  H3  UNL     1      25.512   5.143  52.006  1.00  0.00     0.187 HD
ENDROOT
BRANCH   4   7
HETATM    7  C3  UNL     1      24.006   2.327  51.820  1.00  0.00     0.190 A 
HETATM    8  N3  UNL     1      24.735   1.378  52.317  1.00  0.00    -0.198 NA
HETATM    9  C4  UNL     1      24.131   0.448  53.031  1.00  0.00     0.178 A 
HETATM   10  C11 UNL     1      22.762   0.453  53.264  1.00  0.00     0.111 A 
HETATM   11  S1  UNL     1      22.337   1.985  52.332  1.00  0.00    -0.058 SA
BRANCH   9  12
HETATM   12  O1  UNL     1      24.800  -0.640  53.629  1.00  0.00    -0.291 OA
BRANCH  12  13
HETATM   13  C5  UNL     1      26.157  -0.496  53.871  1.00  0.00     0.077 A 
HETATM   14  C6  UNL     1      26.801   0.232  54.852  1.00  0.00     0.037 A 
HETATM   15  C7  UNL     1      28.178   0.227  54.899  1.00  0.00     0.003 A 
HETATM   16  C8  UNL     1      28.932  -0.486  53.992  1.00  0.00     0.000 A 
HETATM   17  C9  UNL     1      28.308  -1.226  52.996  1.00  0.00     0.003 A 
HETATM   18  C10 UNL     1      26.916  -1.220  52.950  1.00  0.00     0.037 A 
ENDBRANCH  12  13
ENDBRANCH   9  12
ENDBRANCH   4   7
BRANCH   5  19
HETATM   19  C13 UNL     1      23.583   2.955  48.750  1.00  0.00     0.072 C 
BRANCH  19  20
HETATM   20  C14 UNL     1      22.237   3.052  48.190  1.00  0.00    -0.056 A 
HETATM   21  C15 UNL     1      21.068   2.470  48.631  1.00  0.00     0.008 A 
HETATM   22  C16 UNL     1      19.857   2.650  47.997  1.00  0.00     0.019 A 
HETATM   23  C17 UNL     1      19.750   3.434  46.875  1.00  0.00     0.011 A 
HETATM   24 BR1  UNL     1      18.088   3.687  45.996  1.00  0.00    -0.051 Br
HETATM   25  C18 UNL     1      20.879   4.047  46.377  1.00  0.00     0.019 A 
HETATM   26  C19 UNL     1      22.068   3.838  47.043  1.00  0.00     0.008 A 
ENDBRANCH  19  20
ENDBRANCH   5  19
TORSDOF 5
ENDMDL
