MODEL 1
REMARK VINA RESULT:      -9.1      0.000      0.000
REMARK  5 active torsions:
REMARK  status: ('A' for Active; 'I' for Inactive)
REMARK    1  A    between atoms: C2_2  and  C3_3 
REMARK       I    between atoms: C3_3  and  N1_5 
REMARK    2  A    between atoms: N1_5  and  C4_6 
REMARK    3  A    between atoms: C8_10  and  N2_11 
REMARK    4  A    between atoms: N2_11  and  C9_12 
REMARK    5  A    between atoms: C18_23  and  N5_24 
ROOT
HETATM    1  C9  UNL     1      24.586   4.446  51.140  1.00  0.00     0.140 C 
HETATM    2  N3  UNL     1      25.369   3.926  50.231  1.00  0.00    -0.230 NA
HETATM    3  C10 UNL     1      26.316   4.783  49.443  1.00  0.00     0.070 A 
HETATM    4  C11 UNL     1      27.492   4.421  48.935  1.00  0.00     0.032 A 
HETATM    5  C12 UNL     1      28.223   5.371  48.249  1.00  0.00     0.002 A 
HETATM    6  C13 UNL     1      27.839   6.704  48.033  1.00  0.00     0.001 A 
HETATM    7  C14 UNL     1      26.642   7.210  48.509  1.00  0.00     0.014 A 
HETATM    8  C15 UNL     1      26.074   6.134  49.148  1.00  0.00     0.001 A 
HETATM    9  C16 UNL     1      24.951   6.924  49.540  1.00  0.00    -0.015 A 
HETATM   10  C17 UNL     1      24.163   7.939  49.609  1.00  0.00     0.136 A 
HETATM   11  N4  UNL     1      23.149   7.740  50.463  1.00  0.00    -0.199 NA
HETATM   12  C18 UNL     1      22.990   6.606  51.157  1.00  0.00     0.172 A 
HETATM   13  C19 UNL     1      23.907   5.702  50.942  1.00  0.00     0.050 A 
HETATM   14  N6  UNL     1      23.874   6.967  50.318  1.00  0.00     0.000 N 
ENDROOT
BRANCH   1  15
HETATM   15  N2  UNL     1      24.127   4.246  52.445  1.00  0.00    -0.340 N 
HETATM   16  H8  UNL     1      23.950   4.957  53.170  1.00  0.00     0.167 HD
BRANCH  15  17
HETATM   17  C8  UNL     1      24.010   2.836  52.560  1.00  0.00     0.035 A 
HETATM   18  C7  UNL     1      23.044   1.902  52.412  1.00  0.00     0.029 A 
HETATM   19  C6  UNL     1      23.203   0.562  52.542  1.00  0.00     0.004 A 
HETATM   20  C5  UNL     1      24.439   0.091  52.853  1.00  0.00     0.029 A 
HETATM   21  C4  UNL     1      25.510   0.924  53.033  1.00  0.00     0.037 A 
HETATM   22  C20 UNL     1      25.260   2.286  52.880  1.00  0.00     0.059 A 
BRANCH  21  23
HETATM   23  N1  UNL     1      26.869   0.547  53.343  1.00  0.00    -0.324 N 
HETATM   24  C3  UNL     1      27.562   0.352  54.602  1.00  0.00     0.241 C 
HETATM   25  O1  UNL     1      26.678   0.596  55.445  1.00  0.00    -0.269 OA
HETATM   26  H4  UNL     1      27.133   0.474  52.311  1.00  0.00     0.169 HD
BRANCH  24  27
HETATM   27  C2  UNL     1      28.920  -0.031  54.161  1.00  0.00     0.048 C 
HETATM   28  C1  UNL     1      29.832  -0.813  53.548  1.00  0.00     0.037 C 
ENDBRANCH  24  27
ENDBRANCH  21  23
ENDBRANCH  15  17
ENDBRANCH   1  15
BRANCH  12  29
HETATM   29  N5  UNL     1      22.227   5.793  52.061  1.00  0.00    -0.402 N 
HETATM   30  H14 UNL     1      22.065   4.785  52.275  1.00  0.00     0.152 HD
HETATM   31  H15 UNL     1      21.513   6.097  52.817  1.00  0.00     0.152 HD
ENDBRANCH  12  29
TORSDOF 5
ENDMDL
MODEL 2
REMARK VINA RESULT:      -8.7      2.578      8.065
REMARK  5 active torsions:
REMARK  status: ('A' for Active; 'I' for Inactive)
REMARK    1  A    between atoms: C2_2  and  C3_3 
REMARK       I    between atoms: C3_3  and  N1_5 
REMARK    2  A    between atoms: N1_5  and  C4_6 
REMARK    3  A    between atoms: C8_10  and  N2_11 
REMARK    4  A    between atoms: N2_11  and  C9_12 
REMARK    5  A    between atoms: C18_23  and  N5_24 
ROOT
HETATM    1  C9  UNL     1      24.677   1.320  52.649  1.00  0.00     0.140 C 
HETATM    2  N3  UNL     1      23.639   0.973  51.931  1.00  0.00    -0.230 NA
HETATM    3  C10 UNL     1      22.447   0.317  52.562  1.00  0.00     0.070 A 
HETATM    4  C11 UNL     1      21.180   0.401  52.161  1.00  0.00     0.032 A 
HETATM    5  C12 UNL     1      20.222  -0.273  52.893  1.00  0.00     0.002 A 
HETATM    6  C13 UNL     1      20.458  -1.050  54.038  1.00  0.00     0.001 A 
HETATM    7  C14 UNL     1      21.729  -1.219  54.560  1.00  0.00     0.014 A 
HETATM    8  C15 UNL     1      22.523  -0.488  53.710  1.00  0.00     0.001 A 
HETATM    9  C16 UNL     1      23.684  -0.801  54.479  1.00  0.00    -0.015 A 
HETATM   10  C17 UNL     1      24.410  -1.360  55.382  1.00  0.00     0.136 A 
HETATM   11  N4  UNL     1      25.668  -0.893  55.385  1.00  0.00    -0.199 NA
HETATM   12  C18 UNL     1      26.101   0.046  54.536  1.00  0.00     0.172 A 
HETATM   13  C19 UNL     1      25.198   0.484  53.700  1.00  0.00     0.050 A 
HETATM   14  N6  UNL     1      24.965  -0.506  54.678  1.00  0.00     0.000 N 
ENDROOT
BRANCH   1  15
HETATM   15  N2  UNL     1      25.575   2.371  52.852  1.00  0.00    -0.340 N 
HETATM   16  H8  UNL     1      26.040   2.647  53.730  1.00  0.00     0.167 HD
BRANCH  15  17
HETATM   17  C8  UNL     1      25.659   3.006  51.585  1.00  0.00     0.035 A 
HETATM   18  C7  UNL     1      26.417   2.905  50.470  1.00  0.00     0.029 A 
HETATM   19  C6  UNL     1      26.264   3.626  49.332  1.00  0.00     0.004 A 
HETATM   20  C5  UNL     1      25.263   4.544  49.287  1.00  0.00     0.029 A 
HETATM   21  C4  UNL     1      24.419   4.754  50.344  1.00  0.00     0.037 A 
HETATM   22  C20 UNL     1      24.646   3.970  51.473  1.00  0.00     0.059 A 
BRANCH  21  23
HETATM   23  N1  UNL     1      23.313   5.678  50.411  1.00  0.00    -0.324 N 
HETATM   24  C3  UNL     1      23.226   7.063  50.832  1.00  0.00     0.241 C 
HETATM   25  O1  UNL     1      24.399   7.328  51.157  1.00  0.00    -0.269 OA
HETATM   26  H4  UNL     1      22.625   4.953  50.037  1.00  0.00     0.169 HD
BRANCH  24  27
HETATM   27  C2  UNL     1      21.794   7.369  50.627  1.00  0.00     0.048 C 
HETATM   28  C1  UNL     1      20.749   8.026  50.084  1.00  0.00     0.037 C 
ENDBRANCH  24  27
ENDBRANCH  21  23
ENDBRANCH  15  17
ENDBRANCH   1  15
BRANCH  12  29
HETATM   29  N5  UNL     1      27.162   0.853  54.002  1.00  0.00    -0.402 N 
HETATM   30  H14 UNL     1      27.945   1.454  54.338  1.00  0.00     0.152 HD
HETATM   31  H15 UNL     1      27.395   1.078  52.969  1.00  0.00     0.152 HD
ENDBRANCH  12  29
TORSDOF 5
ENDMDL
MODEL 3
REMARK VINA RESULT:      -8.7      2.782      7.502
REMARK  5 active torsions:
REMARK  status: ('A' for Active; 'I' for Inactive)
REMARK    1  A    between atoms: C2_2  and  C3_3 
REMARK       I    between atoms: C3_3  and  N1_5 
REMARK    2  A    between atoms: N1_5  and  C4_6 
REMARK    3  A    between atoms: C8_10  and  N2_11 
REMARK    4  A    between atoms: N2_11  and  C9_12 
REMARK    5  A    between atoms: C18_23  and  N5_24 
ROOT
HETATM    1  C9  UNL     1      24.358   2.027  52.368  1.00  0.00     0.140 C 
HETATM    2  N3  UNL     1      23.331   1.376  51.887  1.00  0.00    -0.230 NA
HETATM    3  C10 UNL     1      22.574   0.393  52.730  1.00  0.00     0.070 A 
HETATM    4  C11 UNL     1      21.282   0.085  52.639  1.00  0.00     0.032 A 
HETATM    5  C12 UNL     1      20.771  -0.843  53.525  1.00  0.00     0.002 A 
HETATM    6  C13 UNL     1      21.495  -1.503  54.531  1.00  0.00     0.001 A 
HETATM    7  C14 UNL     1      22.845  -1.273  54.735  1.00  0.00     0.014 A 
HETATM    8  C15 UNL     1      23.158  -0.342  53.775  1.00  0.00     0.001 A 
HETATM    9  C16 UNL     1      24.509  -0.281  54.234  1.00  0.00    -0.015 A 
HETATM   10  C17 UNL     1      25.562  -0.586  54.907  1.00  0.00     0.136 A 
HETATM   11  N4  UNL     1      26.586   0.241  54.652  1.00  0.00    -0.199 NA
HETATM   12  C18 UNL     1      26.505   1.261  53.789  1.00  0.00     0.172 A 
HETATM   13  C19 UNL     1      25.340   1.397  53.214  1.00  0.00     0.050 A 
HETATM   14  N6  UNL     1      25.653   0.391  54.151  1.00  0.00     0.000 N 
ENDROOT
BRANCH   1  15
HETATM   15  N2  UNL     1      24.925   3.303  52.428  1.00  0.00    -0.340 N 
HETATM   16  H8  UNL     1      25.461   3.724  53.201  1.00  0.00     0.167 HD
BRANCH  15  17
HETATM   17  C8  UNL     1      24.547   3.908  51.200  1.00  0.00     0.035 A 
HETATM   18  C7  UNL     1      23.399   4.233  50.563  1.00  0.00     0.029 A 
HETATM   19  C6  UNL     1      23.302   4.870  49.369  1.00  0.00     0.004 A 
HETATM   20  C5  UNL     1      24.451   5.220  48.736  1.00  0.00     0.029 A 
HETATM   21  C4  UNL     1      25.685   4.951  49.265  1.00  0.00     0.037 A 
HETATM   22  C20 UNL     1      25.695   4.297  50.494  1.00  0.00     0.059 A 
BRANCH  21  23
HETATM   23  N1  UNL     1      26.971   5.289  48.702  1.00  0.00    -0.324 N 
HETATM   24  C3  UNL     1      27.679   6.548  48.577  1.00  0.00     0.241 C 
HETATM   25  O1  UNL     1      26.891   7.361  49.097  1.00  0.00    -0.269 OA
HETATM   26  H4  UNL     1      27.171   4.275  48.433  1.00  0.00     0.169 HD
BRANCH  24  27
HETATM   27  C2  UNL     1      28.934   6.143  47.909  1.00  0.00     0.048 C 
HETATM   28  C1  UNL     1      30.111   5.492  47.808  1.00  0.00     0.037 C 
ENDBRANCH  24  27
ENDBRANCH  21  23
ENDBRANCH  15  17
ENDBRANCH   1  15
BRANCH  12  29
HETATM   29  N5  UNL     1      27.118   2.349  53.080  1.00  0.00    -0.402 N 
HETATM   30  H14 UNL     1      26.960   2.925  52.225  1.00  0.00     0.152 HD
HETATM   31  H15 UNL     1      28.045   2.868  53.293  1.00  0.00     0.152 HD
ENDBRANCH  12  29
TORSDOF 5
ENDMDL
MODEL 4
REMARK VINA RESULT:      -8.6      2.143      3.773
REMARK  5 active torsions:
REMARK  status: ('A' for Active; 'I' for Inactive)
REMARK    1  A    between atoms: C2_2  and  C3_3 
REMARK       I    between atoms: C3_3  and  N1_5 
REMARK    2  A    between atoms: N1_5  and  C4_6 
REMARK    3  A    between atoms: C8_10  and  N2_11 
REMARK    4  A    between atoms: N2_11  and  C9_12 
REMARK    5  A    between atoms: C18_23  and  N5_24 
ROOT
HETATM    1  C9  UNL     1      24.134   4.718  50.904  1.00  0.00     0.140 C 
HETATM    2  N3  UNL     1      24.917   4.097  50.060  1.00  0.00    -0.230 NA
HETATM    3  C10 UNL     1      26.072   4.804  49.412  1.00  0.00     0.070 A 
HETATM    4  C11 UNL     1      27.222   4.264  49.014  1.00  0.00     0.032 A 
HETATM    5  C12 UNL     1      28.167   5.096  48.448  1.00  0.00     0.002 A 
HETATM    6  C13 UNL     1      28.032   6.479  48.249  1.00  0.00     0.001 A 
HETATM    7  C14 UNL     1      26.888   7.165  48.619  1.00  0.00     0.014 A 
HETATM    8  C15 UNL     1      26.086   6.184  49.150  1.00  0.00     0.001 A 
HETATM    9  C16 UNL     1      25.071   7.140  49.457  1.00  0.00    -0.015 A 
HETATM   10  C17 UNL     1      24.456   8.269  49.486  1.00  0.00     0.136 A 
HETATM   11  N4  UNL     1      23.336   8.220  50.221  1.00  0.00    -0.199 NA
HETATM   12  C18 UNL     1      22.918   7.112  50.845  1.00  0.00     0.172 A 
HETATM   13  C19 UNL     1      23.695   6.074  50.689  1.00  0.00     0.050 A 
HETATM   14  N6  UNL     1      23.936   7.341  50.119  1.00  0.00     0.000 N 
ENDROOT
BRANCH   1  15
HETATM   15  N2  UNL     1      23.509   4.566  52.144  1.00  0.00    -0.340 N 
HETATM   16  H8  UNL     1      22.983   5.273  52.680  1.00  0.00     0.167 HD
BRANCH  15  17
HETATM   17  C8  UNL     1      23.808   3.231  52.523  1.00  0.00     0.035 A 
HETATM   18  C7  UNL     1      24.889   2.535  52.942  1.00  0.00     0.029 A 
HETATM   19  C6  UNL     1      24.906   1.225  53.295  1.00  0.00     0.004 A 
HETATM   20  C5  UNL     1      23.743   0.528  53.225  1.00  0.00     0.029 A 
HETATM   21  C4  UNL     1      22.571   1.106  52.814  1.00  0.00     0.037 A 
HETATM   22  C20 UNL     1      22.641   2.454  52.472  1.00  0.00     0.059 A 
BRANCH  21  23
HETATM   23  N1  UNL     1      21.274   0.481  52.717  1.00  0.00    -0.324 N 
HETATM   24  C3  UNL     1      20.336   0.025  53.724  1.00  0.00     0.241 C 
HETATM   25  O1  UNL     1      20.918   0.301  54.790  1.00  0.00    -0.269 OA
HETATM   26  H4  UNL     1      21.295   0.497  51.650  1.00  0.00     0.169 HD
BRANCH  24  27
HETATM   27  C2  UNL     1      19.222  -0.501  52.907  1.00  0.00     0.048 C 
HETATM   28  C1  UNL     1      17.970  -0.955  52.692  1.00  0.00     0.037 C 
ENDBRANCH  24  27
ENDBRANCH  21  23
ENDBRANCH  15  17
ENDBRANCH   1  15
BRANCH  12  29
HETATM   29  N5  UNL     1      21.939   6.415  51.631  1.00  0.00    -0.402 N 
HETATM   30  H14 UNL     1      21.833   6.011  52.586  1.00  0.00     0.152 HD
HETATM   31  H15 UNL     1      20.952   6.072  51.345  1.00  0.00     0.152 HD
ENDBRANCH  12  29
TORSDOF 5
ENDMDL
MODEL 5
REMARK VINA RESULT:      -8.5      4.159      6.596
REMARK  5 active torsions:
REMARK  status: ('A' for Active; 'I' for Inactive)
REMARK    1  A    between atoms: C2_2  and  C3_3 
REMARK       I    between atoms: C3_3  and  N1_5 
REMARK    2  A    between atoms: N1_5  and  C4_6 
REMARK    3  A    between atoms: C8_10  and  N2_11 
REMARK    4  A    between atoms: N2_11  and  C9_12 
REMARK    5  A    between atoms: C18_23  and  N5_24 
ROOT
HETATM    1  C9  UNL     1      21.341   0.032  51.998  1.00  0.00     0.140 C 
HETATM    2  N3  UNL     1      21.481   0.297  50.724  1.00  0.00    -0.230 NA
HETATM    3  C10 UNL     1      20.439   1.077  49.978  1.00  0.00     0.070 A 
HETATM    4  C11 UNL     1      20.632   1.876  48.931  1.00  0.00     0.032 A 
HETATM    5  C12 UNL     1      19.534   2.518  48.393  1.00  0.00     0.002 A 
HETATM    6  C13 UNL     1      18.212   2.409  48.852  1.00  0.00     0.001 A 
HETATM    7  C14 UNL     1      17.874   1.613  49.933  1.00  0.00     0.014 A 
HETATM    8  C15 UNL     1      19.076   1.071  50.318  1.00  0.00     0.001 A 
HETATM    9  C16 UNL     1      18.451   0.381  51.400  1.00  0.00    -0.015 A 
HETATM   10  C17 UNL     1      17.509  -0.068  52.152  1.00  0.00     0.136 A 
HETATM   11  N4  UNL     1      17.980  -0.730  53.219  1.00  0.00    -0.199 NA
HETATM   12  C18 UNL     1      19.287  -0.896  53.457  1.00  0.00     0.172 A 
HETATM   13  C19 UNL     1      20.076  -0.355  52.568  1.00  0.00     0.050 A 
HETATM   14  N6  UNL     1      18.667  -0.308  52.516  1.00  0.00     0.000 N 
ENDROOT
BRANCH   1  15
HETATM   15  N2  UNL     1      22.043   0.032  53.207  1.00  0.00    -0.340 N 
HETATM   16  H8  UNL     1      21.871  -0.552  54.039  1.00  0.00     0.167 HD
BRANCH  15  17
HETATM   17  C8  UNL     1      23.012   1.057  53.046  1.00  0.00     0.035 A 
HETATM   18  C7  UNL     1      23.022   2.396  52.860  1.00  0.00     0.029 A 
HETATM   19  C6  UNL     1      24.124   3.182  52.777  1.00  0.00     0.004 A 
HETATM   20  C5  UNL     1      25.341   2.590  52.884  1.00  0.00     0.029 A 
HETATM   21  C4  UNL     1      25.481   1.241  53.073  1.00  0.00     0.037 A 
HETATM   22  C20 UNL     1      24.299   0.508  53.149  1.00  0.00     0.059 A 
BRANCH  21  23
HETATM   23  N1  UNL     1      26.711   0.501  53.222  1.00  0.00    -0.324 N 
HETATM   24  C3  UNL     1      27.520   0.181  54.382  1.00  0.00     0.241 C 
HETATM   25  O1  UNL     1      26.892   0.718  55.314  1.00  0.00    -0.269 OA
HETATM   26  H4  UNL     1      26.769   0.297  52.176  1.00  0.00     0.169 HD
BRANCH  24  27
HETATM   27  C2  UNL     1      28.624  -0.606  53.793  1.00  0.00     0.048 C 
HETATM   28  C1  UNL     1      29.915  -0.911  53.550  1.00  0.00     0.037 C 
ENDBRANCH  24  27
ENDBRANCH  21  23
ENDBRANCH  15  17
ENDBRANCH   1  15
BRANCH  12  29
HETATM   29  N5  UNL     1      20.352  -1.458  54.240  1.00  0.00    -0.402 N 
HETATM   30  H14 UNL     1      21.275  -1.179  54.636  1.00  0.00     0.152 HD
HETATM   31  H15 UNL     1      20.461  -2.466  54.621  1.00  0.00     0.152 HD
ENDBRANCH  12  29
TORSDOF 5
ENDMDL
MODEL 6
REMARK VINA RESULT:      -8.5      3.470      7.781
REMARK  5 active torsions:
REMARK  status: ('A' for Active; 'I' for Inactive)
REMARK    1  A    between atoms: C2_2  and  C3_3 
REMARK       I    between atoms: C3_3  and  N1_5 
REMARK    2  A    between atoms: N1_5  and  C4_6 
REMARK    3  A    between atoms: C8_10  and  N2_11 
REMARK    4  A    between atoms: N2_11  and  C9_12 
REMARK    5  A    between atoms: C18_23  and  N5_24 
ROOT
HETATM    1  C9  UNL     1      24.949   1.790  52.138  1.00  0.00     0.140 C 
HETATM    2  N3  UNL     1      24.033   0.873  51.964  1.00  0.00    -0.230 NA
HETATM    3  C10 UNL     1      23.574   0.011  53.103  1.00  0.00     0.070 A 
HETATM    4  C11 UNL     1      22.369  -0.529  53.266  1.00  0.00     0.032 A 
HETATM    5  C12 UNL     1      22.144  -1.285  54.400  1.00  0.00     0.002 A 
HETATM    6  C13 UNL     1      23.079  -1.543  55.414  1.00  0.00     0.001 A 
HETATM    7  C14 UNL     1      24.368  -1.040  55.369  1.00  0.00     0.014 A 
HETATM    8  C15 UNL     1      24.393  -0.333  54.192  1.00  0.00     0.001 A 
HETATM    9  C16 UNL     1      25.742   0.072  54.430  1.00  0.00    -0.015 A 
HETATM   10  C17 UNL     1      26.894   0.128  54.998  1.00  0.00     0.136 A 
HETATM   11  N4  UNL     1      27.701   1.032  54.423  1.00  0.00    -0.199 NA
HETATM   12  C18 UNL     1      27.333   1.779  53.375  1.00  0.00     0.172 A 
HETATM   13  C19 UNL     1      26.114   1.566  52.955  1.00  0.00     0.050 A 
HETATM   14  N6  UNL     1      26.713   0.890  54.039  1.00  0.00     0.000 N 
ENDROOT
BRANCH   1  15
HETATM   15  N2  UNL     1      25.249   3.120  51.832  1.00  0.00    -0.340 N 
HETATM   16  H8  UNL     1      26.179   3.563  51.771  1.00  0.00     0.167 HD
BRANCH  15  17
HETATM   17  C8  UNL     1      23.980   3.736  51.676  1.00  0.00     0.035 A 
HETATM   18  C7  UNL     1      23.073   4.359  52.461  1.00  0.00     0.029 A 
HETATM   19  C6  UNL     1      21.910   4.920  52.047  1.00  0.00     0.004 A 
HETATM   20  C5  UNL     1      21.605   4.859  50.725  1.00  0.00     0.029 A 
HETATM   21  C4  UNL     1      22.431   4.255  49.815  1.00  0.00     0.037 A 
HETATM   22  C20 UNL     1      23.605   3.706  50.324  1.00  0.00     0.059 A 
BRANCH  21  23
HETATM   23  N1  UNL     1      22.230   4.144  48.390  1.00  0.00    -0.324 N 
HETATM   24  C3  UNL     1      21.756   3.056  47.556  1.00  0.00     0.241 C 
HETATM   25  O1  UNL     1      21.536   2.150  48.381  1.00  0.00    -0.269 OA
HETATM   26  H4  UNL     1      22.556   5.146  48.219  1.00  0.00     0.169 HD
BRANCH  24  27
HETATM   27  C2  UNL     1      21.800   3.651  46.203  1.00  0.00     0.048 C 
HETATM   28  C1  UNL     1      22.016   4.633  45.305  1.00  0.00     0.037 C 
ENDBRANCH  24  27
ENDBRANCH  21  23
ENDBRANCH  15  17
ENDBRANCH   1  15
BRANCH  12  29
HETATM   29  N5  UNL     1      27.642   2.749  52.362  1.00  0.00    -0.402 N 
HETATM   30  H14 UNL     1      28.429   3.008  51.729  1.00  0.00     0.152 HD
HETATM   31  H15 UNL     1      27.043   3.577  52.003  1.00  0.00     0.152 HD
ENDBRANCH  12  29
TORSDOF 5
ENDMDL
MODEL 7
REMARK VINA RESULT:      -8.3      2.576      7.867
REMARK  5 active torsions:
REMARK  status: ('A' for Active; 'I' for Inactive)
REMARK    1  A    between atoms: C2_2  and  C3_3 
REMARK       I    between atoms: C3_3  and  N1_5 
REMARK    2  A    between atoms: N1_5  and  C4_6 
REMARK    3  A    between atoms: C8_10  and  N2_11 
REMARK    4  A    between atoms: N2_11  and  C9_12 
REMARK    5  A    between atoms: C18_23  and  N5_24 
ROOT
HETATM    1  C9  UNL     1      24.636   1.526  52.021  1.00  0.00     0.140 C 
HETATM    2  N3  UNL     1      23.514   1.015  51.582  1.00  0.00    -0.230 NA
HETATM    3  C10 UNL     1      22.573   0.303  52.508  1.00  0.00     0.070 A 
HETATM    4  C11 UNL     1      21.248   0.225  52.402  1.00  0.00     0.032 A 
HETATM    5  C12 UNL     1      20.560  -0.473  53.374  1.00  0.00     0.002 A 
HETATM    6  C13 UNL     1      21.130  -1.119  54.483  1.00  0.00     0.001 A 
HETATM    7  C14 UNL     1      22.495  -1.113  54.712  1.00  0.00     0.014 A 
HETATM    8  C15 UNL     1      22.993  -0.385  53.658  1.00  0.00     0.001 A 
HETATM    9  C16 UNL     1      24.323  -0.512  54.162  1.00  0.00    -0.015 A 
HETATM   10  C17 UNL     1      25.289  -0.913  54.910  1.00  0.00     0.136 A 
HETATM   11  N4  UNL     1      26.453  -0.326  54.597  1.00  0.00    -0.199 NA
HETATM   12  C18 UNL     1      26.577   0.572  53.612  1.00  0.00     0.172 A 
HETATM   13  C19 UNL     1      25.468   0.842  52.977  1.00  0.00     0.050 A 
HETATM   14  N6  UNL     1      25.573  -0.075  54.044  1.00  0.00     0.000 N 
ENDROOT
BRANCH   1  15
HETATM   15  N2  UNL     1      25.427   2.675  51.946  1.00  0.00    -0.340 N 
HETATM   16  H8  UNL     1      26.451   2.748  52.049  1.00  0.00     0.167 HD
BRANCH  15  17
HETATM   17  C8  UNL     1      24.495   3.727  51.748  1.00  0.00     0.035 A 
HETATM   18  C7  UNL     1      23.366   4.179  52.337  1.00  0.00     0.029 A 
HETATM   19  C6  UNL     1      22.655   5.274  51.967  1.00  0.00     0.004 A 
HETATM   20  C5  UNL     1      23.100   5.996  50.906  1.00  0.00     0.029 A 
HETATM   21  C4  UNL     1      24.230   5.652  50.213  1.00  0.00     0.037 A 
HETATM   22  C20 UNL     1      24.899   4.515  50.660  1.00  0.00     0.059 A 
BRANCH  21  23
HETATM   23  N1  UNL     1      24.812   6.345  49.090  1.00  0.00    -0.324 N 
HETATM   24  C3  UNL     1      25.794   7.409  49.004  1.00  0.00     0.241 C 
HETATM   25  O1  UNL     1      26.065   7.631  50.200  1.00  0.00    -0.269 OA
HETATM   26  H4  UNL     1      24.247   5.775  48.386  1.00  0.00     0.169 HD
BRANCH  24  27
HETATM   27  C2  UNL     1      25.916   7.614  47.545  1.00  0.00     0.048 C 
HETATM   28  C1  UNL     1      25.921   8.339  46.408  1.00  0.00     0.037 C 
ENDBRANCH  24  27
ENDBRANCH  21  23
ENDBRANCH  15  17
ENDBRANCH   1  15
BRANCH  12  29
HETATM   29  N5  UNL     1      27.394   1.430  52.800  1.00  0.00    -0.402 N 
HETATM   30  H14 UNL     1      27.452   1.767  51.816  1.00  0.00     0.152 HD
HETATM   31  H15 UNL     1      28.291   1.974  53.069  1.00  0.00     0.152 HD
ENDBRANCH  12  29
TORSDOF 5
ENDMDL
MODEL 8
REMARK VINA RESULT:      -8.3      3.943      7.836
REMARK  5 active torsions:
REMARK  status: ('A' for Active; 'I' for Inactive)
REMARK    1  A    between atoms: C2_2  and  C3_3 
REMARK       I    between atoms: C3_3  and  N1_5 
REMARK    2  A    between atoms: N1_5  and  C4_6 
REMARK    3  A    between atoms: C8_10  and  N2_11 
REMARK    4  A    between atoms: N2_11  and  C9_12 
REMARK    5  A    between atoms: C18_23  and  N5_24 
ROOT
HETATM    1  C9  UNL     1      22.277   1.203  52.845  1.00  0.00     0.140 C 
HETATM    2  N3  UNL     1      23.393   1.846  52.613  1.00  0.00    -0.230 NA
HETATM    3  C10 UNL     1      24.714   1.135  52.635  1.00  0.00     0.070 A 
HETATM    4  C11 UNL     1      25.801   1.439  51.930  1.00  0.00     0.032 A 
HETATM    5  C12 UNL     1      26.920   0.645  52.087  1.00  0.00     0.002 A 
HETATM    6  C13 UNL     1      27.023  -0.471  52.932  1.00  0.00     0.001 A 
HETATM    7  C14 UNL     1      25.967  -0.896  53.719  1.00  0.00     0.014 A 
HETATM    8  C15 UNL     1      24.970   0.004  53.427  1.00  0.00     0.001 A 
HETATM    9  C16 UNL     1      24.064  -0.674  54.298  1.00  0.00    -0.015 A 
HETATM   10  C17 UNL     1      23.650  -1.515  55.179  1.00  0.00     0.136 A 
HETATM   11  N4  UNL     1      22.327  -1.430  55.381  1.00  0.00    -0.199 NA
HETATM   12  C18 UNL     1      21.543  -0.560  54.733  1.00  0.00     0.172 A 
HETATM   13  C19 UNL     1      22.167   0.202  53.875  1.00  0.00     0.050 A 
HETATM   14  N6  UNL     1      22.793  -0.780  54.671  1.00  0.00     0.000 N 
ENDROOT
BRANCH   1  15
HETATM   15  N2  UNL     1      20.970   1.057  52.371  1.00  0.00    -0.340 N 
HETATM   16  H8  UNL     1      20.136   0.752  52.895  1.00  0.00     0.167 HD
BRANCH  15  17
HETATM   17  C8  UNL     1      21.064   1.374  50.990  1.00  0.00     0.035 A 
HETATM   18  C7  UNL     1      21.341   0.725  49.838  1.00  0.00     0.029 A 
HETATM   19  C6  UNL     1      21.323   1.264  48.593  1.00  0.00     0.004 A 
HETATM   20  C5  UNL     1      21.002   2.578  48.471  1.00  0.00     0.029 A 
HETATM   21  C4  UNL     1      20.700   3.358  49.555  1.00  0.00     0.037 A 
HETATM   22  C20 UNL     1      20.741   2.725  50.795  1.00  0.00     0.059 A 
BRANCH  21  23
HETATM   23  N1  UNL     1      20.325   4.752  49.553  1.00  0.00    -0.324 N 
HETATM   24  C3  UNL     1      21.109   5.971  49.609  1.00  0.00     0.241 C 
HETATM   25  O1  UNL     1      22.278   5.545  49.665  1.00  0.00    -0.269 OA
HETATM   26  H4  UNL     1      19.285   4.520  49.493  1.00  0.00     0.169 HD
BRANCH  24  27
HETATM   27  C2  UNL     1      20.069   7.021  49.559  1.00  0.00     0.048 C 
HETATM   28  C1  UNL     1      19.605   8.276  49.395  1.00  0.00     0.037 C 
ENDBRANCH  24  27
ENDBRANCH  21  23
ENDBRANCH  15  17
ENDBRANCH   1  15
BRANCH  12  29
HETATM   29  N5  UNL     1      20.257   0.043  54.518  1.00  0.00    -0.402 N 
HETATM   30  H14 UNL     1      19.480   0.468  55.069  1.00  0.00     0.152 HD
HETATM   31  H15 UNL     1      19.712   0.179  53.592  1.00  0.00     0.152 HD
ENDBRANCH  12  29
TORSDOF 5
ENDMDL
MODEL 9
REMARK VINA RESULT:      -8.2      2.665      7.229
REMARK  5 active torsions:
REMARK  status: ('A' for Active; 'I' for Inactive)
REMARK    1  A    between atoms: C2_2  and  C3_3 
REMARK       I    between atoms: C3_3  and  N1_5 
REMARK    2  A    between atoms: N1_5  and  C4_6 
REMARK    3  A    between atoms: C8_10  and  N2_11 
REMARK    4  A    between atoms: N2_11  and  C9_12 
REMARK    5  A    between atoms: C18_23  and  N5_24 
ROOT
HETATM    1  C9  UNL     1      25.254   3.606  50.574  1.00  0.00     0.140 C 
HETATM    2  N3  UNL     1      26.234   3.045  51.234  1.00  0.00    -0.230 NA
HETATM    3  C10 UNL     1      26.066   1.696  51.870  1.00  0.00     0.070 A 
HETATM    4  C11 UNL     1      27.011   0.780  52.069  1.00  0.00     0.032 A 
HETATM    5  C12 UNL     1      26.644  -0.412  52.664  1.00  0.00     0.002 A 
HETATM    6  C13 UNL     1      25.350  -0.756  53.085  1.00  0.00     0.001 A 
HETATM    7  C14 UNL     1      24.277   0.105  52.936  1.00  0.00     0.014 A 
HETATM    8  C15 UNL     1      24.835   1.210  52.339  1.00  0.00     0.001 A 
HETATM    9  C16 UNL     1      23.563   1.856  52.281  1.00  0.00    -0.015 A 
HETATM   10  C17 UNL     1      22.309   2.057  52.485  1.00  0.00     0.136 A 
HETATM   11  N4  UNL     1      21.861   3.156  51.860  1.00  0.00    -0.199 NA
HETATM   12  C18 UNL     1      22.645   3.945  51.115  1.00  0.00     0.172 A 
HETATM   13  C19 UNL     1      23.890   3.556  51.035  1.00  0.00     0.050 A 
HETATM   14  N6  UNL     1      22.891   2.882  51.768  1.00  0.00     0.000 N 
ENDROOT
BRANCH   1  15
HETATM   15  N2  UNL     1      24.974   4.293  49.390  1.00  0.00    -0.340 N 
HETATM   16  H8  UNL     1      24.081   4.334  48.876  1.00  0.00     0.167 HD
BRANCH  15  17
HETATM   17  C8  UNL     1      26.214   4.881  49.028  1.00  0.00     0.035 A 
HETATM   18  C7  UNL     1      27.469   4.462  48.749  1.00  0.00     0.029 A 
HETATM   19  C6  UNL     1      28.508   5.249  48.372  1.00  0.00     0.004 A 
HETATM   20  C5  UNL     1      28.291   6.585  48.262  1.00  0.00     0.029 A 
HETATM   21  C4  UNL     1      27.069   7.148  48.516  1.00  0.00     0.037 A 
HETATM   22  C20 UNL     1      26.057   6.268  48.895  1.00  0.00     0.059 A 
BRANCH  21  23
HETATM   23  N1  UNL     1      26.709   8.542  48.414  1.00  0.00    -0.324 N 
HETATM   24  C3  UNL     1      26.723   9.624  49.379  1.00  0.00     0.241 C 
HETATM   25  O1  UNL     1      27.144   9.068  50.411  1.00  0.00    -0.269 OA
HETATM   26  H4  UNL     1      26.445   8.446  47.384  1.00  0.00     0.169 HD
BRANCH  24  27
HETATM   27  C2  UNL     1      26.236  10.769  48.581  1.00  0.00     0.048 C 
HETATM   28  C1  UNL     1      26.299  12.010  48.057  1.00  0.00     0.037 C 
ENDBRANCH  24  27
ENDBRANCH  21  23
ENDBRANCH  15  17
ENDBRANCH   1  15
BRANCH  12  29
HETATM   29  N5  UNL     1      22.837   5.130  50.329  1.00  0.00    -0.402 N 
HETATM   30  H14 UNL     1      23.426   5.469  49.538  1.00  0.00     0.152 HD
HETATM   31  H15 UNL     1      22.359   6.098  50.423  1.00  0.00     0.152 HD
ENDBRANCH  12  29
TORSDOF 5
ENDMDL
