MODEL 1
REMARK VINA RESULT:      -9.2      0.000      0.000
REMARK  0 active torsions:
REMARK  status: ('A' for Active; 'I' for Inactive)
ROOT
HETATM    1  C1  UNL     1      27.121   5.532  48.591  1.00  0.00     0.065 C 
HETATM    2  C2  UNL     1      28.273   6.158  48.487  1.00  0.00     0.114 A 
HETATM    3  N1  UNL     1      29.434   5.539  47.970  1.00  0.00    -0.357 N 
HETATM    4  C3  UNL     1      30.651   6.425  47.959  1.00  0.00     0.101 A 
HETATM    5  C4  UNL     1      31.665   5.667  48.835  1.00  0.00     0.107 C 
HETATM    6  C5  UNL     1      32.903   5.117  48.489  1.00  0.00     0.070 C 
HETATM    7  N2  UNL     1      33.843   4.937  47.335  1.00  0.00    -0.384 N 
HETATM    8  C6  UNL     1      35.003   5.801  47.681  1.00  0.00     0.178 C 
HETATM    9  C7  UNL     1      35.392   5.659  49.102  1.00  0.00     0.055 C 
HETATM   10  N3  UNL     1      34.569   7.130  47.308  1.00  0.00    -0.336 N 
HETATM   11  C8  UNL     1      33.247   7.671  46.945  1.00  0.00     0.253 C 
HETATM   12  O1  UNL     1      33.664   8.621  47.596  1.00  0.00    -0.268 OA
HETATM   13  C9  UNL     1      32.256   6.861  46.093  1.00  0.00     0.042 C 
HETATM   14  C10 UNL     1      31.132   6.354  46.574  1.00  0.00     0.029 C 
HETATM   15  C11 UNL     1      32.651   6.393  44.743  1.00  0.00    -0.012 A 
HETATM   16  C12 UNL     1      32.467   6.996  43.559  1.00  0.00     0.013 A 
HETATM   17  C13 UNL     1      32.946   6.309  42.500  1.00  0.00     0.001 A 
HETATM   18  C14 UNL     1      33.577   5.102  42.527  1.00  0.00     0.001 A 
HETATM   19  C15 UNL     1      33.731   4.540  43.797  1.00  0.00     0.010 A 
HETATM   20  C16 UNL     1      33.298   5.115  44.965  1.00  0.00    -0.025 A 
HETATM   21  C17 UNL     1      33.698   4.148  46.080  1.00  0.00     0.111 C 
HETATM   22  C18 UNL     1      32.605   3.141  46.309  1.00  0.00     0.037 C 
HETATM   23  C19 UNL     1      30.148   7.634  48.477  1.00  0.00     0.069 A 
HETATM   24  C20 UNL     1      30.431   8.876  48.799  1.00  0.00     0.031 A 
HETATM   25  C21 UNL     1      29.613   9.945  49.357  1.00  0.00     0.021 A 
HETATM   26  C22 UNL     1      28.338   9.720  49.622  1.00  0.00     0.108 A 
HETATM   27  N4  UNL     1      27.831   8.421  49.342  1.00  0.00    -0.304 N 
HETATM   28  N5  UNL     1      28.739   7.463  48.795  1.00  0.00    -0.243 N 
HETATM   29  H3  UNL     1      29.569   4.563  47.599  1.00  0.00     0.162 HD
HETATM   30  H10 UNL     1      35.495   7.570  47.379  1.00  0.00     0.164 HD
HETATM   31  H23 UNL     1      26.826   8.269  49.559  1.00  0.00     0.186 HD
ENDROOT
TORSDOF 0
ENDMDL
MODEL 2
REMARK VINA RESULT:      -8.6      1.859      6.243
REMARK  0 active torsions:
REMARK  status: ('A' for Active; 'I' for Inactive)
ROOT
HETATM    1  C1  UNL     1      33.182   4.846  43.389  1.00  0.00     0.065 C 
HETATM    2  C2  UNL     1      33.014   5.282  44.618  1.00  0.00     0.114 A 
HETATM    3  N1  UNL     1      31.986   6.186  44.973  1.00  0.00    -0.357 N 
HETATM    4  C3  UNL     1      31.985   6.576  46.427  1.00  0.00     0.101 A 
HETATM    5  C4  UNL     1      32.157   8.106  46.398  1.00  0.00     0.107 C 
HETATM    6  C5  UNL     1      31.285   9.108  46.831  1.00  0.00     0.070 C 
HETATM    7  N2  UNL     1      29.940   9.324  47.457  1.00  0.00    -0.384 N 
HETATM    8  C6  UNL     1      30.257   9.854  48.810  1.00  0.00     0.178 C 
HETATM    9  C7  UNL     1      31.329  10.874  48.766  1.00  0.00     0.055 C 
HETATM   10  N3  UNL     1      30.585   8.671  49.577  1.00  0.00    -0.336 N 
HETATM   11  C8  UNL     1      30.860   7.280  49.176  1.00  0.00     0.253 C 
HETATM   12  O1  UNL     1      31.688   7.382  50.073  1.00  0.00    -0.268 OA
HETATM   13  C9  UNL     1      30.075   6.603  48.040  1.00  0.00     0.042 C 
HETATM   14  C10 UNL     1      30.612   6.301  46.869  1.00  0.00     0.029 C 
HETATM   15  C11 UNL     1      28.600   6.493  48.124  1.00  0.00    -0.012 A 
HETATM   16  C12 UNL     1      27.860   5.487  48.615  1.00  0.00     0.013 A 
HETATM   17  C13 UNL     1      26.527   5.688  48.549  1.00  0.00     0.001 A 
HETATM   18  C14 UNL     1      25.890   6.783  48.047  1.00  0.00     0.001 A 
HETATM   19  C15 UNL     1      26.729   7.786  47.557  1.00  0.00     0.010 A 
HETATM   20  C16 UNL     1      28.099   7.728  47.553  1.00  0.00    -0.025 A 
HETATM   21  C17 UNL     1      28.572   9.045  46.938  1.00  0.00     0.111 C 
HETATM   22  C18 UNL     1      28.680   8.909  45.444  1.00  0.00     0.037 C 
HETATM   23  C19 UNL     1      33.062   5.828  46.940  1.00  0.00     0.069 A 
HETATM   24  C20 UNL     1      33.757   5.526  48.013  1.00  0.00     0.031 A 
HETATM   25  C21 UNL     1      34.903   4.648  48.213  1.00  0.00     0.021 A 
HETATM   26  C22 UNL     1      35.406   3.990  47.184  1.00  0.00     0.108 A 
HETATM   27  N4  UNL     1      34.787   4.182  45.918  1.00  0.00    -0.304 N 
HETATM   28  N5  UNL     1      33.671   5.071  45.858  1.00  0.00    -0.243 N 
HETATM   29  H3  UNL     1      31.235   6.621  44.376  1.00  0.00     0.162 HD
HETATM   30  H10 UNL     1      30.560   9.129  50.497  1.00  0.00     0.164 HD
HETATM   31  H23 UNL     1      35.201   3.653  45.125  1.00  0.00     0.186 HD
ENDROOT
TORSDOF 0
ENDMDL
MODEL 3
REMARK VINA RESULT:      -8.2      4.944      9.664
REMARK  0 active torsions:
REMARK  status: ('A' for Active; 'I' for Inactive)
ROOT
HETATM    1  C1  UNL     1      26.265   9.923  47.915  1.00  0.00     0.065 C 
HETATM    2  C2  UNL     1      26.195   8.657  48.264  1.00  0.00     0.114 A 
HETATM    3  N1  UNL     1      25.027   8.082  48.816  1.00  0.00    -0.357 N 
HETATM    4  C3  UNL     1      25.165   6.625  49.166  1.00  0.00     0.101 A 
HETATM    5  C4  UNL     1      24.879   6.581  50.678  1.00  0.00     0.107 C 
HETATM    6  C5  UNL     1      23.842   5.947  51.369  1.00  0.00     0.070 C 
HETATM    7  N2  UNL     1      22.622   5.099  51.166  1.00  0.00    -0.384 N 
HETATM    8  C6  UNL     1      23.003   3.783  51.746  1.00  0.00     0.178 C 
HETATM    9  C7  UNL     1      23.707   3.932  53.039  1.00  0.00     0.055 C 
HETATM   10  N3  UNL     1      23.787   3.159  50.702  1.00  0.00    -0.336 N 
HETATM   11  C8  UNL     1      24.380   3.689  49.462  1.00  0.00     0.253 C 
HETATM   12  O1  UNL     1      25.285   2.934  49.792  1.00  0.00    -0.268 OA
HETATM   13  C9  UNL     1      23.640   4.726  48.600  1.00  0.00     0.042 C 
HETATM   14  C10 UNL     1      24.030   5.986  48.489  1.00  0.00     0.029 C 
HETATM   15  C11 UNL     1      22.299   4.412  48.055  1.00  0.00    -0.012 A 
HETATM   16  C12 UNL     1      21.980   3.876  46.867  1.00  0.00     0.013 A 
HETATM   17  C13 UNL     1      20.655   3.712  46.664  1.00  0.00     0.001 A 
HETATM   18  C14 UNL     1      19.650   4.031  47.528  1.00  0.00     0.001 A 
HETATM   19  C15 UNL     1      20.064   4.584  48.742  1.00  0.00     0.010 A 
HETATM   20  C16 UNL     1      21.370   4.812  49.094  1.00  0.00    -0.025 A 
HETATM   21  C17 UNL     1      21.326   5.408  50.501  1.00  0.00     0.111 C 
HETATM   22  C18 UNL     1      21.207   6.905  50.426  1.00  0.00     0.037 C 
HETATM   23  C19 UNL     1      26.485   6.342  48.763  1.00  0.00     0.069 A 
HETATM   24  C20 UNL     1      27.413   5.418  48.666  1.00  0.00     0.031 A 
HETATM   25  C21 UNL     1      28.781   5.464  48.165  1.00  0.00     0.021 A 
HETATM   26  C22 UNL     1      29.266   6.602  47.701  1.00  0.00     0.108 A 
HETATM   27  N4  UNL     1      28.408   7.736  47.720  1.00  0.00    -0.304 N 
HETATM   28  N5  UNL     1      27.090   7.556  48.238  1.00  0.00    -0.243 N 
HETATM   29  H3  UNL     1      24.090   8.520  49.017  1.00  0.00     0.162 HD
HETATM   30  H10 UNL     1      23.791   2.219  51.118  1.00  0.00     0.164 HD
HETATM   31  H23 UNL     1      28.814   8.619  47.350  1.00  0.00     0.186 HD
ENDROOT
TORSDOF 0
ENDMDL
MODEL 4
REMARK VINA RESULT:      -8.1      2.631      4.406
REMARK  0 active torsions:
REMARK  status: ('A' for Active; 'I' for Inactive)
ROOT
HETATM    1  C1  UNL     1      26.066   5.002  49.475  1.00  0.00     0.065 C 
HETATM    2  C2  UNL     1      26.463   6.087  48.846  1.00  0.00     0.114 A 
HETATM    3  N1  UNL     1      27.794   6.561  48.911  1.00  0.00    -0.357 N 
HETATM    4  C3  UNL     1      28.033   7.831  48.138  1.00  0.00     0.101 A 
HETATM    5  C4  UNL     1      28.524   8.825  49.205  1.00  0.00     0.107 C 
HETATM    6  C5  UNL     1      29.760   9.469  49.321  1.00  0.00     0.070 C 
HETATM    7  N2  UNL     1      31.099   9.598  48.659  1.00  0.00    -0.384 N 
HETATM    8  C6  UNL     1      31.103  10.990  48.134  1.00  0.00     0.178 C 
HETATM    9  C7  UNL     1      30.565  11.954  49.120  1.00  0.00     0.055 C 
HETATM   10  N3  UNL     1      30.343  10.899  46.906  1.00  0.00    -0.336 N 
HETATM   11  C8  UNL     1      29.485   9.837  46.352  1.00  0.00     0.253 C 
HETATM   12  O1  UNL     1      28.824  10.808  46.007  1.00  0.00    -0.268 OA
HETATM   13  C9  UNL     1      29.851   8.351  46.503  1.00  0.00     0.042 C 
HETATM   14  C10 UNL     1      29.179   7.514  47.277  1.00  0.00     0.029 C 
HETATM   15  C11 UNL     1      31.142   7.851  45.976  1.00  0.00    -0.012 A 
HETATM   16  C12 UNL     1      31.409   7.321  44.772  1.00  0.00     0.013 A 
HETATM   17  C13 UNL     1      32.697   6.957  44.593  1.00  0.00     0.001 A 
HETATM   18  C14 UNL     1      33.713   7.077  45.493  1.00  0.00     0.001 A 
HETATM   19  C15 UNL     1      33.355   7.638  46.721  1.00  0.00     0.010 A 
HETATM   20  C16 UNL     1      32.091   8.055  47.053  1.00  0.00    -0.025 A 
HETATM   21  C17 UNL     1      32.191   8.603  48.477  1.00  0.00     0.111 C 
HETATM   22  C18 UNL     1      31.962   7.500  49.473  1.00  0.00     0.037 C 
HETATM   23  C19 UNL     1      26.767   8.082  47.573  1.00  0.00     0.069 A 
HETATM   24  C20 UNL     1      26.064   8.881  46.804  1.00  0.00     0.031 A 
HETATM   25  C21 UNL     1      24.665   8.854  46.395  1.00  0.00     0.021 A 
HETATM   26  C22 UNL     1      23.880   7.883  46.827  1.00  0.00     0.108 A 
HETATM   27  N4  UNL     1      24.458   6.904  47.682  1.00  0.00    -0.304 N 
HETATM   28  N5  UNL     1      25.841   7.048  48.007  1.00  0.00    -0.243 N 
HETATM   29  H3  UNL     1      28.628   6.163  49.416  1.00  0.00     0.162 HD
HETATM   30  H10 UNL     1      30.606  11.826  46.548  1.00  0.00     0.164 HD
HETATM   31  H23 UNL     1      23.820   6.151  48.008  1.00  0.00     0.186 HD
ENDROOT
TORSDOF 0
ENDMDL
MODEL 5
REMARK VINA RESULT:      -8.0      6.655     11.481
REMARK  0 active torsions:
REMARK  status: ('A' for Active; 'I' for Inactive)
ROOT
HETATM    1  C1  UNL     1      27.341   4.369  48.960  1.00  0.00     0.065 C 
HETATM    2  C2  UNL     1      26.130   4.836  49.171  1.00  0.00     0.114 A 
HETATM    3  N1  UNL     1      24.967   4.053  48.981  1.00  0.00    -0.357 N 
HETATM    4  C3  UNL     1      23.681   4.786  49.256  1.00  0.00     0.101 A 
HETATM    5  C4  UNL     1      22.922   4.712  47.919  1.00  0.00     0.107 C 
HETATM    6  C5  UNL     1      21.708   4.088  47.618  1.00  0.00     0.070 C 
HETATM    7  N2  UNL     1      20.604   3.279  48.230  1.00  0.00    -0.384 N 
HETATM    8  C6  UNL     1      19.438   4.204  48.223  1.00  0.00     0.178 C 
HETATM    9  C7  UNL     1      19.323   4.936  46.942  1.00  0.00     0.055 C 
HETATM   10  N3  UNL     1      19.658   5.046  49.379  1.00  0.00    -0.336 N 
HETATM   11  C8  UNL     1      20.831   5.242  50.250  1.00  0.00     0.253 C 
HETATM   12  O1  UNL     1      20.438   6.401  50.205  1.00  0.00    -0.268 OA
HETATM   13  C9  UNL     1      21.736   4.065  50.651  1.00  0.00     0.042 C 
HETATM   14  C10 UNL     1      22.973   3.919  50.207  1.00  0.00     0.029 C 
HETATM   15  C11 UNL     1      21.160   2.899  51.361  1.00  0.00    -0.012 A 
HETATM   16  C12 UNL     1      21.069   2.681  52.682  1.00  0.00     0.013 A 
HETATM   17  C13 UNL     1      20.486   1.510  53.018  1.00  0.00     0.001 A 
HETATM   18  C14 UNL     1      20.000   0.565  52.165  1.00  0.00     0.001 A 
HETATM   19  C15 UNL     1      20.132   0.866  50.807  1.00  0.00     0.010 A 
HETATM   20  C16 UNL     1      20.701   2.011  50.311  1.00  0.00    -0.025 A 
HETATM   21  C17 UNL     1      20.607   1.899  48.789  1.00  0.00     0.111 C 
HETATM   22  C18 UNL     1      21.823   1.200  48.246  1.00  0.00     0.037 C 
HETATM   23  C19 UNL     1      24.138   6.057  49.655  1.00  0.00     0.069 A 
HETATM   24  C20 UNL     1      23.787   7.254  50.067  1.00  0.00     0.031 A 
HETATM   25  C21 UNL     1      24.573   8.430  50.416  1.00  0.00     0.021 A 
HETATM   26  C22 UNL     1      25.891   8.380  50.337  1.00  0.00     0.108 A 
HETATM   27  N4  UNL     1      26.474   7.156  49.905  1.00  0.00    -0.304 N 
HETATM   28  N5  UNL     1      25.591   6.079  49.593  1.00  0.00    -0.243 N 
HETATM   29  H3  UNL     1      24.873   3.049  48.677  1.00  0.00     0.162 HD
HETATM   30  H10 UNL     1      18.717   5.461  49.390  1.00  0.00     0.164 HD
HETATM   31  H23 UNL     1      27.512   7.142  49.851  1.00  0.00     0.186 HD
ENDROOT
TORSDOF 0
ENDMDL
MODEL 6
REMARK VINA RESULT:      -7.8      8.288     10.889
REMARK  0 active torsions:
REMARK  status: ('A' for Active; 'I' for Inactive)
ROOT
HETATM    1  C1  UNL     1      26.779   1.673  51.562  1.00  0.00     0.065 C 
HETATM    2  C2  UNL     1      25.533   2.086  51.486  1.00  0.00     0.114 A 
HETATM    3  N1  UNL     1      25.142   3.190  50.693  1.00  0.00    -0.357 N 
HETATM    4  C3  UNL     1      23.673   3.510  50.765  1.00  0.00     0.101 A 
HETATM    5  C4  UNL     1      23.637   4.957  51.290  1.00  0.00     0.107 C 
HETATM    6  C5  UNL     1      23.164   6.117  50.670  1.00  0.00     0.070 C 
HETATM    7  N2  UNL     1      22.532   6.615  49.405  1.00  0.00    -0.384 N 
HETATM    8  C6  UNL     1      21.157   7.001  49.821  1.00  0.00     0.178 C 
HETATM    9  C7  UNL     1      21.156   7.744  51.101  1.00  0.00     0.055 C 
HETATM   10  N3  UNL     1      20.441   5.745  49.855  1.00  0.00    -0.336 N 
HETATM   11  C8  UNL     1      20.899   4.345  49.803  1.00  0.00     0.253 C 
HETATM   12  O1  UNL     1      19.997   4.215  50.621  1.00  0.00    -0.268 OA
HETATM   13  C9  UNL     1      22.064   3.917  48.896  1.00  0.00     0.042 C 
HETATM   14  C10 UNL     1      23.245   3.546  49.361  1.00  0.00     0.029 C 
HETATM   15  C11 UNL     1      21.988   4.150  47.434  1.00  0.00    -0.012 A 
HETATM   16  C12 UNL     1      21.541   3.326  46.475  1.00  0.00     0.013 A 
HETATM   17  C13 UNL     1      21.601   3.835  45.225  1.00  0.00     0.001 A 
HETATM   18  C14 UNL     1      22.058   5.068  44.867  1.00  0.00     0.001 A 
HETATM   19  C15 UNL     1      22.504   5.866  45.923  1.00  0.00     0.010 A 
HETATM   20  C16 UNL     1      22.507   5.490  47.242  1.00  0.00    -0.025 A 
HETATM   21  C17 UNL     1      23.065   6.685  48.016  1.00  0.00     0.111 C 
HETATM   22  C18 UNL     1      24.563   6.588  48.107  1.00  0.00     0.037 C 
HETATM   23  C19 UNL     1      23.189   2.511  51.632  1.00  0.00     0.069 A 
HETATM   24  C20 UNL     1      22.128   2.013  52.225  1.00  0.00     0.031 A 
HETATM   25  C21 UNL     1      21.963   0.884  53.132  1.00  0.00     0.021 A 
HETATM   26  C22 UNL     1      23.018   0.168  53.480  1.00  0.00     0.108 A 
HETATM   27  N4  UNL     1      24.276   0.551  52.938  1.00  0.00    -0.304 N 
HETATM   28  N5  UNL     1      24.301   1.677  52.061  1.00  0.00    -0.243 N 
HETATM   29  H3  UNL     1      25.722   3.811  50.071  1.00  0.00     0.162 HD
HETATM   30  H10 UNL     1      19.502   6.158  49.926  1.00  0.00     0.164 HD
HETATM   31  H23 UNL     1      25.091  -0.027  53.227  1.00  0.00     0.186 HD
ENDROOT
TORSDOF 0
ENDMDL
MODEL 7
REMARK VINA RESULT:      -7.7      2.536      4.097
REMARK  0 active torsions:
REMARK  status: ('A' for Active; 'I' for Inactive)
ROOT
HETATM    1  C1  UNL     1      25.829   6.971  50.037  1.00  0.00     0.065 C 
HETATM    2  C2  UNL     1      26.595   7.374  49.046  1.00  0.00     0.114 A 
HETATM    3  N1  UNL     1      27.996   7.512  49.173  1.00  0.00    -0.357 N 
HETATM    4  C3  UNL     1      28.681   8.009  47.928  1.00  0.00     0.101 A 
HETATM    5  C4  UNL     1      29.364   9.312  48.378  1.00  0.00     0.107 C 
HETATM    6  C5  UNL     1      30.724   9.633  48.432  1.00  0.00     0.070 C 
HETATM    7  N2  UNL     1      32.088   9.073  48.160  1.00  0.00    -0.384 N 
HETATM    8  C6  UNL     1      32.568   9.859  46.991  1.00  0.00     0.178 C 
HETATM    9  C7  UNL     1      32.273  11.302  47.137  1.00  0.00     0.055 C 
HETATM   10  N3  UNL     1      31.923   9.226  45.860  1.00  0.00    -0.336 N 
HETATM   11  C8  UNL     1      30.828   8.244  45.770  1.00  0.00     0.253 C 
HETATM   12  O1  UNL     1      30.532   8.941  44.808  1.00  0.00    -0.268 OA
HETATM   13  C9  UNL     1      30.702   7.090  46.779  1.00  0.00     0.042 C 
HETATM   14  C10 UNL     1      29.741   7.023  47.686  1.00  0.00     0.029 C 
HETATM   15  C11 UNL     1      31.815   6.125  46.940  1.00  0.00    -0.012 A 
HETATM   16  C12 UNL     1      32.005   4.951  46.318  1.00  0.00     0.013 A 
HETATM   17  C13 UNL     1      33.127   4.297  46.687  1.00  0.00     0.001 A 
HETATM   18  C14 UNL     1      34.050   4.709  47.600  1.00  0.00     0.001 A 
HETATM   19  C15 UNL     1      33.781   5.940  48.203  1.00  0.00     0.010 A 
HETATM   20  C16 UNL     1      32.685   6.720  47.935  1.00  0.00    -0.025 A 
HETATM   21  C17 UNL     1      32.830   7.961  48.816  1.00  0.00     0.111 C 
HETATM   22  C18 UNL     1      32.187   7.724  50.154  1.00  0.00     0.037 C 
HETATM   23  C19 UNL     1      27.608   8.136  47.024  1.00  0.00     0.069 A 
HETATM   24  C20 UNL     1      27.254   8.458  45.801  1.00  0.00     0.031 A 
HETATM   25  C21 UNL     1      25.956   8.484  45.140  1.00  0.00     0.021 A 
HETATM   26  C22 UNL     1      24.875   8.134  45.815  1.00  0.00     0.108 A 
HETATM   27  N4  UNL     1      25.047   7.747  47.173  1.00  0.00    -0.304 N 
HETATM   28  N5  UNL     1      26.374   7.766  47.700  1.00  0.00    -0.243 N 
HETATM   29  H3  UNL     1      28.620   7.323  50.001  1.00  0.00     0.162 HD
HETATM   30  H10 UNL     1      32.490   9.691  45.139  1.00  0.00     0.164 HD
HETATM   31  H23 UNL     1      24.182   7.477  47.682  1.00  0.00     0.186 HD
ENDROOT
TORSDOF 0
ENDMDL
MODEL 8
REMARK VINA RESULT:      -7.6     10.298     12.566
REMARK  0 active torsions:
REMARK  status: ('A' for Active; 'I' for Inactive)
ROOT
HETATM    1  C1  UNL     1      25.464   2.696  53.638  1.00  0.00     0.065 C 
HETATM    2  C2  UNL     1      24.347   2.300  53.068  1.00  0.00     0.114 A 
HETATM    3  N1  UNL     1      23.547   3.159  52.280  1.00  0.00    -0.357 N 
HETATM    4  C3  UNL     1      22.299   2.514  51.739  1.00  0.00     0.101 A 
HETATM    5  C4  UNL     1      21.160   3.373  52.316  1.00  0.00     0.107 C 
HETATM    6  C5  UNL     1      20.219   4.165  51.653  1.00  0.00     0.070 C 
HETATM    7  N2  UNL     1      19.786   4.603  50.286  1.00  0.00    -0.384 N 
HETATM    8  C6  UNL     1      18.467   3.940  50.099  1.00  0.00     0.178 C 
HETATM    9  C7  UNL     1      17.624   4.040  51.312  1.00  0.00     0.055 C 
HETATM   10  N3  UNL     1      18.811   2.588  49.716  1.00  0.00    -0.336 N 
HETATM   11  C8  UNL     1      20.083   1.845  49.749  1.00  0.00     0.253 C 
HETATM   12  O1  UNL     1      19.330   0.940  50.085  1.00  0.00    -0.268 OA
HETATM   13  C9  UNL     1      21.417   2.525  49.400  1.00  0.00     0.042 C 
HETATM   14  C10 UNL     1      22.357   2.779  50.296  1.00  0.00     0.029 C 
HETATM   15  C11 UNL     1      21.598   3.161  48.073  1.00  0.00    -0.012 A 
HETATM   16  C12 UNL     1      22.102   2.629  46.950  1.00  0.00     0.013 A 
HETATM   17  C13 UNL     1      22.135   3.473  45.896  1.00  0.00     0.001 A 
HETATM   18  C14 UNL     1      21.716   4.769  45.874  1.00  0.00     0.001 A 
HETATM   19  C15 UNL     1      21.203   5.248  47.082  1.00  0.00     0.010 A 
HETATM   20  C16 UNL     1      21.106   4.514  48.237  1.00  0.00    -0.025 A 
HETATM   21  C17 UNL     1      20.479   5.448  49.273  1.00  0.00     0.111 C 
HETATM   22  C18 UNL     1      21.552   6.218  49.992  1.00  0.00     0.037 C 
HETATM   23  C19 UNL     1      22.407   1.196  52.225  1.00  0.00     0.069 A 
HETATM   24  C20 UNL     1      21.853   0.006  52.259  1.00  0.00     0.031 A 
HETATM   25  C21 UNL     1      22.256  -1.235  52.909  1.00  0.00     0.021 A 
HETATM   26  C22 UNL     1      23.372  -1.267  53.616  1.00  0.00     0.108 A 
HETATM   27  N4  UNL     1      24.127  -0.065  53.703  1.00  0.00    -0.304 N 
HETATM   28  N5  UNL     1      23.620   1.082  53.020  1.00  0.00    -0.243 N 
HETATM   29  H3  UNL     1      23.694   4.170  52.023  1.00  0.00     0.162 HD
HETATM   30  H10 UNL     1      17.866   2.320  49.410  1.00  0.00     0.164 HD
HETATM   31  H23 UNL     1      25.000  -0.116  54.265  1.00  0.00     0.186 HD
ENDROOT
TORSDOF 0
ENDMDL
MODEL 9
REMARK VINA RESULT:      -7.6      8.099     11.561
REMARK  0 active torsions:
REMARK  status: ('A' for Active; 'I' for Inactive)
ROOT
HETATM    1  C1  UNL     1      18.279   0.273  49.997  1.00  0.00     0.065 C 
HETATM    2  C2  UNL     1      19.348   0.810  50.545  1.00  0.00     0.114 A 
HETATM    3  N1  UNL     1      20.176   1.728  49.859  1.00  0.00    -0.357 N 
HETATM    4  C3  UNL     1      21.359   2.205  50.658  1.00  0.00     0.101 A 
HETATM    5  C4  UNL     1      22.572   1.779  49.811  1.00  0.00     0.107 C 
HETATM    6  C5  UNL     1      23.541   2.567  49.184  1.00  0.00     0.070 C 
HETATM    7  N2  UNL     1      23.956   3.991  48.967  1.00  0.00    -0.384 N 
HETATM    8  C6  UNL     1      25.221   4.116  49.740  1.00  0.00     0.178 C 
HETATM    9  C7  UNL     1      26.109   2.950  49.537  1.00  0.00     0.055 C 
HETATM   10  N3  UNL     1      24.776   4.302  51.104  1.00  0.00    -0.336 N 
HETATM   11  C8  UNL     1      23.459   4.136  51.744  1.00  0.00     0.253 C 
HETATM   12  O1  UNL     1      24.161   3.697  52.647  1.00  0.00    -0.268 OA
HETATM   13  C9  UNL     1      22.162   4.543  51.026  1.00  0.00     0.042 C 
HETATM   14  C10 UNL     1      21.272   3.669  50.587  1.00  0.00     0.029 C 
HETATM   15  C11 UNL     1      21.980   5.940  50.565  1.00  0.00    -0.012 A 
HETATM   16  C12 UNL     1      21.404   6.967  51.207  1.00  0.00     0.013 A 
HETATM   17  C13 UNL     1      21.392   8.126  50.514  1.00  0.00     0.001 A 
HETATM   18  C14 UNL     1      21.896   8.336  49.266  1.00  0.00     0.001 A 
HETATM   19  C15 UNL     1      22.479   7.219  48.664  1.00  0.00     0.010 A 
HETATM   20  C16 UNL     1      22.566   5.976  49.240  1.00  0.00    -0.025 A 
HETATM   21  C17 UNL     1      23.288   5.093  48.221  1.00  0.00     0.111 C 
HETATM   22  C18 UNL     1      22.293   4.462  47.287  1.00  0.00     0.037 C 
HETATM   23  C19 UNL     1      21.181   1.539  51.886  1.00  0.00     0.069 A 
HETATM   24  C20 UNL     1      21.655   1.355  53.097  1.00  0.00     0.031 A 
HETATM   25  C21 UNL     1      21.192   0.532  54.207  1.00  0.00     0.021 A 
HETATM   26  C22 UNL     1      20.101  -0.200  54.064  1.00  0.00     0.108 A 
HETATM   27  N4  UNL     1      19.431  -0.139  52.811  1.00  0.00    -0.304 N 
HETATM   28  N5  UNL     1      19.990   0.708  51.806  1.00  0.00    -0.243 N 
HETATM   29  H3  UNL     1      20.088   2.118  48.884  1.00  0.00     0.162 HD
HETATM   30  H10 UNL     1      25.690   4.590  51.477  1.00  0.00     0.164 HD
HETATM   31  H23 UNL     1      18.576  -0.723  52.724  1.00  0.00     0.186 HD
ENDROOT
TORSDOF 0
ENDMDL
