MODEL 1
REMARK VINA RESULT:      -7.8      0.000      0.000
REMARK  4 active torsions:
REMARK  status: ('A' for Active; 'I' for Inactive)
REMARK    1  A    between atoms: O1_2  and  C2_3 
REMARK    2  A    between atoms: C5_7  and  C6_8 
REMARK    3  A    between atoms: C14_18  and  O4_19 
REMARK    4  A    between atoms: C15_20  and  C16_21 
ROOT
HETATM    1  C2  UNL     1      26.096   0.090  52.547  1.00  0.00     0.087 C 
HETATM    2  C3  UNL     1      25.009  -0.752  52.739  1.00  0.00     0.062 C 
HETATM    3  C4  UNL     1      24.044  -0.529  53.711  1.00  0.00     0.145 C 
HETATM    4  O2  UNL     1      22.923   0.095  54.007  1.00  0.00    -0.322 OA
HETATM    5  C5  UNL     1      22.276   0.824  53.124  1.00  0.00     0.090 C 
HETATM    6  C12 UNL     1      22.735   1.970  52.486  1.00  0.00     0.114 C 
HETATM    7  C13 UNL     1      23.797   2.195  51.646  1.00  0.00     0.271 C 
HETATM    8  O3  UNL     1      23.213   1.658  50.653  1.00  0.00    -0.266 OA
HETATM    9  N1  UNL     1      24.841   2.810  52.212  1.00  0.00    -0.185 NA
HETATM   10  C14 UNL     1      26.119   2.604  51.831  1.00  0.00     0.182 C 
HETATM   11  C15 UNL     1      26.339   1.452  52.562  1.00  0.00     0.088 C 
ENDROOT
BRANCH   5  12
HETATM   12  C6  UNL     1      20.925   0.384  52.775  1.00  0.00    -0.002 A 
HETATM   13  C7  UNL     1      20.235  -0.462  53.640  1.00  0.00     0.014 A 
HETATM   14  C8  UNL     1      18.950  -0.875  53.298  1.00  0.00     0.001 A 
HETATM   15  C9  UNL     1      18.348  -0.463  52.122  1.00  0.00     0.000 A 
HETATM   16  C10 UNL     1      19.017   0.373  51.257  1.00  0.00     0.001 A 
HETATM   17  C11 UNL     1      20.279   0.761  51.622  1.00  0.00     0.014 A 
ENDBRANCH   5  12
BRANCH   1  18
HETATM   18  O1  UNL     1      27.373  -0.367  52.248  1.00  0.00    -0.355 OA
HETATM   19  C1  UNL     1      27.867  -1.432  53.034  1.00  0.00     0.210 C 
ENDBRANCH   1  18
BRANCH  10  20
HETATM   20  O4  UNL     1      27.134   3.130  51.037  1.00  0.00    -0.344 OA
HETATM   21  H12 UNL     1      27.619   2.576  50.324  1.00  0.00     0.219 HD
ENDBRANCH  10  20
BRANCH  11  22
HETATM   22  C16 UNL     1      27.081   2.057  53.680  1.00  0.00     0.277 C 
HETATM   23  O5  UNL     1      27.984   2.746  54.257  1.00  0.00    -0.301 OA
ENDBRANCH  11  22
TORSDOF 4
ENDMDL
MODEL 2
REMARK VINA RESULT:      -7.7      3.294      6.293
REMARK  4 active torsions:
REMARK  status: ('A' for Active; 'I' for Inactive)
REMARK    1  A    between atoms: O1_2  and  C2_3 
REMARK    2  A    between atoms: C5_7  and  C6_8 
REMARK    3  A    between atoms: C14_18  and  O4_19 
REMARK    4  A    between atoms: C15_20  and  C16_21 
ROOT
HETATM    1  C2  UNL     1      24.291   3.733  50.120  1.00  0.00     0.087 C 
HETATM    2  C3  UNL     1      25.360   2.877  49.893  1.00  0.00     0.062 C 
HETATM    3  C4  UNL     1      26.591   3.025  50.517  1.00  0.00     0.145 C 
HETATM    4  O2  UNL     1      27.305   2.757  51.590  1.00  0.00    -0.322 OA
HETATM    5  C5  UNL     1      26.841   2.012  52.569  1.00  0.00     0.090 C 
HETATM    6  C12 UNL     1      25.743   2.280  53.377  1.00  0.00     0.114 C 
HETATM    7  C13 UNL     1      24.410   2.447  53.097  1.00  0.00     0.271 C 
HETATM    8  O3  UNL     1      24.217   1.201  52.938  1.00  0.00    -0.266 OA
HETATM    9  N1  UNL     1      23.986   3.715  53.119  1.00  0.00    -0.185 NA
HETATM   10  C14 UNL     1      22.985   4.177  52.340  1.00  0.00     0.182 C 
HETATM   11  C15 UNL     1      23.733   4.395  51.199  1.00  0.00     0.088 C 
ENDROOT
BRANCH   5  12
HETATM   12  C6  UNL     1      27.558   0.765  52.840  1.00  0.00    -0.002 A 
HETATM   13  C7  UNL     1      26.986  -0.448  52.468  1.00  0.00     0.014 A 
HETATM   14  C8  UNL     1      27.676  -1.629  52.731  1.00  0.00     0.001 A 
HETATM   15  C9  UNL     1      28.913  -1.619  53.350  1.00  0.00     0.000 A 
HETATM   16  C10 UNL     1      29.492  -0.428  53.724  1.00  0.00     0.001 A 
HETATM   17  C11 UNL     1      28.787   0.716  53.452  1.00  0.00     0.014 A 
ENDBRANCH   5  12
BRANCH   1  18
HETATM   18  O1  UNL     1      23.427   4.157  49.119  1.00  0.00    -0.355 OA
HETATM   19  C1  UNL     1      22.790   3.151  48.360  1.00  0.00     0.210 C 
ENDBRANCH   1  18
BRANCH  10  20
HETATM   20  O4  UNL     1      21.621   4.457  52.345  1.00  0.00    -0.344 OA
HETATM   21  H12 UNL     1      20.909   3.726  52.254  1.00  0.00     0.219 HD
ENDBRANCH  10  20
BRANCH  11  22
HETATM   22  C16 UNL     1      23.898   5.851  51.337  1.00  0.00     0.277 C 
HETATM   23  O5  UNL     1      24.480   6.982  51.264  1.00  0.00    -0.301 OA
ENDBRANCH  11  22
TORSDOF 4
ENDMDL
MODEL 3
REMARK VINA RESULT:      -7.3      2.873      4.871
REMARK  4 active torsions:
REMARK  status: ('A' for Active; 'I' for Inactive)
REMARK    1  A    between atoms: O1_2  and  C2_3 
REMARK    2  A    between atoms: C5_7  and  C6_8 
REMARK    3  A    between atoms: C14_18  and  O4_19 
REMARK    4  A    between atoms: C15_20  and  C16_21 
ROOT
HETATM    1  C2  UNL     1      27.182   1.171  53.638  1.00  0.00     0.087 C 
HETATM    2  C3  UNL     1      27.180   2.359  52.922  1.00  0.00     0.062 C 
HETATM    3  C4  UNL     1      26.975   2.413  51.550  1.00  0.00     0.145 C 
HETATM    4  O2  UNL     1      26.081   2.459  50.585  1.00  0.00    -0.322 OA
HETATM    5  C5  UNL     1      24.792   2.537  50.831  1.00  0.00     0.090 C 
HETATM    6  C12 UNL     1      24.009   1.604  51.501  1.00  0.00     0.114 C 
HETATM    7  C13 UNL     1      24.054   1.111  52.780  1.00  0.00     0.271 C 
HETATM    8  O3  UNL     1      23.543   2.163  53.276  1.00  0.00    -0.266 OA
HETATM    9  N1  UNL     1      24.564  -0.121  52.890  1.00  0.00    -0.185 NA
HETATM   10  C14 UNL     1      25.243  -0.549  53.974  1.00  0.00     0.182 C 
HETATM   11  C15 UNL     1      26.472  -0.017  53.636  1.00  0.00     0.088 C 
ENDROOT
BRANCH   5  12
HETATM   12  C6  UNL     1      24.104   3.735  50.348  1.00  0.00    -0.002 A 
HETATM   13  C7  UNL     1      23.565   3.745  49.064  1.00  0.00     0.014 A 
HETATM   14  C8  UNL     1      22.913   4.891  48.614  1.00  0.00     0.001 A 
HETATM   15  C9  UNL     1      22.790   6.012  49.415  1.00  0.00     0.000 A 
HETATM   16  C10 UNL     1      23.317   6.018  50.687  1.00  0.00     0.001 A 
HETATM   17  C11 UNL     1      23.952   4.876  51.099  1.00  0.00     0.014 A 
ENDBRANCH   5  12
BRANCH   1  18
HETATM   18  O1  UNL     1      28.061   0.911  54.683  1.00  0.00    -0.355 OA
HETATM   19  C1  UNL     1      29.376   1.404  54.544  1.00  0.00     0.210 C 
ENDBRANCH   1  18
BRANCH  10  20
HETATM   20  O4  UNL     1      25.094  -1.264  55.160  1.00  0.00    -0.344 OA
HETATM   21  H12 UNL     1      25.895  -1.588  55.711  1.00  0.00     0.219 HD
ENDBRANCH  10  20
BRANCH  11  22
HETATM   22  C16 UNL     1      27.096  -1.249  53.128  1.00  0.00     0.277 C 
HETATM   23  O5  UNL     1      27.321  -2.499  53.025  1.00  0.00    -0.301 OA
ENDBRANCH  11  22
TORSDOF 4
ENDMDL
MODEL 4
REMARK VINA RESULT:      -7.1      2.011      3.606
REMARK  4 active torsions:
REMARK  status: ('A' for Active; 'I' for Inactive)
REMARK    1  A    between atoms: O1_2  and  C2_3 
REMARK    2  A    between atoms: C5_7  and  C6_8 
REMARK    3  A    between atoms: C14_18  and  O4_19 
REMARK    4  A    between atoms: C15_20  and  C16_21 
ROOT
HETATM    1  C2  UNL     1      25.351   1.336  53.571  1.00  0.00     0.087 C 
HETATM    2  C3  UNL     1      24.627   2.232  52.798  1.00  0.00     0.062 C 
HETATM    3  C4  UNL     1      24.120   1.911  51.546  1.00  0.00     0.145 C 
HETATM    4  O2  UNL     1      23.120   1.366  50.885  1.00  0.00    -0.322 OA
HETATM    5  C5  UNL     1      22.039   0.927  51.492  1.00  0.00     0.090 C 
HETATM    6  C12 UNL     1      21.963  -0.095  52.432  1.00  0.00     0.114 C 
HETATM    7  C13 UNL     1      22.521  -0.247  53.675  1.00  0.00     0.271 C 
HETATM    8  O3  UNL     1      21.700   0.557  54.217  1.00  0.00    -0.266 OA
HETATM    9  N1  UNL     1      23.563  -1.085  53.726  1.00  0.00    -0.185 NA
HETATM   10  C14 UNL     1      24.587  -0.945  54.593  1.00  0.00     0.182 C 
HETATM   11  C15 UNL     1      25.307  -0.015  53.869  1.00  0.00     0.088 C 
ENDROOT
BRANCH   5  12
HETATM   12  C6  UNL     1      20.778   1.581  51.142  1.00  0.00    -0.002 A 
HETATM   13  C7  UNL     1      20.048   1.121  50.050  1.00  0.00     0.014 A 
HETATM   14  C8  UNL     1      18.850   1.752  49.724  1.00  0.00     0.001 A 
HETATM   15  C9  UNL     1      18.373   2.821  50.462  1.00  0.00     0.000 A 
HETATM   16  C10 UNL     1      19.084   3.288  51.544  1.00  0.00     0.001 A 
HETATM   17  C11 UNL     1      20.258   2.646  51.838  1.00  0.00     0.014 A 
ENDBRANCH   5  12
BRANCH   1  18
HETATM   18  O1  UNL     1      26.457   1.702  54.329  1.00  0.00    -0.355 OA
HETATM   19  C1  UNL     1      27.552   2.254  53.629  1.00  0.00     0.210 C 
ENDBRANCH   1  18
BRANCH  10  20
HETATM   20  O4  UNL     1      25.064  -1.394  55.821  1.00  0.00    -0.344 OA
HETATM   21  H12 UNL     1      24.633  -1.124  56.711  1.00  0.00     0.219 HD
ENDBRANCH  10  20
BRANCH  11  22
HETATM   22  C16 UNL     1      26.308  -0.929  53.296  1.00  0.00     0.277 C 
HETATM   23  O5  UNL     1      27.067  -1.950  53.228  1.00  0.00    -0.301 OA
ENDBRANCH  11  22
TORSDOF 4
ENDMDL
MODEL 5
REMARK VINA RESULT:      -7.0      3.279      7.099
REMARK  4 active torsions:
REMARK  status: ('A' for Active; 'I' for Inactive)
REMARK    1  A    between atoms: O1_2  and  C2_3 
REMARK    2  A    between atoms: C5_7  and  C6_8 
REMARK    3  A    between atoms: C14_18  and  O4_19 
REMARK    4  A    between atoms: C15_20  and  C16_21 
ROOT
HETATM    1  C2  UNL     1      20.614   3.447  52.046  1.00  0.00     0.087 C 
HETATM    2  C3  UNL     1      21.459   4.531  51.853  1.00  0.00     0.062 C 
HETATM    3  C4  UNL     1      22.763   4.566  52.330  1.00  0.00     0.145 C 
HETATM    4  O2  UNL     1      24.016   4.238  52.095  1.00  0.00    -0.322 OA
HETATM    5  C5  UNL     1      24.389   3.673  50.968  1.00  0.00     0.090 C 
HETATM    6  C12 UNL     1      23.982   2.439  50.474  1.00  0.00     0.114 C 
HETATM    7  C13 UNL     1      22.752   1.948  50.118  1.00  0.00     0.271 C 
HETATM    8  O3  UNL     1      22.735   2.594  49.024  1.00  0.00    -0.266 OA
HETATM    9  N1  UNL     1      22.204   1.108  51.003  1.00  0.00    -0.185 NA
HETATM   10  C14 UNL     1      20.873   0.991  51.190  1.00  0.00     0.182 C 
HETATM   11  C15 UNL     1      20.717   2.067  52.042  1.00  0.00     0.088 C 
ENDROOT
BRANCH   5  12
HETATM   12  C6  UNL     1      25.337   4.422  50.142  1.00  0.00    -0.002 A 
HETATM   13  C7  UNL     1      26.472   3.783  49.650  1.00  0.00     0.014 A 
HETATM   14  C8  UNL     1      27.367   4.505  48.866  1.00  0.00     0.001 A 
HETATM   15  C9  UNL     1      27.152   5.838  48.566  1.00  0.00     0.000 A 
HETATM   16  C10 UNL     1      26.034   6.484  49.044  1.00  0.00     0.001 A 
HETATM   17  C11 UNL     1      25.173   5.746  49.813  1.00  0.00     0.014 A 
ENDBRANCH   5  12
BRANCH   1  18
HETATM   18  O1  UNL     1      19.260   3.575  52.327  1.00  0.00    -0.355 OA
HETATM   19  C1  UNL     1      18.396   3.756  51.225  1.00  0.00     0.210 C 
ENDBRANCH   1  18
BRANCH  10  20
HETATM   20  O4  UNL     1      19.770   0.220  50.832  1.00  0.00    -0.344 OA
HETATM   21  H12 UNL     1      19.755  -0.359  49.985  1.00  0.00     0.219 HD
ENDBRANCH  10  20
BRANCH  11  22
HETATM   22  C16 UNL     1      20.661   1.320  53.309  1.00  0.00     0.277 C 
HETATM   23  O5  UNL     1      20.909   0.381  54.134  1.00  0.00    -0.301 OA
ENDBRANCH  11  22
TORSDOF 4
ENDMDL
MODEL 6
REMARK VINA RESULT:      -6.9      1.682      6.367
REMARK  4 active torsions:
REMARK  status: ('A' for Active; 'I' for Inactive)
REMARK    1  A    between atoms: O1_2  and  C2_3 
REMARK    2  A    between atoms: C5_7  and  C6_8 
REMARK    3  A    between atoms: C14_18  and  O4_19 
REMARK    4  A    between atoms: C15_20  and  C16_21 
ROOT
HETATM    1  C2  UNL     1      22.430   0.569  53.446  1.00  0.00     0.087 C 
HETATM    2  C3  UNL     1      23.418  -0.306  53.874  1.00  0.00     0.062 C 
HETATM    3  C4  UNL     1      24.268  -0.970  53.000  1.00  0.00     0.145 C 
HETATM    4  O2  UNL     1      25.386  -0.902  52.308  1.00  0.00    -0.322 OA
HETATM    5  C5  UNL     1      26.191   0.135  52.384  1.00  0.00     0.090 C 
HETATM    6  C12 UNL     1      25.902   1.448  52.031  1.00  0.00     0.114 C 
HETATM    7  C13 UNL     1      24.974   2.345  52.497  1.00  0.00     0.271 C 
HETATM    8  O3  UNL     1      25.637   2.585  53.554  1.00  0.00    -0.266 OA
HETATM    9  N1  UNL     1      23.916   2.525  51.699  1.00  0.00    -0.185 NA
HETATM   10  C14 UNL     1      22.684   2.829  52.157  1.00  0.00     0.182 C 
HETATM   11  C15 UNL     1      22.289   1.544  52.473  1.00  0.00     0.088 C 
ENDROOT
BRANCH   5  12
HETATM   12  C6  UNL     1      27.539  -0.118  52.895  1.00  0.00    -0.002 A 
HETATM   13  C7  UNL     1      28.318   0.951  53.330  1.00  0.00     0.014 A 
HETATM   14  C8  UNL     1      29.600   0.699  53.814  1.00  0.00     0.001 A 
HETATM   15  C9  UNL     1      30.111  -0.585  53.870  1.00  0.00     0.000 A 
HETATM   16  C10 UNL     1      29.352  -1.652  53.443  1.00  0.00     0.001 A 
HETATM   17  C11 UNL     1      28.097  -1.371  52.973  1.00  0.00     0.014 A 
ENDBRANCH   5  12
BRANCH   1  18
HETATM   18  O1  UNL     1      21.170   0.642  54.027  1.00  0.00    -0.355 OA
HETATM   19  C1  UNL     1      20.490  -0.580  54.224  1.00  0.00     0.210 C 
ENDBRANCH   1  18
BRANCH  10  20
HETATM   20  O4  UNL     1      21.818   3.898  52.374  1.00  0.00    -0.344 OA
HETATM   21  H12 UNL     1      20.884   3.776  52.779  1.00  0.00     0.219 HD
ENDBRANCH  10  20
BRANCH  11  22
HETATM   22  C16 UNL     1      21.459   1.285  51.286  1.00  0.00     0.277 C 
HETATM   23  O5  UNL     1      21.013   0.646  50.278  1.00  0.00    -0.301 OA
ENDBRANCH  11  22
TORSDOF 4
ENDMDL
MODEL 7
REMARK VINA RESULT:      -6.9      2.897      6.268
REMARK  4 active torsions:
REMARK  status: ('A' for Active; 'I' for Inactive)
REMARK    1  A    between atoms: O1_2  and  C2_3 
REMARK    2  A    between atoms: C5_7  and  C6_8 
REMARK    3  A    between atoms: C14_18  and  O4_19 
REMARK    4  A    between atoms: C15_20  and  C16_21 
ROOT
HETATM    1  C2  UNL     1      20.574   3.524  51.655  1.00  0.00     0.087 C 
HETATM    2  C3  UNL     1      20.983   2.253  52.033  1.00  0.00     0.062 C 
HETATM    3  C4  UNL     1      21.804   1.458  51.244  1.00  0.00     0.145 C 
HETATM    4  O2  UNL     1      23.045   1.170  50.913  1.00  0.00    -0.322 OA
HETATM    5  C5  UNL     1      24.075   1.740  51.502  1.00  0.00     0.090 C 
HETATM    6  C12 UNL     1      24.397   3.092  51.502  1.00  0.00     0.114 C 
HETATM    7  C13 UNL     1      23.732   4.198  51.966  1.00  0.00     0.271 C 
HETATM    8  O3  UNL     1      24.018   3.946  53.178  1.00  0.00    -0.266 OA
HETATM    9  N1  UNL     1      23.154   4.946  51.018  1.00  0.00    -0.185 NA
HETATM   10  C14 UNL     1      22.024   5.655  51.219  1.00  0.00     0.182 C 
HETATM   11  C15 UNL     1      21.128   4.622  51.020  1.00  0.00     0.088 C 
ENDROOT
BRANCH   5  12
HETATM   12  C6  UNL     1      24.981   0.856  52.236  1.00  0.00    -0.002 A 
HETATM   13  C7  UNL     1      24.527   0.209  53.381  1.00  0.00     0.014 A 
HETATM   14  C8  UNL     1      25.397  -0.629  54.073  1.00  0.00     0.001 A 
HETATM   15  C9  UNL     1      26.698  -0.831  53.646  1.00  0.00     0.000 A 
HETATM   16  C10 UNL     1      27.162  -0.197  52.516  1.00  0.00     0.001 A 
HETATM   17  C11 UNL     1      26.281   0.621  51.858  1.00  0.00     0.014 A 
ENDBRANCH   5  12
BRANCH   1  18
HETATM   18  O1  UNL     1      19.296   4.016  51.890  1.00  0.00    -0.355 OA
HETATM   19  C1  UNL     1      18.217   3.182  51.527  1.00  0.00     0.210 C 
ENDBRANCH   1  18
BRANCH  10  20
HETATM   20  O4  UNL     1      21.560   6.931  51.523  1.00  0.00    -0.344 OA
HETATM   21  H12 UNL     1      21.942   7.487  52.295  1.00  0.00     0.219 HD
ENDBRANCH  10  20
BRANCH  11  22
HETATM   22  C16 UNL     1      20.737   4.952  49.641  1.00  0.00     0.277 C 
HETATM   23  O5  UNL     1      20.037   4.922  48.576  1.00  0.00    -0.301 OA
ENDBRANCH  11  22
TORSDOF 4
ENDMDL
MODEL 8
REMARK VINA RESULT:      -6.8      8.402     10.967
REMARK  4 active torsions:
REMARK  status: ('A' for Active; 'I' for Inactive)
REMARK    1  A    between atoms: O1_2  and  C2_3 
REMARK    2  A    between atoms: C5_7  and  C6_8 
REMARK    3  A    between atoms: C14_18  and  O4_19 
REMARK    4  A    between atoms: C15_20  and  C16_21 
ROOT
HETATM    1  C2  UNL     1      33.729   5.455  46.729  1.00  0.00     0.087 C 
HETATM    2  C3  UNL     1      32.432   5.013  46.514  1.00  0.00     0.062 C 
HETATM    3  C4  UNL     1      31.573   4.661  47.546  1.00  0.00     0.145 C 
HETATM    4  O2  UNL     1      30.701   5.096  48.431  1.00  0.00    -0.322 OA
HETATM    5  C5  UNL     1      30.325   6.356  48.480  1.00  0.00     0.090 C 
HETATM    6  C12 UNL     1      31.128   7.460  48.740  1.00  0.00     0.114 C 
HETATM    7  C13 UNL     1      32.217   7.983  48.089  1.00  0.00     0.271 C 
HETATM    8  O3  UNL     1      31.506   8.492  47.167  1.00  0.00    -0.266 OA
HETATM    9  N1  UNL     1      33.394   7.735  48.673  1.00  0.00    -0.185 NA
HETATM   10  C14 UNL     1      34.548   7.595  47.987  1.00  0.00     0.182 C 
HETATM   11  C15 UNL     1      34.387   6.269  47.635  1.00  0.00     0.088 C 
ENDROOT
BRANCH   5  12
HETATM   12  C6  UNL     1      28.909   6.627  48.234  1.00  0.00    -0.002 A 
HETATM   13  C7  UNL     1      27.951   5.717  48.674  1.00  0.00     0.014 A 
HETATM   14  C8  UNL     1      26.605   5.985  48.434  1.00  0.00     0.001 A 
HETATM   15  C9  UNL     1      26.204   7.131  47.771  1.00  0.00     0.000 A 
HETATM   16  C10 UNL     1      27.139   8.040  47.330  1.00  0.00     0.001 A 
HETATM   17  C11 UNL     1      28.454   7.747  47.581  1.00  0.00     0.014 A 
ENDBRANCH   5  12
BRANCH   1  18
HETATM   18  O1  UNL     1      34.803   5.095  45.924  1.00  0.00    -0.355 OA
HETATM   19  C1  UNL     1      34.906   3.731  45.575  1.00  0.00     0.210 C 
ENDBRANCH   1  18
BRANCH  10  20
HETATM   20  O4  UNL     1      35.686   8.290  47.587  1.00  0.00    -0.344 OA
HETATM   21  H12 UNL     1      36.214   8.043  46.743  1.00  0.00     0.219 HD
ENDBRANCH  10  20
BRANCH  11  22
HETATM   22  C16 UNL     1      35.268   5.677  48.654  1.00  0.00     0.277 C 
HETATM   23  O5  UNL     1      35.904   5.593  49.755  1.00  0.00    -0.301 OA
ENDBRANCH  11  22
TORSDOF 4
ENDMDL
MODEL 9
REMARK VINA RESULT:      -6.7     11.012     13.129
REMARK  4 active torsions:
REMARK  status: ('A' for Active; 'I' for Inactive)
REMARK    1  A    between atoms: O1_2  and  C2_3 
REMARK    2  A    between atoms: C5_7  and  C6_8 
REMARK    3  A    between atoms: C14_18  and  O4_19 
REMARK    4  A    between atoms: C15_20  and  C16_21 
ROOT
HETATM    1  C2  UNL     1      30.357   9.424  46.836  1.00  0.00     0.087 C 
HETATM    2  C3  UNL     1      31.063   8.606  45.965  1.00  0.00     0.062 C 
HETATM    3  C4  UNL     1      32.449   8.529  45.957  1.00  0.00     0.145 C 
HETATM    4  O2  UNL     1      33.509   7.959  46.491  1.00  0.00    -0.322 OA
HETATM    5  C5  UNL     1      33.410   7.008  47.395  1.00  0.00     0.090 C 
HETATM    6  C12 UNL     1      32.839   7.110  48.658  1.00  0.00     0.114 C 
HETATM    7  C13 UNL     1      31.565   7.407  49.073  1.00  0.00     0.271 C 
HETATM    8  O3  UNL     1      31.124   6.256  48.768  1.00  0.00    -0.266 OA
HETATM    9  N1  UNL     1      31.405   8.645  49.553  1.00  0.00    -0.185 NA
HETATM   10  C14 UNL     1      30.253   9.340  49.447  1.00  0.00     0.182 C 
HETATM   11  C15 UNL     1      30.447   9.810  48.162  1.00  0.00     0.088 C 
ENDROOT
BRANCH   5  12
HETATM   12  C6  UNL     1      33.960   5.702  47.034  1.00  0.00    -0.002 A 
HETATM   13  C7  UNL     1      34.328   4.812  48.040  1.00  0.00     0.014 A 
HETATM   14  C8  UNL     1      34.852   3.571  47.686  1.00  0.00     0.001 A 
HETATM   15  C9  UNL     1      35.012   3.207  46.362  1.00  0.00     0.000 A 
HETATM   16  C10 UNL     1      34.653   4.075  45.355  1.00  0.00     0.001 A 
HETATM   17  C11 UNL     1      34.142   5.288  45.736  1.00  0.00     0.014 A 
ENDBRANCH   5  12
BRANCH   1  18
HETATM   18  O1  UNL     1      29.221  10.134  46.467  1.00  0.00    -0.355 OA
HETATM   19  C1  UNL     1      27.997   9.431  46.492  1.00  0.00     0.210 C 
ENDBRANCH   1  18
BRANCH  10  20
HETATM   20  O4  UNL     1      29.096   9.674  50.145  1.00  0.00    -0.344 OA
HETATM   21  H12 UNL     1      29.081  10.399  50.871  1.00  0.00     0.219 HD
ENDBRANCH  10  20
BRANCH  11  22
HETATM   22  C16 UNL     1      30.888  11.171  48.506  1.00  0.00     0.277 C 
HETATM   23  O5  UNL     1      30.937  12.263  49.161  1.00  0.00    -0.301 OA
ENDBRANCH  11  22
TORSDOF 4
ENDMDL
