MODEL 1
REMARK VINA RESULT:      -7.3      0.000      0.000
REMARK  9 active torsions:
REMARK  status: ('A' for Active; 'I' for Inactive)
REMARK    1  A    between atoms: O1_2  and  N1_3 
REMARK    2  A    between atoms: N1_3  and  C2_4 
REMARK    3  A    between atoms: N1_3  and  C17_22 
REMARK    4  A    between atoms: C3_5  and  C4_6 
REMARK    5  A    between atoms: C4_6  and  C5_7 
REMARK    6  A    between atoms: C5_7  and  C6_8 
REMARK    7  A    between atoms: C7_9  and  N2_10 
REMARK    8  A    between atoms: C18_23  and  C19_24 
REMARK    9  A    between atoms: C19_24  and  N4_25 
ROOT
HETATM    1  C6  UNL     1      26.115   3.364  49.886  1.00  0.00    -0.017 C 
HETATM    2  C7  UNL     1      24.784   3.493  49.690  1.00  0.00    -0.002 C 
HETATM    3  C8  UNL     1      23.781   4.263  48.941  1.00  0.00     0.094 C 
HETATM    4  C9  UNL     1      24.096   5.689  48.769  1.00  0.00    -0.002 A 
HETATM    5  C10 UNL     1      22.851   6.324  48.889  1.00  0.00     0.126 A 
HETATM    6  N3  UNL     1      22.655   7.650  48.799  1.00  0.00    -0.272 NA
HETATM    7  C11 UNL     1      23.687   8.503  48.575  1.00  0.00     0.119 A 
HETATM    8  C12 UNL     1      24.965   7.952  48.443  1.00  0.00     0.057 A 
HETATM    9  C13 UNL     1      25.130   6.566  48.543  1.00  0.00     0.085 A 
HETATM   10  O2  UNL     1      26.481   6.319  48.371  1.00  0.00    -0.315 OA
HETATM   11  C14 UNL     1      27.383   5.306  48.620  1.00  0.00     0.050 C 
HETATM   12  C15 UNL     1      28.777   5.479  48.173  1.00  0.00     0.077 C 
HETATM   13  C16 UNL     1      27.145   4.163  49.233  1.00  0.00     0.045 C 
ENDROOT
BRANCH   1  14
HETATM   14  C5  UNL     1      26.346   2.337  50.837  1.00  0.00     0.013 C 
BRANCH  14  15
HETATM   15  C4  UNL     1      26.715   1.466  51.723  1.00  0.00     0.002 C 
BRANCH  15  16
HETATM   16  C3  UNL     1      27.532   2.102  52.765  1.00  0.00     0.020 C 
HETATM   17  C2  UNL     1      27.992   1.450  53.820  1.00  0.00     0.122 C 
BRANCH  17  18
HETATM   18  N1  UNL     1      27.533   0.092  53.713  1.00  0.00    -0.246 N 
BRANCH  18  19
HETATM   19  O1  UNL     1      28.367  -0.676  52.994  1.00  0.00    -0.279 OA
HETATM   20  C1  UNL     1      29.569  -0.947  53.609  1.00  0.00     0.238 C 
ENDBRANCH  18  19
BRANCH  18  21
HETATM   21  C17 UNL     1      26.304   0.098  54.452  1.00  0.00     0.120 C 
HETATM   22  C18 UNL     1      25.278  -0.691  54.311  1.00  0.00     0.023 C 
BRANCH  22  23
HETATM   23  C19 UNL     1      23.940  -0.953  54.858  1.00  0.00     0.300 C 
BRANCH  23  24
HETATM   24  N4  UNL     1      22.883  -0.920  53.869  1.00  0.00     0.083 N 
HETATM   25  C20 UNL     1      22.777   0.421  53.303  1.00  0.00     0.309 C 
HETATM   26  C21 UNL     1      21.623  -1.323  54.505  1.00  0.00     0.309 C 
ENDBRANCH  23  24
ENDBRANCH  22  23
ENDBRANCH  18  21
ENDBRANCH  17  18
ENDBRANCH  15  16
ENDBRANCH  14  15
ENDBRANCH   1  14
BRANCH   2  27
HETATM   27  N2  UNL     1      24.064   2.569  50.487  1.00  0.00    -0.305 NA
HETATM   28  H8  UNL     1      24.280   1.736  49.898  1.00  0.00     0.124 HD
HETATM   29  H9  UNL     1      24.286   1.709  49.881  1.00  0.00     0.124 HD
ENDBRANCH   2  27
TORSDOF 9
ENDMDL
MODEL 2
REMARK VINA RESULT:      -7.1      2.822      8.584
REMARK  9 active torsions:
REMARK  status: ('A' for Active; 'I' for Inactive)
REMARK    1  A    between atoms: O1_2  and  N1_3 
REMARK    2  A    between atoms: N1_3  and  C2_4 
REMARK    3  A    between atoms: N1_3  and  C17_22 
REMARK    4  A    between atoms: C3_5  and  C4_6 
REMARK    5  A    between atoms: C4_6  and  C5_7 
REMARK    6  A    between atoms: C5_7  and  C6_8 
REMARK    7  A    between atoms: C7_9  and  N2_10 
REMARK    8  A    between atoms: C18_23  and  C19_24 
REMARK    9  A    between atoms: C19_24  and  N4_25 
ROOT
HETATM    1  C6  UNL     1      24.962   2.987  50.679  1.00  0.00    -0.017 C 
HETATM    2  C7  UNL     1      26.047   2.355  51.180  1.00  0.00    -0.002 C 
HETATM    3  C8  UNL     1      26.492   1.086  51.775  1.00  0.00     0.094 C 
HETATM    4  C9  UNL     1      25.519   0.451  52.677  1.00  0.00    -0.002 A 
HETATM    5  C10 UNL     1      26.313  -0.091  53.698  1.00  0.00     0.126 A 
HETATM    6  N3  UNL     1      25.842  -0.773  54.756  1.00  0.00    -0.272 NA
HETATM    7  C11 UNL     1      24.513  -0.996  54.917  1.00  0.00     0.119 A 
HETATM    8  C12 UNL     1      23.648  -0.489  53.942  1.00  0.00     0.057 A 
HETATM    9  C13 UNL     1      24.177   0.216  52.855  1.00  0.00     0.085 A 
HETATM   10  O2  UNL     1      23.099   0.587  52.069  1.00  0.00    -0.315 OA
HETATM   11  C14 UNL     1      22.817   1.495  51.070  1.00  0.00     0.050 C 
HETATM   12  C15 UNL     1      21.477   1.470  50.454  1.00  0.00     0.077 C 
HETATM   13  C16 UNL     1      23.625   2.416  50.581  1.00  0.00     0.045 C 
ENDROOT
BRANCH   1  14
HETATM   14  C5  UNL     1      25.333   4.296  50.276  1.00  0.00     0.013 C 
BRANCH  14  15
HETATM   15  C4  UNL     1      25.661   5.533  50.075  1.00  0.00     0.002 C 
BRANCH  15  16
HETATM   16  C3  UNL     1      25.125   6.007  48.792  1.00  0.00     0.020 C 
HETATM   17  C2  UNL     1      25.741   6.906  48.041  1.00  0.00     0.122 C 
BRANCH  17  18
HETATM   18  N1  UNL     1      26.949   7.277  48.725  1.00  0.00    -0.246 N 
BRANCH  18  19
HETATM   19  O1  UNL     1      26.720   8.103  49.757  1.00  0.00    -0.279 OA
HETATM   20  C1  UNL     1      27.482   9.251  49.751  1.00  0.00     0.238 C 
ENDBRANCH  18  19
BRANCH  18  21
HETATM   21  C17 UNL     1      27.970   6.585  47.993  1.00  0.00     0.120 C 
HETATM   22  C18 UNL     1      29.173   6.279  48.388  1.00  0.00     0.023 C 
BRANCH  22  23
HETATM   23  C19 UNL     1      30.403   5.618  47.932  1.00  0.00     0.300 C 
BRANCH  23  24
HETATM   24  N4  UNL     1      31.485   5.658  48.893  1.00  0.00     0.083 N 
HETATM   25  C20 UNL     1      31.675   7.026  49.365  1.00  0.00     0.309 C 
HETATM   26  C21 UNL     1      32.706   5.147  48.259  1.00  0.00     0.309 C 
ENDBRANCH  23  24
ENDBRANCH  22  23
ENDBRANCH  18  21
ENDBRANCH  17  18
ENDBRANCH  15  16
ENDBRANCH  14  15
ENDBRANCH   1  14
BRANCH   2  27
HETATM   27  N2  UNL     1      27.187   3.195  51.136  1.00  0.00    -0.305 NA
HETATM   28  H8  UNL     1      27.348   3.096  50.111  1.00  0.00     0.124 HD
HETATM   29  H9  UNL     1      27.354   3.094  50.079  1.00  0.00     0.124 HD
ENDBRANCH   2  27
TORSDOF 9
ENDMDL
MODEL 3
REMARK VINA RESULT:      -6.9      2.524      3.662
REMARK  9 active torsions:
REMARK  status: ('A' for Active; 'I' for Inactive)
REMARK    1  A    between atoms: O1_2  and  N1_3 
REMARK    2  A    between atoms: N1_3  and  C2_4 
REMARK    3  A    between atoms: N1_3  and  C17_22 
REMARK    4  A    between atoms: C3_5  and  C4_6 
REMARK    5  A    between atoms: C4_6  and  C5_7 
REMARK    6  A    between atoms: C5_7  and  C6_8 
REMARK    7  A    between atoms: C7_9  and  N2_10 
REMARK    8  A    between atoms: C18_23  and  C19_24 
REMARK    9  A    between atoms: C19_24  and  N4_25 
ROOT
HETATM    1  C6  UNL     1      26.882   5.028  48.945  1.00  0.00    -0.017 C 
HETATM    2  C7  UNL     1      25.943   5.992  48.818  1.00  0.00    -0.002 C 
HETATM    3  C8  UNL     1      25.731   7.362  48.329  1.00  0.00     0.094 C 
HETATM    4  C9  UNL     1      26.859   8.280  48.549  1.00  0.00    -0.002 A 
HETATM    5  C10 UNL     1      26.242   9.499  48.863  1.00  0.00     0.126 A 
HETATM    6  N3  UNL     1      26.895  10.639  49.145  1.00  0.00    -0.272 NA
HETATM    7  C11 UNL     1      28.251  10.694  49.144  1.00  0.00     0.119 A 
HETATM    8  C12 UNL     1      28.947   9.520  48.840  1.00  0.00     0.057 A 
HETATM    9  C13 UNL     1      28.231   8.353  48.552  1.00  0.00     0.085 A 
HETATM   10  O2  UNL     1      29.173   7.371  48.293  1.00  0.00    -0.315 OA
HETATM   11  C14 UNL     1      29.236   5.995  48.237  1.00  0.00     0.050 C 
HETATM   12  C15 UNL     1      30.506   5.365  47.827  1.00  0.00     0.077 C 
HETATM   13  C16 UNL     1      28.270   5.142  48.516  1.00  0.00     0.045 C 
ENDROOT
BRANCH   1  14
HETATM   14  C5  UNL     1      26.301   3.895  49.572  1.00  0.00     0.013 C 
BRANCH  14  15
HETATM   15  C4  UNL     1      25.869   2.767  50.039  1.00  0.00     0.002 C 
BRANCH  15  16
HETATM   16  C3  UNL     1      26.466   2.489  51.352  1.00  0.00     0.020 C 
HETATM   17  C2  UNL     1      25.755   2.404  52.465  1.00  0.00     0.122 C 
BRANCH  17  18
HETATM   18  N1  UNL     1      24.382   2.636  52.111  1.00  0.00    -0.246 N 
BRANCH  18  19
HETATM   19  O1  UNL     1      24.074   3.942  52.081  1.00  0.00    -0.279 OA
HETATM   20  C1  UNL     1      22.760   4.227  52.378  1.00  0.00     0.238 C 
ENDBRANCH  18  19
BRANCH  18  21
HETATM   21  C17 UNL     1      23.859   1.313  51.926  1.00  0.00     0.120 C 
HETATM   22  C18 UNL     1      23.438   0.482  52.836  1.00  0.00     0.023 C 
BRANCH  22  23
HETATM   23  C19 UNL     1      22.876  -0.865  52.995  1.00  0.00     0.300 C 
BRANCH  23  24
HETATM   24  N4  UNL     1      22.037  -1.020  54.165  1.00  0.00     0.083 N 
HETATM   25  C20 UNL     1      21.261   0.197  54.380  1.00  0.00     0.309 C 
HETATM   26  C21 UNL     1      22.886  -1.313  55.326  1.00  0.00     0.309 C 
ENDBRANCH  23  24
ENDBRANCH  22  23
ENDBRANCH  18  21
ENDBRANCH  17  18
ENDBRANCH  15  16
ENDBRANCH  14  15
ENDBRANCH   1  14
BRANCH   2  27
HETATM   27  N2  UNL     1      24.700   5.560  49.344  1.00  0.00    -0.305 NA
HETATM   28  H8  UNL     1      24.455   4.947  48.537  1.00  0.00     0.124 HD
HETATM   29  H9  UNL     1      24.446   4.928  48.512  1.00  0.00     0.124 HD
ENDBRANCH   2  27
TORSDOF 9
ENDMDL
MODEL 4
REMARK VINA RESULT:      -6.9      2.731      8.790
REMARK  9 active torsions:
REMARK  status: ('A' for Active; 'I' for Inactive)
REMARK    1  A    between atoms: O1_2  and  N1_3 
REMARK    2  A    between atoms: N1_3  and  C2_4 
REMARK    3  A    between atoms: N1_3  and  C17_22 
REMARK    4  A    between atoms: C3_5  and  C4_6 
REMARK    5  A    between atoms: C4_6  and  C5_7 
REMARK    6  A    between atoms: C5_7  and  C6_8 
REMARK    7  A    between atoms: C7_9  and  N2_10 
REMARK    8  A    between atoms: C18_23  and  C19_24 
REMARK    9  A    between atoms: C19_24  and  N4_25 
ROOT
HETATM    1  C6  UNL     1      24.975   2.841  50.771  1.00  0.00    -0.017 C 
HETATM    2  C7  UNL     1      26.042   2.216  51.319  1.00  0.00    -0.002 C 
HETATM    3  C8  UNL     1      26.462   0.959  51.954  1.00  0.00     0.094 C 
HETATM    4  C9  UNL     1      25.459   0.346  52.838  1.00  0.00    -0.002 A 
HETATM    5  C10 UNL     1      26.218  -0.178  53.894  1.00  0.00     0.126 A 
HETATM    6  N3  UNL     1      25.712  -0.836  54.950  1.00  0.00    -0.272 NA
HETATM    7  C11 UNL     1      24.377  -1.050  55.075  1.00  0.00     0.119 A 
HETATM    8  C12 UNL     1      23.546  -0.561  54.063  1.00  0.00     0.057 A 
HETATM    9  C13 UNL     1      24.110   0.119  52.979  1.00  0.00     0.085 A 
HETATM   10  O2  UNL     1      23.059   0.478  52.151  1.00  0.00    -0.315 OA
HETATM   11  C14 UNL     1      22.813   1.366  51.126  1.00  0.00     0.050 C 
HETATM   12  C15 UNL     1      21.492   1.334  50.469  1.00  0.00     0.077 C 
HETATM   13  C16 UNL     1      23.639   2.274  50.644  1.00  0.00     0.045 C 
ENDROOT
BRANCH   1  14
HETATM   14  C5  UNL     1      25.365   4.140  50.353  1.00  0.00     0.013 C 
BRANCH  14  15
HETATM   15  C4  UNL     1      25.735   5.258  49.813  1.00  0.00     0.002 C 
BRANCH  15  16
HETATM   16  C3  UNL     1      24.801   5.653  48.750  1.00  0.00     0.020 C 
HETATM   17  C2  UNL     1      24.243   6.851  48.687  1.00  0.00     0.122 C 
BRANCH  17  18
HETATM   18  N1  UNL     1      24.723   7.603  49.814  1.00  0.00    -0.246 N 
BRANCH  18  19
HETATM   19  O1  UNL     1      23.976   7.413  50.913  1.00  0.00    -0.279 OA
HETATM   20  C1  UNL     1      22.619   7.516  50.706  1.00  0.00     0.238 C 
ENDBRANCH  18  19
BRANCH  18  21
HETATM   21  C17 UNL     1      25.865   8.295  49.289  1.00  0.00     0.120 C 
HETATM   22  C18 UNL     1      26.906   8.734  49.937  1.00  0.00     0.023 C 
BRANCH  22  23
HETATM   23  C19 UNL     1      28.177   9.440  49.733  1.00  0.00     0.300 C 
BRANCH  23  24
HETATM   24  N4  UNL     1      29.147   8.696  48.958  1.00  0.00     0.083 N 
HETATM   25  C20 UNL     1      30.498   9.080  49.357  1.00  0.00     0.309 C 
HETATM   26  C21 UNL     1      28.926   8.962  47.531  1.00  0.00     0.309 C 
ENDBRANCH  23  24
ENDBRANCH  22  23
ENDBRANCH  18  21
ENDBRANCH  17  18
ENDBRANCH  15  16
ENDBRANCH  14  15
ENDBRANCH   1  14
BRANCH   2  27
HETATM   27  N2  UNL     1      27.186   3.051  51.293  1.00  0.00    -0.305 NA
HETATM   28  H8  UNL     1      27.165   3.284  52.309  1.00  0.00     0.124 HD
HETATM   29  H9  UNL     1      27.166   3.292  52.341  1.00  0.00     0.124 HD
ENDBRANCH   2  27
TORSDOF 9
ENDMDL
MODEL 5
REMARK VINA RESULT:      -6.8      2.260      8.213
REMARK  9 active torsions:
REMARK  status: ('A' for Active; 'I' for Inactive)
REMARK    1  A    between atoms: O1_2  and  N1_3 
REMARK    2  A    between atoms: N1_3  and  C2_4 
REMARK    3  A    between atoms: N1_3  and  C17_22 
REMARK    4  A    between atoms: C3_5  and  C4_6 
REMARK    5  A    between atoms: C4_6  and  C5_7 
REMARK    6  A    between atoms: C5_7  and  C6_8 
REMARK    7  A    between atoms: C7_9  and  N2_10 
REMARK    8  A    between atoms: C18_23  and  C19_24 
REMARK    9  A    between atoms: C19_24  and  N4_25 
ROOT
HETATM    1  C6  UNL     1      24.966   2.947  50.763  1.00  0.00    -0.017 C 
HETATM    2  C7  UNL     1      26.056   2.326  51.269  1.00  0.00    -0.002 C 
HETATM    3  C8  UNL     1      26.511   1.060  51.859  1.00  0.00     0.094 C 
HETATM    4  C9  UNL     1      25.540   0.406  52.749  1.00  0.00    -0.002 A 
HETATM    5  C10 UNL     1      26.333  -0.132  53.773  1.00  0.00     0.126 A 
HETATM    6  N3  UNL     1      25.862  -0.826  54.823  1.00  0.00    -0.272 NA
HETATM    7  C11 UNL     1      24.535  -1.067  54.972  1.00  0.00     0.119 A 
HETATM    8  C12 UNL     1      23.671  -0.565  53.993  1.00  0.00     0.057 A 
HETATM    9  C13 UNL     1      24.199   0.153  52.915  1.00  0.00     0.085 A 
HETATM   10  O2  UNL     1      23.123   0.516  52.122  1.00  0.00    -0.315 OA
HETATM   11  C14 UNL     1      22.837   1.426  51.127  1.00  0.00     0.050 C 
HETATM   12  C15 UNL     1      21.503   1.388  50.501  1.00  0.00     0.077 C 
HETATM   13  C16 UNL     1      23.637   2.360  50.651  1.00  0.00     0.045 C 
ENDROOT
BRANCH   1  14
HETATM   14  C5  UNL     1      25.324   4.263  50.371  1.00  0.00     0.013 C 
BRANCH  14  15
HETATM   15  C4  UNL     1      25.522   5.518  50.116  1.00  0.00     0.002 C 
BRANCH  15  16
HETATM   16  C3  UNL     1      26.195   5.681  48.820  1.00  0.00     0.020 C 
HETATM   17  C2  UNL     1      26.383   6.860  48.248  1.00  0.00     0.122 C 
BRANCH  17  18
HETATM   18  N1  UNL     1      25.813   7.851  49.119  1.00  0.00    -0.246 N 
BRANCH  18  19
HETATM   19  O1  UNL     1      26.643   8.195  50.116  1.00  0.00    -0.279 OA
HETATM   20  C1  UNL     1      27.610   9.110  49.764  1.00  0.00     0.238 C 
ENDBRANCH  18  19
BRANCH  18  21
HETATM   21  C17 UNL     1      24.518   8.087  48.549  1.00  0.00     0.120 C 
HETATM   22  C18 UNL     1      23.417   8.410  49.166  1.00  0.00     0.023 C 
BRANCH  22  23
HETATM   23  C19 UNL     1      22.001   8.708  48.916  1.00  0.00     0.300 C 
BRANCH  23  24
HETATM   24  N4  UNL     1      21.127   8.388  50.024  1.00  0.00     0.083 N 
HETATM   25  C20 UNL     1      21.428   7.050  50.521  1.00  0.00     0.309 C 
HETATM   26  C21 UNL     1      19.732   8.480  49.575  1.00  0.00     0.309 C 
ENDBRANCH  23  24
ENDBRANCH  22  23
ENDBRANCH  18  21
ENDBRANCH  17  18
ENDBRANCH  15  16
ENDBRANCH  14  15
ENDBRANCH   1  14
BRANCH   2  27
HETATM   27  N2  UNL     1      27.184   3.181  51.239  1.00  0.00    -0.305 NA
HETATM   28  H8  UNL     1      27.288   3.178  50.202  1.00  0.00     0.124 HD
HETATM   29  H9  UNL     1      27.292   3.179  50.169  1.00  0.00     0.124 HD
ENDBRANCH   2  27
TORSDOF 9
ENDMDL
MODEL 6
REMARK VINA RESULT:      -6.8      3.130      7.512
REMARK  9 active torsions:
REMARK  status: ('A' for Active; 'I' for Inactive)
REMARK    1  A    between atoms: O1_2  and  N1_3 
REMARK    2  A    between atoms: N1_3  and  C2_4 
REMARK    3  A    between atoms: N1_3  and  C17_22 
REMARK    4  A    between atoms: C3_5  and  C4_6 
REMARK    5  A    between atoms: C4_6  and  C5_7 
REMARK    6  A    between atoms: C5_7  and  C6_8 
REMARK    7  A    between atoms: C7_9  and  N2_10 
REMARK    8  A    between atoms: C18_23  and  C19_24 
REMARK    9  A    between atoms: C19_24  and  N4_25 
ROOT
HETATM    1  C6  UNL     1      23.890   1.783  51.342  1.00  0.00    -0.017 C 
HETATM    2  C7  UNL     1      23.888   1.337  52.618  1.00  0.00    -0.002 C 
HETATM    3  C8  UNL     1      24.692   1.307  53.848  1.00  0.00     0.094 C 
HETATM    4  C9  UNL     1      26.140   1.153  53.639  1.00  0.00    -0.002 A 
HETATM    5  C10 UNL     1      26.544   0.322  54.693  1.00  0.00     0.126 A 
HETATM    6  N3  UNL     1      27.806  -0.091  54.903  1.00  0.00    -0.272 NA
HETATM    7  C11 UNL     1      28.817   0.282  54.079  1.00  0.00     0.119 A 
HETATM    8  C12 UNL     1      28.500   1.113  53.000  1.00  0.00     0.057 A 
HETATM    9  C13 UNL     1      27.175   1.522  52.814  1.00  0.00     0.085 A 
HETATM   10  O2  UNL     1      27.169   2.325  51.686  1.00  0.00    -0.315 OA
HETATM   11  C14 UNL     1      26.257   2.810  50.773  1.00  0.00     0.050 C 
HETATM   12  C15 UNL     1      26.732   3.738  49.729  1.00  0.00     0.077 C 
HETATM   13  C16 UNL     1      24.968   2.537  50.714  1.00  0.00     0.045 C 
ENDROOT
BRANCH   1  14
HETATM   14  C5  UNL     1      22.682   1.388  50.711  1.00  0.00     0.013 C 
BRANCH  14  15
HETATM   15  C4  UNL     1      21.606   1.159  50.027  1.00  0.00     0.002 C 
BRANCH  15  16
HETATM   16  C3  UNL     1      21.825   1.456  48.605  1.00  0.00     0.020 C 
HETATM   17  C2  UNL     1      21.075   2.305  47.921  1.00  0.00     0.122 C 
BRANCH  17  18
HETATM   18  N1  UNL     1      20.079   2.815  48.824  1.00  0.00    -0.246 N 
BRANCH  18  19
HETATM   19  O1  UNL     1      19.200   1.874  49.201  1.00  0.00    -0.279 OA
HETATM   20  C1  UNL     1      17.954   2.357  49.536  1.00  0.00     0.238 C 
ENDBRANCH  18  19
BRANCH  18  21
HETATM   21  C17 UNL     1      20.437   4.197  48.965  1.00  0.00     0.120 C 
HETATM   22  C18 UNL     1      21.020   4.776  49.976  1.00  0.00     0.023 C 
BRANCH  22  23
HETATM   23  C19 UNL     1      21.504   6.085  50.432  1.00  0.00     0.300 C 
BRANCH  23  24
HETATM   24  N4  UNL     1      22.433   6.016  51.541  1.00  0.00     0.083 N 
HETATM   25  C20 UNL     1      23.803   6.050  51.041  1.00  0.00     0.309 C 
HETATM   26  C21 UNL     1      22.181   4.785  52.299  1.00  0.00     0.309 C 
ENDBRANCH  23  24
ENDBRANCH  22  23
ENDBRANCH  18  21
ENDBRANCH  17  18
ENDBRANCH  15  16
ENDBRANCH  14  15
ENDBRANCH   1  14
BRANCH   2  27
HETATM   27  N2  UNL     1      22.693   0.633  52.906  1.00  0.00    -0.305 NA
HETATM   28  H8  UNL     1      22.233   0.835  51.992  1.00  0.00     0.124 HD
HETATM   29  H9  UNL     1      22.217   0.841  51.964  1.00  0.00     0.124 HD
ENDBRANCH   2  27
TORSDOF 9
ENDMDL
MODEL 7
REMARK VINA RESULT:      -6.6      5.434      9.426
REMARK  9 active torsions:
REMARK  status: ('A' for Active; 'I' for Inactive)
REMARK    1  A    between atoms: O1_2  and  N1_3 
REMARK    2  A    between atoms: N1_3  and  C2_4 
REMARK    3  A    between atoms: N1_3  and  C17_22 
REMARK    4  A    between atoms: C3_5  and  C4_6 
REMARK    5  A    between atoms: C4_6  and  C5_7 
REMARK    6  A    between atoms: C5_7  and  C6_8 
REMARK    7  A    between atoms: C7_9  and  N2_10 
REMARK    8  A    between atoms: C18_23  and  C19_24 
REMARK    9  A    between atoms: C19_24  and  N4_25 
ROOT
HETATM    1  C6  UNL     1      20.877   0.147  53.360  1.00  0.00    -0.017 C 
HETATM    2  C7  UNL     1      21.663  -0.580  54.186  1.00  0.00    -0.002 C 
HETATM    3  C8  UNL     1      23.014  -0.641  54.762  1.00  0.00     0.094 C 
HETATM    4  C9  UNL     1      24.094  -0.227  53.854  1.00  0.00    -0.002 A 
HETATM    5  C10 UNL     1      25.144  -1.104  54.159  1.00  0.00     0.126 A 
HETATM    6  N3  UNL     1      26.349  -1.095  53.565  1.00  0.00    -0.272 NA
HETATM    7  C11 UNL     1      26.648  -0.200  52.590  1.00  0.00     0.119 A 
HETATM    8  C12 UNL     1      25.656   0.715  52.224  1.00  0.00     0.057 A 
HETATM    9  C13 UNL     1      24.413   0.674  52.865  1.00  0.00     0.085 A 
HETATM   10  O2  UNL     1      23.649   1.682  52.303  1.00  0.00    -0.315 OA
HETATM   11  C14 UNL     1      22.320   2.036  52.209  1.00  0.00     0.050 C 
HETATM   12  C15 UNL     1      21.975   3.302  51.536  1.00  0.00     0.077 C 
HETATM   13  C16 UNL     1      21.282   1.359  52.661  1.00  0.00     0.045 C 
ENDROOT
BRANCH   1  14
HETATM   14  C5  UNL     1      19.601  -0.468  53.276  1.00  0.00     0.013 C 
BRANCH  14  15
HETATM   15  C4  UNL     1      18.400  -0.912  53.078  1.00  0.00     0.002 C 
BRANCH  15  16
HETATM   16  C3  UNL     1      17.911  -0.507  51.753  1.00  0.00     0.020 C 
HETATM   17  C2  UNL     1      16.632  -0.542  51.414  1.00  0.00     0.122 C 
BRANCH  17  18
HETATM   18  N1  UNL     1      15.904  -1.035  52.551  1.00  0.00    -0.246 N 
BRANCH  18  19
HETATM   19  O1  UNL     1      15.425  -0.047  53.321  1.00  0.00    -0.279 OA
HETATM   20  C1  UNL     1      14.655   0.878  52.651  1.00  0.00     0.238 C 
ENDBRANCH  18  19
BRANCH  18  21
HETATM   21  C17 UNL     1      15.988  -2.460  52.405  1.00  0.00     0.120 C 
HETATM   22  C18 UNL     1      15.015  -3.326  52.418  1.00  0.00     0.023 C 
BRANCH  22  23
HETATM   23  C19 UNL     1      14.754  -4.767  52.305  1.00  0.00     0.300 C 
BRANCH  23  24
HETATM   24  N4  UNL     1      14.442  -5.410  53.565  1.00  0.00     0.083 N 
HETATM   25  C20 UNL     1      13.440  -4.629  54.283  1.00  0.00     0.309 C 
HETATM   26  C21 UNL     1      15.674  -5.537  54.353  1.00  0.00     0.309 C 
ENDBRANCH  23  24
ENDBRANCH  22  23
ENDBRANCH  18  21
ENDBRANCH  17  18
ENDBRANCH  15  16
ENDBRANCH  14  15
ENDBRANCH   1  14
BRANCH   2  27
HETATM   27  N2  UNL     1      20.963  -1.702  54.693  1.00  0.00    -0.305 NA
HETATM   28  H8  UNL     1      20.906  -2.207  53.783  1.00  0.00     0.124 HD
HETATM   29  H9  UNL     1      20.903  -2.224  53.755  1.00  0.00     0.124 HD
ENDBRANCH   2  27
TORSDOF 9
ENDMDL
MODEL 8
REMARK VINA RESULT:      -6.6      4.032      8.690
REMARK  9 active torsions:
REMARK  status: ('A' for Active; 'I' for Inactive)
REMARK    1  A    between atoms: O1_2  and  N1_3 
REMARK    2  A    between atoms: N1_3  and  C2_4 
REMARK    3  A    between atoms: N1_3  and  C17_22 
REMARK    4  A    between atoms: C3_5  and  C4_6 
REMARK    5  A    between atoms: C4_6  and  C5_7 
REMARK    6  A    between atoms: C5_7  and  C6_8 
REMARK    7  A    between atoms: C7_9  and  N2_10 
REMARK    8  A    between atoms: C18_23  and  C19_24 
REMARK    9  A    between atoms: C19_24  and  N4_25 
ROOT
HETATM    1  C6  UNL     1      26.428   6.054  48.594  1.00  0.00    -0.017 C 
HETATM    2  C7  UNL     1      27.052   4.916  48.976  1.00  0.00    -0.002 C 
HETATM    3  C8  UNL     1      26.803   3.552  49.463  1.00  0.00     0.094 C 
HETATM    4  C9  UNL     1      25.675   3.425  50.398  1.00  0.00    -0.002 A 
HETATM    5  C10 UNL     1      26.115   2.468  51.324  1.00  0.00     0.126 A 
HETATM    6  N3  UNL     1      25.398   2.031  52.374  1.00  0.00    -0.272 NA
HETATM    7  C11 UNL     1      24.150   2.503  52.622  1.00  0.00     0.119 A 
HETATM    8  C12 UNL     1      23.634   3.462  51.745  1.00  0.00     0.057 A 
HETATM    9  C13 UNL     1      24.410   3.891  50.663  1.00  0.00     0.085 A 
HETATM   10  O2  UNL     1      23.648   4.826  49.983  1.00  0.00    -0.315 OA
HETATM   11  C14 UNL     1      23.837   5.834  49.061  1.00  0.00     0.050 C 
HETATM   12  C15 UNL     1      22.653   6.548  48.547  1.00  0.00     0.077 C 
HETATM   13  C16 UNL     1      24.984   6.254  48.566  1.00  0.00     0.045 C 
ENDROOT
BRANCH   1  14
HETATM   14  C5  UNL     1      27.404   7.021  48.239  1.00  0.00     0.013 C 
BRANCH  14  15
HETATM   15  C4  UNL     1      28.162   8.001  47.863  1.00  0.00     0.002 C 
BRANCH  15  16
HETATM   16  C3  UNL     1      28.427   8.910  48.986  1.00  0.00     0.020 C 
HETATM   17  C2  UNL     1      29.622   9.420  49.235  1.00  0.00     0.122 C 
BRANCH  17  18
HETATM   18  N1  UNL     1      30.519   8.910  48.234  1.00  0.00    -0.246 N 
BRANCH  18  19
HETATM   19  O1  UNL     1      30.427   9.579  47.075  1.00  0.00    -0.279 OA
HETATM   20  C1  UNL     1      31.004  10.830  47.088  1.00  0.00     0.238 C 
ENDBRANCH  18  19
BRANCH  18  21
HETATM   21  C17 UNL     1      31.187   7.833  48.906  1.00  0.00     0.120 C 
HETATM   22  C18 UNL     1      31.884   6.868  48.379  1.00  0.00     0.023 C 
BRANCH  22  23
HETATM   23  C19 UNL     1      32.656   5.673  48.742  1.00  0.00     0.300 C 
BRANCH  23  24
HETATM   24  N4  UNL     1      33.895   5.526  48.008  1.00  0.00     0.083 N 
HETATM   25  C20 UNL     1      33.856   4.304  47.211  1.00  0.00     0.309 C 
HETATM   26  C21 UNL     1      35.014   5.498  48.958  1.00  0.00     0.309 C 
ENDBRANCH  23  24
ENDBRANCH  22  23
ENDBRANCH  18  21
ENDBRANCH  17  18
ENDBRANCH  15  16
ENDBRANCH  14  15
ENDBRANCH   1  14
BRANCH   2  27
HETATM   27  N2  UNL     1      28.459   5.060  48.894  1.00  0.00    -0.305 NA
HETATM   28  H8  UNL     1      28.535   5.759  49.664  1.00  0.00     0.124 HD
HETATM   29  H9  UNL     1      28.539   5.781  49.688  1.00  0.00     0.124 HD
ENDBRANCH   2  27
TORSDOF 9
ENDMDL
MODEL 9
REMARK VINA RESULT:      -6.5      1.920      3.577
REMARK  9 active torsions:
REMARK  status: ('A' for Active; 'I' for Inactive)
REMARK    1  A    between atoms: O1_2  and  N1_3 
REMARK    2  A    between atoms: N1_3  and  C2_4 
REMARK    3  A    between atoms: N1_3  and  C17_22 
REMARK    4  A    between atoms: C3_5  and  C4_6 
REMARK    5  A    between atoms: C4_6  and  C5_7 
REMARK    6  A    between atoms: C5_7  and  C6_8 
REMARK    7  A    between atoms: C7_9  and  N2_10 
REMARK    8  A    between atoms: C18_23  and  C19_24 
REMARK    9  A    between atoms: C19_24  and  N4_25 
ROOT
HETATM    1  C6  UNL     1      25.626   4.571  49.299  1.00  0.00    -0.017 C 
HETATM    2  C7  UNL     1      24.525   5.254  48.914  1.00  0.00    -0.002 C 
HETATM    3  C8  UNL     1      24.080   6.387  48.091  1.00  0.00     0.094 C 
HETATM    4  C9  UNL     1      24.983   7.548  48.093  1.00  0.00    -0.002 A 
HETATM    5  C10 UNL     1      24.114   8.648  48.077  1.00  0.00     0.126 A 
HETATM    6  N3  UNL     1      24.505   9.934  48.074  1.00  0.00    -0.272 NA
HETATM    7  C11 UNL     1      25.819  10.272  48.086  1.00  0.00     0.119 A 
HETATM    8  C12 UNL     1      26.755   9.234  48.102  1.00  0.00     0.057 A 
HETATM    9  C13 UNL     1      26.309   7.908  48.105  1.00  0.00     0.085 A 
HETATM   10  O2  UNL     1      27.444   7.114  48.121  1.00  0.00    -0.315 OA
HETATM   11  C14 UNL     1      27.785   5.811  48.416  1.00  0.00     0.050 C 
HETATM   12  C15 UNL     1      29.181   5.383  48.204  1.00  0.00     0.077 C 
HETATM   13  C16 UNL     1      26.991   4.867  48.883  1.00  0.00     0.045 C 
ENDROOT
BRANCH   1  14
HETATM   14  C5  UNL     1      25.239   3.528  50.181  1.00  0.00     0.013 C 
BRANCH  14  15
HETATM   15  C4  UNL     1      24.932   2.469  50.860  1.00  0.00     0.002 C 
BRANCH  15  16
HETATM   16  C3  UNL     1      24.994   2.742  52.302  1.00  0.00     0.020 C 
HETATM   17  C2  UNL     1      24.699   1.838  53.221  1.00  0.00     0.122 C 
BRANCH  17  18
HETATM   18  N1  UNL     1      24.328   0.634  52.530  1.00  0.00    -0.246 N 
BRANCH  18  19
HETATM   19  O1  UNL     1      22.998   0.504  52.404  1.00  0.00    -0.279 OA
HETATM   20  C1  UNL     1      22.486  -0.665  52.922  1.00  0.00     0.238 C 
ENDBRANCH  18  19
BRANCH  18  21
HETATM   21  C17 UNL     1      25.590   0.017  52.240  1.00  0.00     0.120 C 
HETATM   22  C18 UNL     1      26.462  -0.460  53.080  1.00  0.00     0.023 C 
BRANCH  22  23
HETATM   23  C19 UNL     1      27.774  -1.118  53.131  1.00  0.00     0.300 C 
BRANCH  23  24
HETATM   24  N4  UNL     1      28.852  -0.251  53.559  1.00  0.00     0.083 N 
HETATM   25  C20 UNL     1      30.081  -1.025  53.704  1.00  0.00     0.309 C 
HETATM   26  C21 UNL     1      28.479   0.384  54.829  1.00  0.00     0.309 C 
ENDBRANCH  23  24
ENDBRANCH  22  23
ENDBRANCH  18  21
ENDBRANCH  17  18
ENDBRANCH  15  16
ENDBRANCH  14  15
ENDBRANCH   1  14
BRANCH   2  27
HETATM   27  N2  UNL     1      23.359   4.711  49.508  1.00  0.00    -0.305 NA
HETATM   28  H8  UNL     1      23.366   5.338  50.340  1.00  0.00     0.124 HD
HETATM   29  H9  UNL     1      23.365   5.358  50.367  1.00  0.00     0.124 HD
ENDBRANCH   2  27
TORSDOF 9
ENDMDL
