MODEL 1
REMARK VINA RESULT:      -7.7      0.000      0.000
REMARK  4 active torsions:
REMARK  status: ('A' for Active; 'I' for Inactive)
REMARK    1  A    between atoms: C6_7  and  S1_8 
REMARK    2  A    between atoms: S1_8  and  C7_9 
REMARK    3  A    between atoms: C9_12  and  C10_13 
REMARK    4  A    between atoms: C10_13  and  C11_15 
ROOT
HETATM    1  C7  UNL     1      24.049   2.474  51.113  1.00  0.00     0.067 A 
HETATM    2  C8  UNL     1      23.540   3.351  52.175  1.00  0.00     0.144 A 
HETATM    3  N2  UNL     1      22.251   3.210  52.512  1.00  0.00    -0.248 NA
HETATM    4  C9  UNL     1      21.528   2.446  52.023  1.00  0.00     0.144 A 
HETATM    5  S2  UNL     1      22.490   1.479  50.705  1.00  0.00    -0.058 SA
ENDROOT
BRANCH   1   6
HETATM    6  S1  UNL     1      25.941   2.931  50.866  1.00  0.00    -0.064 SA
BRANCH   6   7
HETATM    7  C6  UNL     1      26.780   1.725  51.917  1.00  0.00     0.099 C 
HETATM    8  N1  UNL     1      26.337   0.560  51.626  1.00  0.00    -0.256 NA
HETATM    9  C5  UNL     1      26.766  -0.665  52.252  1.00  0.00     0.116 C 
HETATM   10  C4  UNL     1      27.794  -0.831  53.098  1.00  0.00     0.029 C 
HETATM   11  C2  UNL     1      28.797   0.134  53.658  1.00  0.00     0.073 C 
HETATM   12  C1  UNL     1      30.147  -0.564  53.494  1.00  0.00     0.050 C 
HETATM   13  C3  UNL     1      28.579   0.286  55.122  1.00  0.00     0.050 C 
HETATM   14  O2  UNL     1      28.896   1.298  52.947  1.00  0.00    -0.370 OA
HETATM   15  C16 UNL     1      27.796   2.121  52.917  1.00  0.00     0.236 C 
ENDBRANCH   6   7
ENDBRANCH   1   6
BRANCH   4  16
HETATM   16  C10 UNL     1      20.139   1.914  52.009  1.00  0.00     0.189 C 
HETATM   17  O1  UNL     1      19.079   2.538  51.824  1.00  0.00    -0.290 OA
BRANCH  16  18
HETATM   18  C11 UNL     1      20.111   0.460  52.251  1.00  0.00     0.066 C 
HETATM   19  C12 UNL     1      20.460   0.257  53.717  1.00  0.00     0.042 C 
HETATM   20  C13 UNL     1      20.471  -1.214  54.074  1.00  0.00     0.270 C 
HETATM   21  N3  UNL     1      19.178  -1.793  53.815  1.00  0.00     0.083 N 
HETATM   22  C14 UNL     1      18.231  -0.876  53.224  1.00  0.00     0.270 C 
HETATM   23  H15 UNL     1      18.777  -2.083  54.732  1.00  0.00     0.315 HD
HETATM   24  C15 UNL     1      18.755  -0.154  52.023  1.00  0.00     0.042 C 
ENDBRANCH  16  18
ENDBRANCH   4  16
TORSDOF 4
ENDMDL
MODEL 2
REMARK VINA RESULT:      -7.6      1.879      7.565
REMARK  4 active torsions:
REMARK  status: ('A' for Active; 'I' for Inactive)
REMARK    1  A    between atoms: C6_7  and  S1_8 
REMARK    2  A    between atoms: S1_8  and  C7_9 
REMARK    3  A    between atoms: C9_12  and  C10_13 
REMARK    4  A    between atoms: C10_13  and  C11_15 
ROOT
HETATM    1  C7  UNL     1      24.604   3.319  51.895  1.00  0.00     0.067 A 
HETATM    2  C8  UNL     1      24.582   2.987  53.325  1.00  0.00     0.144 A 
HETATM    3  N2  UNL     1      25.637   2.317  53.809  1.00  0.00    -0.248 NA
HETATM    4  C9  UNL     1      26.551   1.990  53.173  1.00  0.00     0.144 A 
HETATM    5  S2  UNL     1      26.268   2.567  51.389  1.00  0.00    -0.058 SA
ENDROOT
BRANCH   1   6
HETATM    6  S1  UNL     1      22.939   4.285  51.516  1.00  0.00    -0.064 SA
BRANCH   6   7
HETATM    7  C6  UNL     1      21.719   2.954  51.440  1.00  0.00     0.099 C 
HETATM    8  N1  UNL     1      22.160   2.048  50.652  1.00  0.00    -0.256 NA
HETATM    9  C5  UNL     1      21.468   0.825  50.334  1.00  0.00     0.116 C 
HETATM   10  C4  UNL     1      20.359   0.341  50.914  1.00  0.00     0.029 C 
HETATM   11  C2  UNL     1      19.501   0.865  52.028  1.00  0.00     0.073 C 
HETATM   12  C1  UNL     1      19.276  -0.335  52.947  1.00  0.00     0.050 C 
HETATM   13  C3  UNL     1      18.165   1.240  51.492  1.00  0.00     0.050 C 
HETATM   14  O2  UNL     1      20.119   1.809  52.800  1.00  0.00    -0.370 OA
HETATM   15  C16 UNL     1      20.452   3.001  52.203  1.00  0.00     0.236 C 
ENDBRANCH   6   7
ENDBRANCH   1   6
BRANCH   4  16
HETATM   16  C10 UNL     1      27.866   1.295  53.190  1.00  0.00     0.189 C 
HETATM   17  O1  UNL     1      28.986   1.765  52.923  1.00  0.00    -0.290 OA
BRANCH  16  18
HETATM   18  C11 UNL     1      27.728  -0.119  53.585  1.00  0.00     0.066 C 
HETATM   19  C12 UNL     1      27.243  -0.868  52.354  1.00  0.00     0.042 C 
HETATM   20  C13 UNL     1      27.056  -2.340  52.654  1.00  0.00     0.270 C 
HETATM   21  N3  UNL     1      28.301  -2.915  53.091  1.00  0.00     0.083 N 
HETATM   22  C14 UNL     1      29.380  -1.961  53.208  1.00  0.00     0.270 C 
HETATM   23  H15 UNL     1      28.595  -3.608  52.371  1.00  0.00     0.315 HD
HETATM   24  C15 UNL     1      29.031  -0.745  54.007  1.00  0.00     0.042 C 
ENDBRANCH  16  18
ENDBRANCH   4  16
TORSDOF 4
ENDMDL
MODEL 3
REMARK VINA RESULT:      -7.5      3.410      7.292
REMARK  4 active torsions:
REMARK  status: ('A' for Active; 'I' for Inactive)
REMARK    1  A    between atoms: C6_7  and  S1_8 
REMARK    2  A    between atoms: S1_8  and  C7_9 
REMARK    3  A    between atoms: C9_12  and  C10_13 
REMARK    4  A    between atoms: C10_13  and  C11_15 
ROOT
HETATM    1  C7  UNL     1      23.475   2.288  52.138  1.00  0.00     0.067 A 
HETATM    2  C8  UNL     1      22.854   0.969  52.311  1.00  0.00     0.144 A 
HETATM    3  N2  UNL     1      23.548   0.057  53.004  1.00  0.00    -0.248 NA
HETATM    4  C9  UNL     1      24.595   0.247  53.468  1.00  0.00     0.144 A 
HETATM    5  S2  UNL     1      25.106   2.029  53.066  1.00  0.00    -0.058 SA
ENDROOT
BRANCH   1   6
HETATM    6  S1  UNL     1      22.215   3.370  51.094  1.00  0.00    -0.064 SA
BRANCH   6   7
HETATM    7  C6  UNL     1      23.270   4.683  50.440  1.00  0.00     0.099 C 
HETATM    8  N1  UNL     1      23.531   5.500  51.388  1.00  0.00    -0.256 NA
HETATM    9  C5  UNL     1      24.347   6.681  51.258  1.00  0.00     0.116 C 
HETATM   10  C4  UNL     1      25.100   7.039  50.207  1.00  0.00     0.029 C 
HETATM   11  C2  UNL     1      25.347   6.382  48.881  1.00  0.00     0.073 C 
HETATM   12  C1  UNL     1      26.861   6.442  48.689  1.00  0.00     0.050 C 
HETATM   13  C3  UNL     1      24.754   7.211  47.797  1.00  0.00     0.050 C 
HETATM   14  O2  UNL     1      25.025   5.053  48.858  1.00  0.00    -0.370 OA
HETATM   15  C16 UNL     1      23.704   4.715  49.025  1.00  0.00     0.236 C 
ENDBRANCH   6   7
ENDBRANCH   1   6
BRANCH   4  16
HETATM   16  C10 UNL     1      25.709  -0.346  54.255  1.00  0.00     0.189 C 
HETATM   17  O1  UNL     1      25.639  -1.008  55.306  1.00  0.00    -0.290 OA
BRANCH  16  18
HETATM   18  C11 UNL     1      27.019  -0.065  53.640  1.00  0.00     0.066 C 
HETATM   19  C12 UNL     1      27.985   0.209  54.782  1.00  0.00     0.042 C 
HETATM   20  C13 UNL     1      29.370   0.523  54.258  1.00  0.00     0.270 C 
HETATM   21  N3  UNL     1      29.864  -0.585  53.482  1.00  0.00     0.083 N 
HETATM   22  C14 UNL     1      28.918  -1.667  53.332  1.00  0.00     0.270 C 
HETATM   23  H15 UNL     1      30.686  -0.979  53.988  1.00  0.00     0.315 HD
HETATM   24  C15 UNL     1      27.568  -1.230  52.859  1.00  0.00     0.042 C 
ENDBRANCH  16  18
ENDBRANCH   4  16
TORSDOF 4
ENDMDL
MODEL 4
REMARK VINA RESULT:      -7.3      3.899      7.257
REMARK  4 active torsions:
REMARK  status: ('A' for Active; 'I' for Inactive)
REMARK    1  A    between atoms: C6_7  and  S1_8 
REMARK    2  A    between atoms: S1_8  and  C7_9 
REMARK    3  A    between atoms: C9_12  and  C10_13 
REMARK    4  A    between atoms: C10_13  and  C11_15 
ROOT
HETATM    1  C7  UNL     1      24.130   3.191  52.468  1.00  0.00     0.067 A 
HETATM    2  C8  UNL     1      23.230   2.032  52.405  1.00  0.00     0.144 A 
HETATM    3  N2  UNL     1      23.692   0.878  52.905  1.00  0.00    -0.248 NA
HETATM    4  C9  UNL     1      24.743   0.745  53.377  1.00  0.00     0.144 A 
HETATM    5  S2  UNL     1      25.642   2.414  53.303  1.00  0.00    -0.058 SA
ENDROOT
BRANCH   1   6
HETATM    6  S1  UNL     1      23.163   4.697  51.664  1.00  0.00    -0.064 SA
BRANCH   6   7
HETATM    7  C6  UNL     1      24.437   5.496  50.663  1.00  0.00     0.099 C 
HETATM    8  N1  UNL     1      25.155   4.585  50.124  1.00  0.00    -0.256 NA
HETATM    9  C5  UNL     1      26.276   4.827  49.252  1.00  0.00     0.116 C 
HETATM   10  C4  UNL     1      26.655   5.999  48.718  1.00  0.00     0.029 C 
HETATM   11  C2  UNL     1      26.085   7.382  48.831  1.00  0.00     0.073 C 
HETATM   12  C1  UNL     1      26.043   7.908  47.398  1.00  0.00     0.050 C 
HETATM   13  C3  UNL     1      27.039   8.254  49.570  1.00  0.00     0.050 C 
HETATM   14  O2  UNL     1      24.791   7.409  49.272  1.00  0.00    -0.370 OA
HETATM   15  C16 UNL     1      24.545   6.967  50.550  1.00  0.00     0.236 C 
ENDBRANCH   6   7
ENDBRANCH   1   6
BRANCH   4  16
HETATM   16  C10 UNL     1      25.681  -0.213  54.022  1.00  0.00     0.189 C 
HETATM   17  O1  UNL     1      25.440  -1.033  54.925  1.00  0.00    -0.290 OA
BRANCH  16  18
HETATM   18  C11 UNL     1      27.039  -0.107  53.457  1.00  0.00     0.066 C 
HETATM   19  C12 UNL     1      27.985   0.077  54.634  1.00  0.00     0.042 C 
HETATM   20  C13 UNL     1      29.418   0.209  54.162  1.00  0.00     0.270 C 
HETATM   21  N3  UNL     1      29.804  -0.969  53.430  1.00  0.00     0.083 N 
HETATM   22  C14 UNL     1      28.741  -1.932  53.261  1.00  0.00     0.270 C 
HETATM   23  H15 UNL     1      30.551  -1.446  53.978  1.00  0.00     0.315 HD
HETATM   24  C15 UNL     1      27.474  -1.348  52.723  1.00  0.00     0.042 C 
ENDBRANCH  16  18
ENDBRANCH   4  16
TORSDOF 4
ENDMDL
MODEL 5
REMARK VINA RESULT:      -7.2      4.895      7.084
REMARK  4 active torsions:
REMARK  status: ('A' for Active; 'I' for Inactive)
REMARK    1  A    between atoms: C6_7  and  S1_8 
REMARK    2  A    between atoms: S1_8  and  C7_9 
REMARK    3  A    between atoms: C9_12  and  C10_13 
REMARK    4  A    between atoms: C10_13  and  C11_15 
ROOT
HETATM    1  C7  UNL     1      25.953   5.027  49.519  1.00  0.00     0.067 A 
HETATM    2  C8  UNL     1      24.837   5.206  50.457  1.00  0.00     0.144 A 
HETATM    3  N2  UNL     1      24.502   4.149  51.209  1.00  0.00    -0.248 NA
HETATM    4  C9  UNL     1      25.034   3.119  51.163  1.00  0.00     0.144 A 
HETATM    5  S2  UNL     1      26.414   3.223  49.865  1.00  0.00    -0.058 SA
ENDROOT
BRANCH   1   6
HETATM    6  S1  UNL     1      26.183   6.738  48.586  1.00  0.00    -0.064 SA
BRANCH   6   7
HETATM    7  C6  UNL     1      27.979   6.889  48.474  1.00  0.00     0.099 C 
HETATM    8  N1  UNL     1      28.304   8.082  48.801  1.00  0.00    -0.256 NA
HETATM    9  C5  UNL     1      29.653   8.589  48.834  1.00  0.00     0.116 C 
HETATM   10  C4  UNL     1      30.790   7.889  48.707  1.00  0.00     0.029 C 
HETATM   11  C2  UNL     1      31.048   6.425  48.498  1.00  0.00     0.073 C 
HETATM   12  C1  UNL     1      32.142   6.072  49.504  1.00  0.00     0.050 C 
HETATM   13  C3  UNL     1      31.634   6.211  47.147  1.00  0.00     0.050 C 
HETATM   14  O2  UNL     1      29.983   5.629  48.818  1.00  0.00    -0.370 OA
HETATM   15  C16 UNL     1      28.842   5.758  48.064  1.00  0.00     0.236 C 
ENDBRANCH   6   7
ENDBRANCH   1   6
BRANCH   4  16
HETATM   16  C10 UNL     1      25.072   1.737  51.712  1.00  0.00     0.189 C 
HETATM   17  O1  UNL     1      24.115   0.983  51.962  1.00  0.00    -0.290 OA
BRANCH  16  18
HETATM   18  C11 UNL     1      26.455   1.288  51.959  1.00  0.00     0.066 C 
HETATM   19  C12 UNL     1      26.884   1.912  53.278  1.00  0.00     0.042 C 
HETATM   20  C13 UNL     1      28.306   1.521  53.624  1.00  0.00     0.270 C 
HETATM   21  N3  UNL     1      28.411   0.089  53.726  1.00  0.00     0.083 N 
HETATM   22  C14 UNL     1      27.190  -0.615  53.409  1.00  0.00     0.270 C 
HETATM   23  H15 UNL     1      28.635  -0.138  54.718  1.00  0.00     0.315 HD
HETATM   24  C15 UNL     1      26.575  -0.205  52.108  1.00  0.00     0.042 C 
ENDBRANCH  16  18
ENDBRANCH   4  16
TORSDOF 4
ENDMDL
MODEL 6
REMARK VINA RESULT:      -7.0      4.484      7.265
REMARK  4 active torsions:
REMARK  status: ('A' for Active; 'I' for Inactive)
REMARK    1  A    between atoms: C6_7  and  S1_8 
REMARK    2  A    between atoms: S1_8  and  C7_9 
REMARK    3  A    between atoms: C9_12  and  C10_13 
REMARK    4  A    between atoms: C10_13  and  C11_15 
ROOT
HETATM    1  C7  UNL     1      24.866   3.182  50.801  1.00  0.00     0.067 A 
HETATM    2  C8  UNL     1      23.745   4.125  50.901  1.00  0.00     0.144 A 
HETATM    3  N2  UNL     1      23.866   5.284  50.240  1.00  0.00    -0.248 NA
HETATM    4  C9  UNL     1      24.790   5.579  49.603  1.00  0.00     0.144 A 
HETATM    5  S2  UNL     1      26.042   4.156  49.681  1.00  0.00    -0.058 SA
ENDROOT
BRANCH   1   6
HETATM    6  S1  UNL     1      24.375   1.611  51.869  1.00  0.00    -0.064 SA
BRANCH   6   7
HETATM    7  C6  UNL     1      25.873   1.304  52.831  1.00  0.00     0.099 C 
HETATM    8  N1  UNL     1      25.582   0.500  53.783  1.00  0.00    -0.256 NA
HETATM    9  C5  UNL     1      26.516   0.017  54.768  1.00  0.00     0.116 C 
HETATM   10  C4  UNL     1      27.849   0.170  54.771  1.00  0.00     0.029 C 
HETATM   11  C2  UNL     1      28.782   0.853  53.813  1.00  0.00     0.073 C 
HETATM   12  C1  UNL     1      29.920  -0.143  53.597  1.00  0.00     0.050 C 
HETATM   13  C3  UNL     1      29.385   2.043  54.471  1.00  0.00     0.050 C 
HETATM   14  O2  UNL     1      28.239   1.067  52.577  1.00  0.00    -0.370 OA
HETATM   15  C16 UNL     1      27.171   1.927  52.491  1.00  0.00     0.236 C 
ENDBRANCH   6   7
ENDBRANCH   1   6
BRANCH   4  16
HETATM   16  C10 UNL     1      25.396   6.630  48.743  1.00  0.00     0.189 C 
HETATM   17  O1  UNL     1      24.917   7.161  47.725  1.00  0.00    -0.290 OA
BRANCH  16  18
HETATM   18  C11 UNL     1      26.726   7.034  49.234  1.00  0.00     0.066 C 
HETATM   19  C12 UNL     1      27.576   7.313  48.005  1.00  0.00     0.042 C 
HETATM   20  C13 UNL     1      28.978   7.728  48.397  1.00  0.00     0.270 C 
HETATM   21  N3  UNL     1      28.930   8.914  49.213  1.00  0.00     0.083 N 
HETATM   22  C14 UNL     1      27.592   9.366  49.514  1.00  0.00     0.270 C 
HETATM   23  H15 UNL     1      29.388   9.680  48.676  1.00  0.00     0.315 HD
HETATM   24  C15 UNL     1      26.697   8.296  50.055  1.00  0.00     0.042 C 
ENDBRANCH  16  18
ENDBRANCH   4  16
TORSDOF 4
ENDMDL
MODEL 7
REMARK VINA RESULT:      -6.9      1.936      2.430
REMARK  4 active torsions:
REMARK  status: ('A' for Active; 'I' for Inactive)
REMARK    1  A    between atoms: C6_7  and  S1_8 
REMARK    2  A    between atoms: S1_8  and  C7_9 
REMARK    3  A    between atoms: C9_12  and  C10_13 
REMARK    4  A    between atoms: C10_13  and  C11_15 
ROOT
HETATM    1  C7  UNL     1      22.336   2.320  51.257  1.00  0.00     0.067 A 
HETATM    2  C8  UNL     1      22.000   1.354  50.204  1.00  0.00     0.144 A 
HETATM    3  N2  UNL     1      20.742   0.895  50.180  1.00  0.00    -0.248 NA
HETATM    4  C9  UNL     1      19.917   1.213  50.932  1.00  0.00     0.144 A 
HETATM    5  S2  UNL     1      20.671   2.457  52.149  1.00  0.00    -0.058 SA
ENDROOT
BRANCH   1   6
HETATM    6  S1  UNL     1      24.227   2.784  51.011  1.00  0.00    -0.064 SA
BRANCH   6   7
HETATM    7  C6  UNL     1      25.075   1.488  51.941  1.00  0.00     0.099 C 
HETATM    8  N1  UNL     1      24.245   0.977  52.768  1.00  0.00    -0.256 NA
HETATM    9  C5  UNL     1      24.550  -0.090  53.688  1.00  0.00     0.116 C 
HETATM   10  C4  UNL     1      25.662  -0.838  53.729  1.00  0.00     0.029 C 
HETATM   11  C2  UNL     1      26.905  -0.833  52.887  1.00  0.00     0.073 C 
HETATM   12  C1  UNL     1      27.156  -2.301  52.548  1.00  0.00     0.050 C 
HETATM   13  C3  UNL     1      28.062  -0.388  53.711  1.00  0.00     0.050 C 
HETATM   14  O2  UNL     1      26.752  -0.198  51.686  1.00  0.00    -0.370 OA
HETATM   15  C16 UNL     1      26.497   1.152  51.707  1.00  0.00     0.236 C 
ENDBRANCH   6   7
ENDBRANCH   1   6
BRANCH   4  16
HETATM   16  C10 UNL     1      18.495   1.037  51.332  1.00  0.00     0.189 C 
HETATM   17  O1  UNL     1      17.619   1.912  51.459  1.00  0.00    -0.290 OA
BRANCH  16  18
HETATM   18  C11 UNL     1      18.173  -0.378  51.590  1.00  0.00     0.066 C 
HETATM   19  C12 UNL     1      18.412  -0.615  53.073  1.00  0.00     0.042 C 
HETATM   20  C13 UNL     1      18.120  -2.053  53.446  1.00  0.00     0.270 C 
HETATM   21  N3  UNL     1      16.751  -2.373  53.135  1.00  0.00     0.083 N 
HETATM   22  C14 UNL     1      16.028  -1.302  52.491  1.00  0.00     0.270 C 
HETATM   23  H15 UNL     1      16.262  -2.561  54.035  1.00  0.00     0.315 HD
HETATM   24  C15 UNL     1      16.734  -0.720  51.307  1.00  0.00     0.042 C 
ENDBRANCH  16  18
ENDBRANCH   4  16
TORSDOF 4
ENDMDL
MODEL 8
REMARK VINA RESULT:      -6.9      4.419      6.952
REMARK  4 active torsions:
REMARK  status: ('A' for Active; 'I' for Inactive)
REMARK    1  A    between atoms: C6_7  and  S1_8 
REMARK    2  A    between atoms: S1_8  and  C7_9 
REMARK    3  A    between atoms: C9_12  and  C10_13 
REMARK    4  A    between atoms: C10_13  and  C11_15 
ROOT
HETATM    1  C7  UNL     1      23.699   4.632  51.099  1.00  0.00     0.067 A 
HETATM    2  C8  UNL     1      23.727   4.670  52.567  1.00  0.00     0.144 A 
HETATM    3  N2  UNL     1      24.012   3.523  53.198  1.00  0.00    -0.248 NA
HETATM    4  C9  UNL     1      24.235   2.520  52.661  1.00  0.00     0.144 A 
HETATM    5  S2  UNL     1      24.121   2.811  50.790  1.00  0.00    -0.058 SA
ENDROOT
BRANCH   1   6
HETATM    6  S1  UNL     1      23.258   6.446  50.498  1.00  0.00    -0.064 SA
BRANCH   6   7
HETATM    7  C6  UNL     1      24.791   6.986  49.711  1.00  0.00     0.099 C 
HETATM    8  N1  UNL     1      25.367   7.826  50.485  1.00  0.00    -0.256 NA
HETATM    9  C5  UNL     1      26.619   8.482  50.204  1.00  0.00     0.116 C 
HETATM   10  C4  UNL     1      27.472   8.216  49.203  1.00  0.00     0.029 C 
HETATM   11  C2  UNL     1      27.430   7.208  48.092  1.00  0.00     0.073 C 
HETATM   12  C1  UNL     1      28.821   6.577  48.083  1.00  0.00     0.050 C 
HETATM   13  C3  UNL     1      27.278   7.909  46.789  1.00  0.00     0.050 C 
HETATM   14  O2  UNL     1      26.560   6.178  48.318  1.00  0.00    -0.370 OA
HETATM   15  C16 UNL     1      25.221   6.479  48.389  1.00  0.00     0.236 C 
ENDBRANCH   6   7
ENDBRANCH   1   6
BRANCH   4  16
HETATM   16  C10 UNL     1      24.578   1.084  52.846  1.00  0.00     0.189 C 
HETATM   17  O1  UNL     1      23.808   0.106  52.856  1.00  0.00    -0.290 OA
BRANCH  16  18
HETATM   18  C11 UNL     1      26.027   0.890  53.031  1.00  0.00     0.066 C 
HETATM   19  C12 UNL     1      26.221   0.412  54.462  1.00  0.00     0.042 C 
HETATM   20  C13 UNL     1      27.688   0.191  54.765  1.00  0.00     0.270 C 
HETATM   21  N3  UNL     1      28.234  -0.792  53.865  1.00  0.00     0.083 N 
HETATM   22  C14 UNL     1      27.298  -1.261  52.869  1.00  0.00     0.270 C 
HETATM   23  H15 UNL     1      28.502  -1.622  54.434  1.00  0.00     0.315 HD
HETATM   24  C15 UNL     1      26.605  -0.164  52.124  1.00  0.00     0.042 C 
ENDBRANCH  16  18
ENDBRANCH   4  16
TORSDOF 4
ENDMDL
MODEL 9
REMARK VINA RESULT:      -6.8      4.483      5.689
REMARK  4 active torsions:
REMARK  status: ('A' for Active; 'I' for Inactive)
REMARK    1  A    between atoms: C6_7  and  S1_8 
REMARK    2  A    between atoms: S1_8  and  C7_9 
REMARK    3  A    between atoms: C9_12  and  C10_13 
REMARK    4  A    between atoms: C10_13  and  C11_15 
ROOT
HETATM    1  C7  UNL     1      23.646   4.290  50.461  1.00  0.00     0.067 A 
HETATM    2  C8  UNL     1      23.272   3.087  49.708  1.00  0.00     0.144 A 
HETATM    3  N2  UNL     1      23.292   1.924  50.373  1.00  0.00    -0.248 NA
HETATM    4  C9  UNL     1      23.582   1.817  51.492  1.00  0.00     0.144 A 
HETATM    5  S2  UNL     1      24.006   3.540  52.162  1.00  0.00    -0.058 SA
ENDROOT
BRANCH   1   6
HETATM    6  S1  UNL     1      23.514   5.798  49.212  1.00  0.00    -0.064 SA
BRANCH   6   7
HETATM    7  C6  UNL     1      25.246   6.209  48.905  1.00  0.00     0.099 C 
HETATM    8  N1  UNL     1      25.930   5.129  48.948  1.00  0.00    -0.256 NA
HETATM    9  C5  UNL     1      27.355   5.048  48.751  1.00  0.00     0.116 C 
HETATM   10  C4  UNL     1      28.176   6.021  48.328  1.00  0.00     0.029 C 
HETATM   11  C2  UNL     1      27.921   7.447  47.933  1.00  0.00     0.073 C 
HETATM   12  C1  UNL     1      28.685   7.634  46.624  1.00  0.00     0.050 C 
HETATM   13  C3  UNL     1      28.556   8.358  48.924  1.00  0.00     0.050 C 
HETATM   14  O2  UNL     1      26.612   7.709  47.638  1.00  0.00    -0.370 OA
HETATM   15  C16 UNL     1      25.695   7.597  48.655  1.00  0.00     0.236 C 
ENDBRANCH   6   7
ENDBRANCH   1   6
BRANCH   4  16
HETATM   16  C10 UNL     1      23.760   0.867  52.623  1.00  0.00     0.189 C 
HETATM   17  O1  UNL     1      24.745   0.739  53.371  1.00  0.00    -0.290 OA
BRANCH  16  18
HETATM   18  C11 UNL     1      22.572   0.012  52.806  1.00  0.00     0.066 C 
HETATM   19  C12 UNL     1      22.828  -0.824  54.050  1.00  0.00     0.042 C 
HETATM   20  C13 UNL     1      21.665  -1.754  54.327  1.00  0.00     0.270 C 
HETATM   21  N3  UNL     1      20.459  -0.990  54.514  1.00  0.00     0.083 N 
HETATM   22  C14 UNL     1      20.627   0.431  54.325  1.00  0.00     0.270 C 
HETATM   23  H15 UNL     1      20.156  -1.124  55.502  1.00  0.00     0.315 HD
HETATM   24  C15 UNL     1      21.309   0.796  53.044  1.00  0.00     0.042 C 
ENDBRANCH  16  18
ENDBRANCH   4  16
TORSDOF 4
ENDMDL
