MODEL 1
REMARK VINA RESULT:      -7.1      0.000      0.000
REMARK  9 active torsions:
REMARK  status: ('A' for Active; 'I' for Inactive)
REMARK    1  A    between atoms: C3_3  and  C4_4 
REMARK    2  A    between atoms: C5_5  and  C6_6 
REMARK    3  A    between atoms: C6_6  and  O1_7 
REMARK    4  A    between atoms: O1_7  and  C7_8 
REMARK    5  A    between atoms: C10_11  and  C11_12 
REMARK    6  A    between atoms: C11_12  and  C12_13 
REMARK    7  A    between atoms: C14_16  and  N2_17 
REMARK    8  A    between atoms: C15_19  and  N4_20 
REMARK    9  A    between atoms: C17_22  and  O2_23 
ROOT
HETATM    1  C1  UNL     1      14.125  -2.268  51.311  1.00  0.00     0.112 C 
HETATM    2  C2  UNL     1      15.450  -1.650  51.535  1.00  0.00    -0.106 C 
HETATM    3  C3  UNL     1      16.537  -1.145  51.724  1.00  0.00    -0.079 C 
ENDROOT
BRANCH   3   4
HETATM    4  C4  UNL     1      17.816  -0.531  51.947  1.00  0.00     0.062 C 
HETATM    5  C5  UNL     1      18.348   0.228  50.982  1.00  0.00     0.008 C 
BRANCH   5   6
HETATM    6  C6  UNL     1      19.652   0.894  51.124  1.00  0.00     0.204 C 
BRANCH   6   7
HETATM    7  O1  UNL     1      20.486   0.048  51.880  1.00  0.00    -0.345 OA
BRANCH   7   8
HETATM    8  C7  UNL     1      21.818   0.382  52.073  1.00  0.00     0.102 A 
HETATM    9  C8  UNL     1      22.361   1.326  51.205  1.00  0.00     0.040 A 
HETATM   10  C9  UNL     1      23.671   1.684  51.362  1.00  0.00     0.010 A 
HETATM   11  C10 UNL     1      24.399   1.086  52.383  1.00  0.00    -0.051 A 
HETATM   12  C16 UNL     1      23.859   0.159  53.234  1.00  0.00     0.047 A 
HETATM   13  C17 UNL     1      22.543  -0.227  53.107  1.00  0.00     0.102 A 
BRANCH  11  14
HETATM   14  C11 UNL     1      25.810   1.527  52.486  1.00  0.00     0.082 C 
BRANCH  14  15
HETATM   15  C12 UNL     1      26.633   0.337  52.792  1.00  0.00     0.010 A 
HETATM   16  C13 UNL     1      26.434  -0.800  51.997  1.00  0.00     0.147 A 
HETATM   17  N1  UNL     1      27.114  -1.959  52.174  1.00  0.00    -0.075 NA
HETATM   18  C14 UNL     1      28.030  -2.054  53.148  1.00  0.00     0.721 A 
HETATM   19  N3  UNL     1      28.237  -0.979  53.919  1.00  0.00    -0.045 NA
HETATM   20  C15 UNL     1      27.578   0.174  53.764  1.00  0.00     0.148 A 
BRANCH  18  21
HETATM   21  N2  UNL     1      28.672  -3.315  53.234  1.00  0.00    -0.231 N 
HETATM   22  H13 UNL     1      29.632  -3.520  53.599  1.00  0.00     0.174 HD
HETATM   23  H14 UNL     1      28.268  -4.240  52.937  1.00  0.00     0.174 HD
ENDBRANCH  18  21
BRANCH  20  24
HETATM   24  N4  UNL     1      27.826   1.285  54.592  1.00  0.00    -0.383 N 
HETATM   25  H15 UNL     1      28.203   1.349  55.548  1.00  0.00     0.157 HD
HETATM   26  H16 UNL     1      27.726   2.339  54.537  1.00  0.00     0.157 HD
ENDBRANCH  20  24
ENDBRANCH  14  15
ENDBRANCH  11  14
BRANCH  13  27
HETATM   27  O2  UNL     1      21.845  -1.141  53.873  1.00  0.00    -0.353 OA
HETATM   28  C18 UNL     1      22.268  -1.478  55.173  1.00  0.00     0.210 C 
ENDBRANCH  13  27
ENDBRANCH   7   8
ENDBRANCH   6   7
ENDBRANCH   5   6
ENDBRANCH   3   4
TORSDOF 9
ENDMDL
MODEL 2
REMARK VINA RESULT:      -6.7      3.766      6.983
REMARK  9 active torsions:
REMARK  status: ('A' for Active; 'I' for Inactive)
REMARK    1  A    between atoms: C3_3  and  C4_4 
REMARK    2  A    between atoms: C5_5  and  C6_6 
REMARK    3  A    between atoms: C6_6  and  O1_7 
REMARK    4  A    between atoms: O1_7  and  C7_8 
REMARK    5  A    between atoms: C10_11  and  C11_12 
REMARK    6  A    between atoms: C11_12  and  C12_13 
REMARK    7  A    between atoms: C14_16  and  N2_17 
REMARK    8  A    between atoms: C15_19  and  N4_20 
REMARK    9  A    between atoms: C17_22  and  O2_23 
ROOT
HETATM    1  C1  UNL     1      28.133   7.744  46.900  1.00  0.00     0.112 C 
HETATM    2  C2  UNL     1      27.251   7.315  48.007  1.00  0.00    -0.106 C 
HETATM    3  C3  UNL     1      26.530   6.956  48.914  1.00  0.00    -0.079 C 
ENDROOT
BRANCH   3   4
HETATM    4  C4  UNL     1      25.661   6.533  49.978  1.00  0.00     0.062 C 
HETATM    5  C5  UNL     1      24.349   6.429  49.740  1.00  0.00     0.008 C 
BRANCH   5   6
HETATM    6  C6  UNL     1      23.388   6.004  50.770  1.00  0.00     0.204 C 
BRANCH   6   7
HETATM    7  O1  UNL     1      22.847   4.768  50.368  1.00  0.00    -0.345 OA
BRANCH   7   8
HETATM    8  C7  UNL     1      23.146   3.617  51.082  1.00  0.00     0.102 A 
HETATM    9  C8  UNL     1      23.722   3.789  52.338  1.00  0.00     0.040 A 
HETATM   10  C9  UNL     1      24.031   2.679  53.074  1.00  0.00     0.010 A 
HETATM   11  C10 UNL     1      23.755   1.430  52.531  1.00  0.00    -0.051 A 
HETATM   12  C16 UNL     1      23.189   1.269  51.295  1.00  0.00     0.047 A 
HETATM   13  C17 UNL     1      22.863   2.362  50.524  1.00  0.00     0.102 A 
BRANCH  11  14
HETATM   14  C11 UNL     1      24.120   0.280  53.391  1.00  0.00     0.082 C 
BRANCH  14  15
HETATM   15  C12 UNL     1      25.586   0.307  53.581  1.00  0.00     0.010 A 
HETATM   16  C13 UNL     1      26.348   0.944  52.591  1.00  0.00     0.147 A 
HETATM   17  N1  UNL     1      27.700   1.033  52.637  1.00  0.00    -0.075 NA
HETATM   18  C14 UNL     1      28.371   0.498  53.667  1.00  0.00     0.721 A 
HETATM   19  N3  UNL     1      27.662  -0.115  54.624  1.00  0.00    -0.045 NA
HETATM   20  C15 UNL     1      26.330  -0.217  54.599  1.00  0.00     0.148 A 
BRANCH  18  21
HETATM   21  N2  UNL     1      29.778   0.655  53.600  1.00  0.00    -0.231 N 
HETATM   22  H13 UNL     1      30.313   1.471  53.219  1.00  0.00     0.174 HD
HETATM   23  H14 UNL     1      30.497  -0.039  53.930  1.00  0.00     0.174 HD
ENDBRANCH  18  21
BRANCH  20  24
HETATM   24  N4  UNL     1      25.618  -0.865  55.627  1.00  0.00    -0.383 N 
HETATM   25  H15 UNL     1      25.747  -0.861  56.649  1.00  0.00     0.157 HD
HETATM   26  H16 UNL     1      24.786  -1.516  55.711  1.00  0.00     0.157 HD
ENDBRANCH  20  24
ENDBRANCH  14  15
ENDBRANCH  11  14
BRANCH  13  27
HETATM   27  O2  UNL     1      22.291   2.378  49.267  1.00  0.00    -0.353 OA
HETATM   28  C18 UNL     1      21.578   1.268  48.775  1.00  0.00     0.210 C 
ENDBRANCH  13  27
ENDBRANCH   7   8
ENDBRANCH   6   7
ENDBRANCH   5   6
ENDBRANCH   3   4
TORSDOF 9
ENDMDL
MODEL 3
REMARK VINA RESULT:      -6.5      4.732      5.534
REMARK  9 active torsions:
REMARK  status: ('A' for Active; 'I' for Inactive)
REMARK    1  A    between atoms: C3_3  and  C4_4 
REMARK    2  A    between atoms: C5_5  and  C6_6 
REMARK    3  A    between atoms: C6_6  and  O1_7 
REMARK    4  A    between atoms: O1_7  and  C7_8 
REMARK    5  A    between atoms: C10_11  and  C11_12 
REMARK    6  A    between atoms: C11_12  and  C12_13 
REMARK    7  A    between atoms: C14_16  and  N2_17 
REMARK    8  A    between atoms: C15_19  and  N4_20 
REMARK    9  A    between atoms: C17_22  and  O2_23 
ROOT
HETATM    1  C1  UNL     1      19.149   3.633  44.654  1.00  0.00     0.112 C 
HETATM    2  C2  UNL     1      20.270   3.691  45.617  1.00  0.00    -0.106 C 
HETATM    3  C3  UNL     1      21.193   3.738  46.403  1.00  0.00    -0.079 C 
ENDROOT
BRANCH   3   4
HETATM    4  C4  UNL     1      22.281   3.778  47.341  1.00  0.00     0.062 C 
HETATM    5  C5  UNL     1      22.515   4.910  48.014  1.00  0.00     0.008 C 
BRANCH   5   6
HETATM    6  C6  UNL     1      23.606   5.040  48.992  1.00  0.00     0.204 C 
BRANCH   6   7
HETATM    7  O1  UNL     1      24.320   3.826  49.003  1.00  0.00    -0.345 OA
BRANCH   7   8
HETATM    8  C7  UNL     1      24.810   3.322  50.199  1.00  0.00     0.102 A 
HETATM    9  C8  UNL     1      23.888   3.134  51.226  1.00  0.00     0.040 A 
HETATM   10  C9  UNL     1      24.331   2.638  52.420  1.00  0.00     0.010 A 
HETATM   11  C10 UNL     1      25.682   2.344  52.552  1.00  0.00    -0.051 A 
HETATM   12  C16 UNL     1      26.583   2.531  51.538  1.00  0.00     0.047 A 
HETATM   13  C17 UNL     1      26.175   3.030  50.321  1.00  0.00     0.102 A 
BRANCH  11  14
HETATM   14  C11 UNL     1      26.080   1.812  53.876  1.00  0.00     0.082 C 
BRANCH  14  15
HETATM   15  C12 UNL     1      26.652   0.464  53.667  1.00  0.00     0.010 A 
HETATM   16  C13 UNL     1      28.049   0.351  53.687  1.00  0.00     0.147 A 
HETATM   17  N1  UNL     1      28.702  -0.822  53.501  1.00  0.00    -0.075 NA
HETATM   18  C14 UNL     1      28.006  -1.947  53.287  1.00  0.00     0.721 A 
HETATM   19  N3  UNL     1      26.670  -1.862  53.263  1.00  0.00    -0.045 NA
HETATM   20  C15 UNL     1      26.004  -0.717  53.443  1.00  0.00     0.148 A 
BRANCH  18  21
HETATM   21  N2  UNL     1      28.801  -3.107  53.105  1.00  0.00    -0.231 N 
HETATM   22  H13 UNL     1      29.113  -3.789  53.836  1.00  0.00     0.174 HD
HETATM   23  H14 UNL     1      29.197  -3.453  52.193  1.00  0.00     0.174 HD
ENDBRANCH  18  21
BRANCH  20  24
HETATM   24  N4  UNL     1      24.597  -0.667  53.416  1.00  0.00    -0.383 N 
HETATM   25  H15 UNL     1      23.919  -0.286  54.091  1.00  0.00     0.157 HD
HETATM   26  H16 UNL     1      23.816  -0.967  52.766  1.00  0.00     0.157 HD
ENDBRANCH  20  24
ENDBRANCH  14  15
ENDBRANCH  11  14
BRANCH  13  27
HETATM   27  O2  UNL     1      26.945   3.277  49.200  1.00  0.00    -0.353 OA
HETATM   28  C18 UNL     1      27.421   4.571  48.912  1.00  0.00     0.210 C 
ENDBRANCH  13  27
ENDBRANCH   7   8
ENDBRANCH   6   7
ENDBRANCH   5   6
ENDBRANCH   3   4
TORSDOF 9
ENDMDL
MODEL 4
REMARK VINA RESULT:      -6.5      2.880      3.861
REMARK  9 active torsions:
REMARK  status: ('A' for Active; 'I' for Inactive)
REMARK    1  A    between atoms: C3_3  and  C4_4 
REMARK    2  A    between atoms: C5_5  and  C6_6 
REMARK    3  A    between atoms: C6_6  and  O1_7 
REMARK    4  A    between atoms: O1_7  and  C7_8 
REMARK    5  A    between atoms: C10_11  and  C11_12 
REMARK    6  A    between atoms: C11_12  and  C12_13 
REMARK    7  A    between atoms: C14_16  and  N2_17 
REMARK    8  A    between atoms: C15_19  and  N4_20 
REMARK    9  A    between atoms: C17_22  and  O2_23 
ROOT
HETATM    1  C1  UNL     1      17.448   3.633  45.574  1.00  0.00     0.112 C 
HETATM    2  C2  UNL     1      18.635   3.577  46.455  1.00  0.00    -0.106 C 
HETATM    3  C3  UNL     1      19.605   3.526  47.180  1.00  0.00    -0.079 C 
ENDROOT
BRANCH   3   4
HETATM    4  C4  UNL     1      20.749   3.479  48.048  1.00  0.00     0.062 C 
HETATM    5  C5  UNL     1      21.726   2.603  47.788  1.00  0.00     0.008 C 
BRANCH   5   6
HETATM    6  C6  UNL     1      22.931   2.486  48.623  1.00  0.00     0.204 C 
BRANCH   6   7
HETATM    7  O1  UNL     1      22.517   2.421  49.967  1.00  0.00    -0.345 OA
BRANCH   7   8
HETATM    8  C7  UNL     1      23.460   2.300  50.977  1.00  0.00     0.102 A 
HETATM    9  C8  UNL     1      24.772   2.639  50.655  1.00  0.00     0.040 A 
HETATM   10  C9  UNL     1      25.732   2.535  51.623  1.00  0.00     0.010 A 
HETATM   11  C10 UNL     1      25.351   2.095  52.884  1.00  0.00    -0.051 A 
HETATM   12  C16 UNL     1      24.059   1.764  53.194  1.00  0.00     0.047 A 
HETATM   13  C17 UNL     1      23.064   1.855  52.246  1.00  0.00     0.102 A 
BRANCH  11  14
HETATM   14  C11 UNL     1      26.449   2.009  53.875  1.00  0.00     0.082 C 
BRANCH  14  15
HETATM   15  C12 UNL     1      27.156   0.730  53.654  1.00  0.00     0.010 A 
HETATM   16  C13 UNL     1      26.373  -0.432  53.590  1.00  0.00     0.147 A 
HETATM   17  N1  UNL     1      26.893  -1.669  53.401  1.00  0.00    -0.075 NA
HETATM   18  C14 UNL     1      28.217  -1.823  53.262  1.00  0.00     0.721 A 
HETATM   19  N3  UNL     1      28.984  -0.726  53.320  1.00  0.00    -0.045 NA
HETATM   20  C15 UNL     1      28.495   0.503  53.507  1.00  0.00     0.148 A 
BRANCH  18  21
HETATM   21  N2  UNL     1      28.639  -3.163  53.072  1.00  0.00    -0.231 N 
HETATM   22  H13 UNL     1      28.464  -3.776  52.241  1.00  0.00     0.174 HD
HETATM   23  H14 UNL     1      29.197  -3.742  53.751  1.00  0.00     0.174 HD
ENDBRANCH  18  21
BRANCH  20  24
HETATM   24  N4  UNL     1      29.332   1.633  53.557  1.00  0.00    -0.383 N 
HETATM   25  H15 UNL     1      30.351   1.718  53.680  1.00  0.00     0.157 HD
HETATM   26  H16 UNL     1      29.229   2.686  53.492  1.00  0.00     0.157 HD
ENDBRANCH  20  24
ENDBRANCH  14  15
ENDBRANCH  11  14
BRANCH  13  27
HETATM   27  O2  UNL     1      21.721   1.563  52.389  1.00  0.00    -0.353 OA
HETATM   28  C18 UNL     1      21.288   0.268  52.735  1.00  0.00     0.210 C 
ENDBRANCH  13  27
ENDBRANCH   7   8
ENDBRANCH   6   7
ENDBRANCH   5   6
ENDBRANCH   3   4
TORSDOF 9
ENDMDL
MODEL 5
REMARK VINA RESULT:      -6.4      3.623      5.104
REMARK  9 active torsions:
REMARK  status: ('A' for Active; 'I' for Inactive)
REMARK    1  A    between atoms: C3_3  and  C4_4 
REMARK    2  A    between atoms: C5_5  and  C6_6 
REMARK    3  A    between atoms: C6_6  and  O1_7 
REMARK    4  A    between atoms: O1_7  and  C7_8 
REMARK    5  A    between atoms: C10_11  and  C11_12 
REMARK    6  A    between atoms: C11_12  and  C12_13 
REMARK    7  A    between atoms: C14_16  and  N2_17 
REMARK    8  A    between atoms: C15_19  and  N4_20 
REMARK    9  A    between atoms: C17_22  and  O2_23 
ROOT
HETATM    1  C1  UNL     1      20.719   4.322  43.424  1.00  0.00     0.112 C 
HETATM    2  C2  UNL     1      21.175   4.027  44.799  1.00  0.00    -0.106 C 
HETATM    3  C3  UNL     1      21.547   3.778  45.926  1.00  0.00    -0.079 C 
ENDROOT
BRANCH   3   4
HETATM    4  C4  UNL     1      21.973   3.492  47.269  1.00  0.00     0.062 C 
HETATM    5  C5  UNL     1      21.213   3.900  48.291  1.00  0.00     0.008 C 
BRANCH   5   6
HETATM    6  C6  UNL     1      21.573   3.652  49.695  1.00  0.00     0.204 C 
BRANCH   6   7
HETATM    7  O1  UNL     1      22.906   3.198  49.724  1.00  0.00    -0.345 OA
BRANCH   7   8
HETATM    8  C7  UNL     1      23.321   2.330  50.723  1.00  0.00     0.102 A 
HETATM    9  C8  UNL     1      22.384   1.408  51.182  1.00  0.00     0.040 A 
HETATM   10  C9  UNL     1      22.753   0.533  52.165  1.00  0.00     0.010 A 
HETATM   11  C10 UNL     1      24.049   0.607  52.660  1.00  0.00    -0.051 A 
HETATM   12  C16 UNL     1      24.965   1.517  52.204  1.00  0.00     0.047 A 
HETATM   13  C17 UNL     1      24.630   2.414  51.215  1.00  0.00     0.102 A 
BRANCH  11  14
HETATM   14  C11 UNL     1      24.370  -0.374  53.723  1.00  0.00     0.082 C 
BRANCH  14  15
HETATM   15  C12 UNL     1      25.837  -0.552  53.745  1.00  0.00     0.010 A 
HETATM   16  C13 UNL     1      26.378  -1.520  52.887  1.00  0.00     0.147 A 
HETATM   17  N1  UNL     1      27.704  -1.790  52.812  1.00  0.00    -0.075 NA
HETATM   18  C14 UNL     1      28.568  -1.114  53.582  1.00  0.00     0.721 A 
HETATM   19  N3  UNL     1      28.073  -0.184  54.409  1.00  0.00    -0.045 NA
HETATM   20  C15 UNL     1      26.770   0.099  54.501  1.00  0.00     0.148 A 
BRANCH  18  21
HETATM   21  N2  UNL     1      29.924  -1.487  53.415  1.00  0.00    -0.231 N 
HETATM   22  H13 UNL     1      30.314  -2.205  52.759  1.00  0.00     0.174 HD
HETATM   23  H14 UNL     1      30.748  -1.090  53.937  1.00  0.00     0.174 HD
ENDBRANCH  18  21
BRANCH  20  24
HETATM   24  N4  UNL     1      26.287   1.088  55.379  1.00  0.00    -0.383 N 
HETATM   25  H15 UNL     1      26.656   1.439  56.274  1.00  0.00     0.157 HD
HETATM   26  H16 UNL     1      25.465   1.754  55.430  1.00  0.00     0.157 HD
ENDBRANCH  20  24
ENDBRANCH  14  15
ENDBRANCH  11  14
BRANCH  13  27
HETATM   27  O2  UNL     1      25.426   3.389  50.644  1.00  0.00    -0.353 OA
HETATM   28  C18 UNL     1      26.451   3.057  49.737  1.00  0.00     0.210 C 
ENDBRANCH  13  27
ENDBRANCH   7   8
ENDBRANCH   6   7
ENDBRANCH   5   6
ENDBRANCH   3   4
TORSDOF 9
ENDMDL
MODEL 6
REMARK VINA RESULT:      -6.4      4.218      6.390
REMARK  9 active torsions:
REMARK  status: ('A' for Active; 'I' for Inactive)
REMARK    1  A    between atoms: C3_3  and  C4_4 
REMARK    2  A    between atoms: C5_5  and  C6_6 
REMARK    3  A    between atoms: C6_6  and  O1_7 
REMARK    4  A    between atoms: O1_7  and  C7_8 
REMARK    5  A    between atoms: C10_11  and  C11_12 
REMARK    6  A    between atoms: C11_12  and  C12_13 
REMARK    7  A    between atoms: C14_16  and  N2_17 
REMARK    8  A    between atoms: C15_19  and  N4_20 
REMARK    9  A    between atoms: C17_22  and  O2_23 
ROOT
HETATM    1  C1  UNL     1      21.995  10.997  47.737  1.00  0.00     0.112 C 
HETATM    2  C2  UNL     1      22.220   9.825  48.611  1.00  0.00    -0.106 C 
HETATM    3  C3  UNL     1      22.412   8.864  49.326  1.00  0.00    -0.079 C 
ENDROOT
BRANCH   3   4
HETATM    4  C4  UNL     1      22.630   7.715  50.161  1.00  0.00     0.062 C 
HETATM    5  C5  UNL     1      21.608   6.888  50.405  1.00  0.00     0.008 C 
BRANCH   5   6
HETATM    6  C6  UNL     1      21.741   5.690  51.248  1.00  0.00     0.204 C 
BRANCH   6   7
HETATM    7  O1  UNL     1      22.995   5.110  50.976  1.00  0.00    -0.345 OA
BRANCH   7   8
HETATM    8  C7  UNL     1      23.286   3.837  51.444  1.00  0.00     0.102 A 
HETATM    9  C8  UNL     1      23.842   3.748  52.717  1.00  0.00     0.040 A 
HETATM   10  C9  UNL     1      24.142   2.511  53.216  1.00  0.00     0.010 A 
HETATM   11  C10 UNL     1      23.877   1.400  52.426  1.00  0.00    -0.051 A 
HETATM   12  C16 UNL     1      23.329   1.495  51.175  1.00  0.00     0.047 A 
HETATM   13  C17 UNL     1      23.014   2.723  50.638  1.00  0.00     0.102 A 
BRANCH  11  14
HETATM   14  C11 UNL     1      24.231   0.098  53.038  1.00  0.00     0.082 C 
BRANCH  14  15
HETATM   15  C12 UNL     1      25.677   0.123  53.345  1.00  0.00     0.010 A 
HETATM   16  C13 UNL     1      26.538   0.582  52.338  1.00  0.00     0.147 A 
HETATM   17  N1  UNL     1      27.883   0.649  52.483  1.00  0.00    -0.075 NA
HETATM   18  C14 UNL     1      28.451   0.266  53.636  1.00  0.00     0.721 A 
HETATM   19  N3  UNL     1      27.647  -0.176  54.612  1.00  0.00    -0.045 NA
HETATM   20  C15 UNL     1      26.318  -0.252  54.491  1.00  0.00     0.148 A 
BRANCH  18  21
HETATM   21  N2  UNL     1      29.863   0.381  53.665  1.00  0.00    -0.231 N 
HETATM   22  H13 UNL     1      30.432   1.258  53.733  1.00  0.00     0.174 HD
HETATM   23  H14 UNL     1      30.553  -0.413  53.622  1.00  0.00     0.174 HD
ENDBRANCH  18  21
BRANCH  20  24
HETATM   24  N4  UNL     1      25.505  -0.717  55.542  1.00  0.00    -0.383 N 
HETATM   25  H15 UNL     1      25.618  -1.513  56.186  1.00  0.00     0.157 HD
HETATM   26  H16 UNL     1      24.588  -0.448  55.999  1.00  0.00     0.157 HD
ENDBRANCH  20  24
ENDBRANCH  14  15
ENDBRANCH  11  14
BRANCH  13  27
HETATM   27  O2  UNL     1      22.460   2.996  49.402  1.00  0.00    -0.353 OA
HETATM   28  C18 UNL     1      21.531   2.119  48.808  1.00  0.00     0.210 C 
ENDBRANCH  13  27
ENDBRANCH   7   8
ENDBRANCH   6   7
ENDBRANCH   5   6
ENDBRANCH   3   4
TORSDOF 9
ENDMDL
MODEL 7
REMARK VINA RESULT:      -6.4      4.153      5.657
REMARK  9 active torsions:
REMARK  status: ('A' for Active; 'I' for Inactive)
REMARK    1  A    between atoms: C3_3  and  C4_4 
REMARK    2  A    between atoms: C5_5  and  C6_6 
REMARK    3  A    between atoms: C6_6  and  O1_7 
REMARK    4  A    between atoms: O1_7  and  C7_8 
REMARK    5  A    between atoms: C10_11  and  C11_12 
REMARK    6  A    between atoms: C11_12  and  C12_13 
REMARK    7  A    between atoms: C14_16  and  N2_17 
REMARK    8  A    between atoms: C15_19  and  N4_20 
REMARK    9  A    between atoms: C17_22  and  O2_23 
ROOT
HETATM    1  C1  UNL     1      20.056   4.018  42.074  1.00  0.00     0.112 C 
HETATM    2  C2  UNL     1      20.590   3.973  43.453  1.00  0.00    -0.106 C 
HETATM    3  C3  UNL     1      21.023   3.931  44.584  1.00  0.00    -0.079 C 
ENDROOT
BRANCH   3   4
HETATM    4  C4  UNL     1      21.532   3.900  45.928  1.00  0.00     0.062 C 
HETATM    5  C5  UNL     1      22.135   4.988  46.418  1.00  0.00     0.008 C 
BRANCH   5   6
HETATM    6  C6  UNL     1      22.686   5.045  47.781  1.00  0.00     0.204 C 
BRANCH   6   7
HETATM    7  O1  UNL     1      22.886   3.721  48.218  1.00  0.00    -0.345 OA
BRANCH   7   8
HETATM    8  C7  UNL     1      23.284   3.476  49.525  1.00  0.00     0.102 A 
HETATM    9  C8  UNL     1      24.652   3.515  49.782  1.00  0.00     0.040 A 
HETATM   10  C9  UNL     1      25.085   3.280  51.057  1.00  0.00     0.010 A 
HETATM   11  C10 UNL     1      24.137   3.013  52.037  1.00  0.00    -0.051 A 
HETATM   12  C16 UNL     1      22.793   2.977  51.776  1.00  0.00     0.047 A 
HETATM   13  C17 UNL     1      22.318   3.208  50.504  1.00  0.00     0.102 A 
BRANCH  11  14
HETATM   14  C11 UNL     1      24.687   2.769  53.390  1.00  0.00     0.082 C 
BRANCH  14  15
HETATM   15  C12 UNL     1      25.530   1.556  53.322  1.00  0.00     0.010 A 
HETATM   16  C13 UNL     1      24.892   0.350  53.004  1.00  0.00     0.147 A 
HETATM   17  N1  UNL     1      25.543  -0.836  52.916  1.00  0.00    -0.075 NA
HETATM   18  C14 UNL     1      26.864  -0.890  53.137  1.00  0.00     0.721 A 
HETATM   19  N3  UNL     1      27.494   0.252  53.442  1.00  0.00    -0.045 NA
HETATM   20  C15 UNL     1      26.873   1.431  53.536  1.00  0.00     0.148 A 
BRANCH  18  21
HETATM   21  N2  UNL     1      27.430  -2.184  53.018  1.00  0.00    -0.231 N 
HETATM   22  H13 UNL     1      28.444  -2.443  53.047  1.00  0.00     0.174 HD
HETATM   23  H14 UNL     1      26.901  -3.084  52.881  1.00  0.00     0.174 HD
ENDBRANCH  18  21
BRANCH  20  24
HETATM   24  N4  UNL     1      27.571   2.612  53.854  1.00  0.00    -0.383 N 
HETATM   25  H15 UNL     1      28.032   3.311  53.254  1.00  0.00     0.157 HD
HETATM   26  H16 UNL     1      27.841   3.149  54.727  1.00  0.00     0.157 HD
ENDBRANCH  20  24
ENDBRANCH  14  15
ENDBRANCH  11  14
BRANCH  13  27
HETATM   27  O2  UNL     1      21.006   3.210  50.072  1.00  0.00    -0.353 OA
HETATM   28  C18 UNL     1      20.107   4.219  50.469  1.00  0.00     0.210 C 
ENDBRANCH  13  27
ENDBRANCH   7   8
ENDBRANCH   6   7
ENDBRANCH   5   6
ENDBRANCH   3   4
TORSDOF 9
ENDMDL
MODEL 8
REMARK VINA RESULT:      -6.3      5.811      7.694
REMARK  9 active torsions:
REMARK  status: ('A' for Active; 'I' for Inactive)
REMARK    1  A    between atoms: C3_3  and  C4_4 
REMARK    2  A    between atoms: C5_5  and  C6_6 
REMARK    3  A    between atoms: C6_6  and  O1_7 
REMARK    4  A    between atoms: O1_7  and  C7_8 
REMARK    5  A    between atoms: C10_11  and  C11_12 
REMARK    6  A    between atoms: C11_12  and  C12_13 
REMARK    7  A    between atoms: C14_16  and  N2_17 
REMARK    8  A    between atoms: C15_19  and  N4_20 
REMARK    9  A    between atoms: C17_22  and  O2_23 
ROOT
HETATM    1  C1  UNL     1      19.249  -0.345  53.098  1.00  0.00     0.112 C 
HETATM    2  C2  UNL     1      20.624   0.194  53.014  1.00  0.00    -0.106 C 
HETATM    3  C3  UNL     1      21.753   0.632  52.951  1.00  0.00    -0.079 C 
ENDROOT
BRANCH   3   4
HETATM    4  C4  UNL     1      23.085   1.168  52.879  1.00  0.00     0.062 C 
HETATM    5  C5  UNL     1      23.875   0.806  51.863  1.00  0.00     0.008 C 
BRANCH   5   6
HETATM    6  C6  UNL     1      25.250   1.305  51.711  1.00  0.00     0.204 C 
BRANCH   6   7
HETATM    7  O1  UNL     1      25.265   2.655  52.111  1.00  0.00    -0.345 OA
BRANCH   7   8
HETATM    8  C7  UNL     1      25.376   3.658  51.160  1.00  0.00     0.102 A 
HETATM    9  C8  UNL     1      26.434   3.556  50.260  1.00  0.00     0.040 A 
HETATM   10  C9  UNL     1      26.578   4.524  49.306  1.00  0.00     0.010 A 
HETATM   11  C10 UNL     1      25.660   5.566  49.281  1.00  0.00    -0.051 A 
HETATM   12  C16 UNL     1      24.622   5.660  50.169  1.00  0.00     0.047 A 
HETATM   13  C17 UNL     1      24.444   4.705  51.144  1.00  0.00     0.102 A 
BRANCH  11  14
HETATM   14  C11 UNL     1      25.886   6.574  48.218  1.00  0.00     0.082 C 
BRANCH  14  15
HETATM   15  C12 UNL     1      26.905   7.526  48.710  1.00  0.00     0.010 A 
HETATM   16  C13 UNL     1      28.238   7.273  48.360  1.00  0.00     0.147 A 
HETATM   17  N1  UNL     1      29.271   8.060  48.749  1.00  0.00    -0.075 NA
HETATM   18  C14 UNL     1      29.038   9.142  49.506  1.00  0.00     0.721 A 
HETATM   19  N3  UNL     1      27.771   9.402  49.851  1.00  0.00    -0.045 NA
HETATM   20  C15 UNL     1      26.737   8.640  49.480  1.00  0.00     0.148 A 
BRANCH  18  21
HETATM   21  N2  UNL     1      30.197   9.882  49.849  1.00  0.00    -0.231 N 
HETATM   22  H13 UNL     1      30.244  10.866  50.204  1.00  0.00     0.174 HD
HETATM   23  H14 UNL     1      31.191   9.541  49.796  1.00  0.00     0.174 HD
ENDBRANCH  18  21
BRANCH  20  24
HETATM   24  N4  UNL     1      25.417   8.949  49.859  1.00  0.00    -0.383 N 
HETATM   25  H15 UNL     1      24.972   9.846  50.099  1.00  0.00     0.157 HD
HETATM   26  H16 UNL     1      24.507   8.429  50.016  1.00  0.00     0.157 HD
ENDBRANCH  20  24
ENDBRANCH  14  15
ENDBRANCH  11  14
BRANCH  13  27
HETATM   27  O2  UNL     1      23.458   4.647  52.111  1.00  0.00    -0.353 OA
HETATM   28  C18 UNL     1      22.095   4.586  51.762  1.00  0.00     0.210 C 
ENDBRANCH  13  27
ENDBRANCH   7   8
ENDBRANCH   6   7
ENDBRANCH   5   6
ENDBRANCH   3   4
TORSDOF 9
ENDMDL
MODEL 9
REMARK VINA RESULT:      -6.2      3.500      5.175
REMARK  9 active torsions:
REMARK  status: ('A' for Active; 'I' for Inactive)
REMARK    1  A    between atoms: C3_3  and  C4_4 
REMARK    2  A    between atoms: C5_5  and  C6_6 
REMARK    3  A    between atoms: C6_6  and  O1_7 
REMARK    4  A    between atoms: O1_7  and  C7_8 
REMARK    5  A    between atoms: C10_11  and  C11_12 
REMARK    6  A    between atoms: C11_12  and  C12_13 
REMARK    7  A    between atoms: C14_16  and  N2_17 
REMARK    8  A    between atoms: C15_19  and  N4_20 
REMARK    9  A    between atoms: C17_22  and  O2_23 
ROOT
HETATM    1  C1  UNL     1      12.983   4.417  53.843  1.00  0.00     0.112 C 
HETATM    2  C2  UNL     1      13.884   3.444  53.188  1.00  0.00    -0.106 C 
HETATM    3  C3  UNL     1      14.624   2.651  52.646  1.00  0.00    -0.079 C 
ENDROOT
BRANCH   3   4
HETATM    4  C4  UNL     1      15.486   1.699  52.001  1.00  0.00     0.062 C 
HETATM    5  C5  UNL     1      15.629   0.484  52.541  1.00  0.00     0.008 C 
BRANCH   5   6
HETATM    6  C6  UNL     1      16.491  -0.551  51.949  1.00  0.00     0.204 C 
BRANCH   6   7
HETATM    7  O1  UNL     1      17.723  -0.524  52.629  1.00  0.00    -0.345 OA
BRANCH   7   8
HETATM    8  C7  UNL     1      18.861  -0.064  51.982  1.00  0.00     0.102 A 
HETATM    9  C8  UNL     1      18.678   0.526  50.734  1.00  0.00     0.040 A 
HETATM   10  C9  UNL     1      19.774   0.994  50.064  1.00  0.00     0.010 A 
HETATM   11  C10 UNL     1      21.020   0.858  50.662  1.00  0.00    -0.051 A 
HETATM   12  C16 UNL     1      21.192   0.277  51.890  1.00  0.00     0.047 A 
HETATM   13  C17 UNL     1      20.113  -0.206  52.596  1.00  0.00     0.102 A 
BRANCH  11  14
HETATM   14  C11 UNL     1      22.155   1.389  49.872  1.00  0.00     0.082 C 
BRANCH  14  15
HETATM   15  C12 UNL     1      22.728   2.530  50.617  1.00  0.00     0.010 A 
HETATM   16  C13 UNL     1      22.073   3.764  50.500  1.00  0.00     0.147 A 
HETATM   17  N1  UNL     1      22.496   4.892  51.122  1.00  0.00    -0.075 NA
HETATM   18  C14 UNL     1      23.590   4.858  51.896  1.00  0.00     0.721 A 
HETATM   19  N3  UNL     1      24.231   3.688  52.021  1.00  0.00    -0.045 NA
HETATM   20  C15 UNL     1      23.834   2.565  51.417  1.00  0.00     0.148 A 
BRANCH  18  21
HETATM   21  N2  UNL     1      23.932   6.098  52.490  1.00  0.00    -0.231 N 
HETATM   22  H13 UNL     1      23.608   6.476  53.411  1.00  0.00     0.174 HD
HETATM   23  H14 UNL     1      24.571   6.828  52.081  1.00  0.00     0.174 HD
ENDBRANCH  18  21
BRANCH  20  24
HETATM   24  N4  UNL     1      24.531   1.352  51.576  1.00  0.00    -0.383 N 
HETATM   25  H15 UNL     1      25.037   0.961  52.384  1.00  0.00     0.157 HD
HETATM   26  H16 UNL     1      24.761   0.499  50.991  1.00  0.00     0.157 HD
ENDBRANCH  20  24
ENDBRANCH  14  15
ENDBRANCH  11  14
BRANCH  13  27
HETATM   27  O2  UNL     1      20.109  -0.814  53.836  1.00  0.00    -0.353 OA
HETATM   28  C18 UNL     1      21.272  -0.862  54.630  1.00  0.00     0.210 C 
ENDBRANCH  13  27
ENDBRANCH   7   8
ENDBRANCH   6   7
ENDBRANCH   5   6
ENDBRANCH   3   4
TORSDOF 9
ENDMDL
