MODEL 1
REMARK VINA RESULT:      -8.5      0.000      0.000
REMARK  5 active torsions:
REMARK  status: ('A' for Active; 'I' for Inactive)
REMARK    1  A    between atoms: C4_5  and  N1_6 
REMARK    2  A    between atoms: N1_6  and  C5_7 
REMARK    3  A    between atoms: C11_16  and  C12_17 
REMARK    4  A    between atoms: C12_17  and  C13_18 
REMARK    5  A    between atoms: C13_18  and  N4_19 
ROOT
HETATM    1  C5  UNL     1      20.015  -0.293  52.896  1.00  0.00     0.141 A 
HETATM    2  N2  UNL     1      19.843   0.291  51.676  1.00  0.00    -0.224 NA
HETATM    3  C6  UNL     1      20.940   0.698  50.977  1.00  0.00     0.235 A 
HETATM    4  N3  UNL     1      22.160   0.525  51.481  1.00  0.00    -0.243 NA
HETATM    5  C7  UNL     1      22.490  -0.019  52.638  1.00  0.00     0.079 A 
HETATM    6  C8  UNL     1      21.327  -0.414  53.304  1.00  0.00     0.039 A 
HETATM    7  C9  UNL     1      21.419  -1.092  54.613  1.00  0.00     0.041 A 
HETATM    8  C10 UNL     1      22.642  -1.284  55.074  1.00  0.00     0.137 A 
HETATM    9  O1  UNL     1      23.798  -0.923  54.461  1.00  0.00    -0.351 OA
HETATM   10  C11 UNL     1      23.818  -0.227  53.237  1.00  0.00     0.182 A 
ENDROOT
BRANCH   1  11
HETATM   11  N1  UNL     1      18.886  -0.721  53.630  1.00  0.00    -0.340 N 
HETATM   12  H3  UNL     1      19.107  -0.314  54.543  1.00  0.00     0.167 HD
BRANCH  11  13
HETATM   13  C4  UNL     1      17.751  -1.486  53.262  1.00  0.00     0.035 A 
HETATM   14  C3  UNL     1      16.736  -0.903  52.553  1.00  0.00     0.032 A 
HETATM   15  C2  UNL     1      15.652  -1.720  52.226  1.00  0.00     0.046 A 
HETATM   16  C1  UNL     1      15.668  -3.035  52.628  1.00  0.00     0.138 A 
HETATM   17  F1  UNL     1      14.620  -3.852  52.320  1.00  0.00    -0.204 F 
HETATM   18  C19 UNL     1      16.700  -3.606  53.342  1.00  0.00     0.074 A 
HETATM   19  C18 UNL     1      17.773  -2.800  53.666  1.00  0.00     0.056 A 
HETATM   20 CL1  UNL     1      16.646  -5.295  53.819  1.00  0.00    -0.081 Cl
ENDBRANCH  11  13
ENDBRANCH   1  11
BRANCH  10  21
HETATM   21  C12 UNL     1      24.577   1.056  53.361  1.00  0.00     0.069 C 
BRANCH  21  22
HETATM   22  C13 UNL     1      25.867   0.994  52.612  1.00  0.00     0.275 C 
BRANCH  22  23
HETATM   23  N4  UNL     1      26.865   0.421  53.483  1.00  0.00     0.088 N 
HETATM   24  C14 UNL     1      27.963   1.273  53.797  1.00  0.00     0.272 C 
HETATM   25  C15 UNL     1      28.911   0.258  54.455  1.00  0.00     0.032 C 
HETATM   26  C16 UNL     1      28.867  -0.841  53.394  1.00  0.00     0.032 C 
HETATM   27  C17 UNL     1      27.412  -0.818  52.959  1.00  0.00     0.272 C 
ENDBRANCH  22  23
ENDBRANCH  21  22
ENDBRANCH  10  21
TORSDOF 5
ENDMDL
MODEL 2
REMARK VINA RESULT:      -8.2      6.285      9.155
REMARK  5 active torsions:
REMARK  status: ('A' for Active; 'I' for Inactive)
REMARK    1  A    between atoms: C4_5  and  N1_6 
REMARK    2  A    between atoms: N1_6  and  C5_7 
REMARK    3  A    between atoms: C11_16  and  C12_17 
REMARK    4  A    between atoms: C12_17  and  C13_18 
REMARK    5  A    between atoms: C13_18  and  N4_19 
ROOT
HETATM    1  C5  UNL     1      25.848   2.738  51.317  1.00  0.00     0.141 A 
HETATM    2  N2  UNL     1      26.786   2.866  50.336  1.00  0.00    -0.224 NA
HETATM    3  C6  UNL     1      26.640   3.849  49.404  1.00  0.00     0.235 A 
HETATM    4  N3  UNL     1      25.595   4.673  49.456  1.00  0.00    -0.243 NA
HETATM    5  C7  UNL     1      24.610   4.679  50.335  1.00  0.00     0.079 A 
HETATM    6  C8  UNL     1      24.817   3.653  51.259  1.00  0.00     0.039 A 
HETATM    7  C9  UNL     1      23.874   3.465  52.381  1.00  0.00     0.041 A 
HETATM    8  C10 UNL     1      22.866   4.318  52.428  1.00  0.00     0.137 A 
HETATM    9  O1  UNL     1      22.628   5.332  51.558  1.00  0.00    -0.351 OA
HETATM   10  C11 UNL     1      23.437   5.563  50.429  1.00  0.00     0.182 A 
ENDROOT
BRANCH   1  11
HETATM   11  N1  UNL     1      25.989   1.723  52.290  1.00  0.00    -0.340 N 
HETATM   12  H3  UNL     1      25.008   1.591  52.548  1.00  0.00     0.167 HD
BRANCH  11  13
HETATM   13  C4  UNL     1      27.129   1.049  52.797  1.00  0.00     0.035 A 
HETATM   14  C3  UNL     1      28.122   1.759  53.415  1.00  0.00     0.032 A 
HETATM   15  C2  UNL     1      29.213   1.025  53.889  1.00  0.00     0.046 A 
HETATM   16  C1  UNL     1      29.223  -0.338  53.708  1.00  0.00     0.138 A 
HETATM   17  F1  UNL     1      30.277  -1.075  54.162  1.00  0.00    -0.204 F 
HETATM   18  C19 UNL     1      28.212  -1.036  53.082  1.00  0.00     0.074 A 
HETATM   19  C18 UNL     1      27.133  -0.314  52.614  1.00  0.00     0.056 A 
HETATM   20 CL1  UNL     1      28.301  -2.780  52.890  1.00  0.00    -0.081 Cl
ENDBRANCH  11  13
ENDBRANCH   1  11
BRANCH  10  21
HETATM   21  C12 UNL     1      22.625   5.541  49.174  1.00  0.00     0.069 C 
BRANCH  21  22
HETATM   22  C13 UNL     1      21.269   4.965  49.418  1.00  0.00     0.275 C 
BRANCH  22  23
HETATM   23  N4  UNL     1      21.198   3.687  48.751  1.00  0.00     0.088 N 
HETATM   24  C14 UNL     1      21.360   2.549  49.593  1.00  0.00     0.272 C 
HETATM   25  C15 UNL     1      21.525   1.450  48.532  1.00  0.00     0.032 C 
HETATM   26  C16 UNL     1      22.589   2.112  47.657  1.00  0.00     0.032 C 
HETATM   27  C17 UNL     1      22.164   3.570  47.673  1.00  0.00     0.272 C 
ENDBRANCH  22  23
ENDBRANCH  21  22
ENDBRANCH  10  21
TORSDOF 5
ENDMDL
MODEL 3
REMARK VINA RESULT:      -8.1      4.719      9.222
REMARK  5 active torsions:
REMARK  status: ('A' for Active; 'I' for Inactive)
REMARK    1  A    between atoms: C4_5  and  N1_6 
REMARK    2  A    between atoms: N1_6  and  C5_7 
REMARK    3  A    between atoms: C11_16  and  C12_17 
REMARK    4  A    between atoms: C12_17  and  C13_18 
REMARK    5  A    between atoms: C13_18  and  N4_19 
ROOT
HETATM    1  C5  UNL     1      24.466   0.143  52.891  1.00  0.00     0.141 A 
HETATM    2  N2  UNL     1      24.808   1.030  51.913  1.00  0.00    -0.224 NA
HETATM    3  C6  UNL     1      23.860   1.884  51.434  1.00  0.00     0.235 A 
HETATM    4  N3  UNL     1      22.620   1.850  51.916  1.00  0.00    -0.243 NA
HETATM    5  C7  UNL     1      22.136   1.057  52.855  1.00  0.00     0.079 A 
HETATM    6  C8  UNL     1      23.152   0.210  53.304  1.00  0.00     0.039 A 
HETATM    7  C9  UNL     1      22.884  -0.756  54.390  1.00  0.00     0.041 A 
HETATM    8  C10 UNL     1      21.655  -0.744  54.875  1.00  0.00     0.137 A 
HETATM    9  O1  UNL     1      20.640   0.063  54.475  1.00  0.00    -0.351 OA
HETATM   10  C11 UNL     1      20.778   0.980  53.415  1.00  0.00     0.182 A 
ENDROOT
BRANCH   1  11
HETATM   11  N1  UNL     1      25.441  -0.746  53.398  1.00  0.00    -0.340 N 
HETATM   12  H3  UNL     1      24.832  -1.492  53.743  1.00  0.00     0.167 HD
BRANCH  11  13
HETATM   13  C4  UNL     1      26.856  -0.677  53.440  1.00  0.00     0.035 A 
HETATM   14  C3  UNL     1      27.603  -1.746  53.026  1.00  0.00     0.032 A 
HETATM   15  C2  UNL     1      28.991  -1.603  53.096  1.00  0.00     0.046 A 
HETATM   16  C1  UNL     1      29.512  -0.422  53.568  1.00  0.00     0.138 A 
HETATM   17  F1  UNL     1      30.865  -0.259  53.645  1.00  0.00    -0.204 F 
HETATM   18  C19 UNL     1      28.743   0.645  53.981  1.00  0.00     0.074 A 
HETATM   19  C18 UNL     1      27.371   0.507  53.913  1.00  0.00     0.056 A 
HETATM   20 CL1  UNL     1      29.487   2.123  54.573  1.00  0.00    -0.081 Cl
ENDBRANCH  11  13
ENDBRANCH   1  11
BRANCH  10  21
HETATM   21  C12 UNL     1      19.754   0.732  52.354  1.00  0.00     0.069 C 
BRANCH  21  22
HETATM   22  C13 UNL     1      18.885  -0.431  52.704  1.00  0.00     0.275 C 
BRANCH  22  23
HETATM   23  N4  UNL     1      17.864  -0.549  51.692  1.00  0.00     0.088 N 
HETATM   24  C14 UNL     1      18.132   0.135  50.471  1.00  0.00     0.272 C 
HETATM   25  C15 UNL     1      16.754   0.036  49.798  1.00  0.00     0.032 C 
HETATM   26  C16 UNL     1      15.881   0.519  50.956  1.00  0.00     0.032 C 
HETATM   27  C17 UNL     1      16.563  -0.104  52.161  1.00  0.00     0.272 C 
ENDBRANCH  22  23
ENDBRANCH  21  22
ENDBRANCH  10  21
TORSDOF 5
ENDMDL
MODEL 4
REMARK VINA RESULT:      -8.0      5.021      8.735
REMARK  5 active torsions:
REMARK  status: ('A' for Active; 'I' for Inactive)
REMARK    1  A    between atoms: C4_5  and  N1_6 
REMARK    2  A    between atoms: N1_6  and  C5_7 
REMARK    3  A    between atoms: C11_16  and  C12_17 
REMARK    4  A    between atoms: C12_17  and  C13_18 
REMARK    5  A    between atoms: C13_18  and  N4_19 
ROOT
HETATM    1  C5  UNL     1      24.193   0.372  53.269  1.00  0.00     0.141 A 
HETATM    2  N2  UNL     1      24.556   1.432  52.490  1.00  0.00    -0.224 NA
HETATM    3  C6  UNL     1      23.584   2.183  51.901  1.00  0.00     0.235 A 
HETATM    4  N3  UNL     1      22.301   1.885  52.086  1.00  0.00    -0.243 NA
HETATM    5  C7  UNL     1      21.791   0.900  52.804  1.00  0.00     0.079 A 
HETATM    6  C8  UNL     1      22.834   0.171  53.379  1.00  0.00     0.039 A 
HETATM    7  C9  UNL     1      22.534  -0.969  54.271  1.00  0.00     0.041 A 
HETATM    8  C10 UNL     1      21.252  -1.221  54.465  1.00  0.00     0.137 A 
HETATM    9  O1  UNL     1      20.207  -0.538  53.932  1.00  0.00    -0.351 OA
HETATM   10  C11 UNL     1      20.386   0.531  53.032  1.00  0.00     0.182 A 
ENDROOT
BRANCH   1  11
HETATM   11  N1  UNL     1      25.192  -0.414  53.887  1.00  0.00    -0.340 N 
HETATM   12  H3  UNL     1      24.606  -0.994  54.494  1.00  0.00     0.167 HD
BRANCH  11  13
HETATM   13  C4  UNL     1      26.602  -0.437  53.745  1.00  0.00     0.035 A 
HETATM   14  C3  UNL     1      27.207  -1.499  53.128  1.00  0.00     0.032 A 
HETATM   15  C2  UNL     1      28.599  -1.451  53.025  1.00  0.00     0.046 A 
HETATM   16  C1  UNL     1      29.264  -0.363  53.540  1.00  0.00     0.138 A 
HETATM   17  F1  UNL     1      30.624  -0.294  53.450  1.00  0.00    -0.204 F 
HETATM   18  C19 UNL     1      28.638   0.697  54.158  1.00  0.00     0.074 A 
HETATM   19  C18 UNL     1      27.262   0.653  54.261  1.00  0.00     0.056 A 
HETATM   20 CL1  UNL     1      29.560   2.051  54.791  1.00  0.00    -0.081 Cl
ENDBRANCH  11  13
ENDBRANCH   1  11
BRANCH  10  21
HETATM   21  C12 UNL     1      19.664   0.276  51.748  1.00  0.00     0.069 C 
BRANCH  21  22
HETATM   22  C13 UNL     1      18.626   1.320  51.495  1.00  0.00     0.275 C 
BRANCH  22  23
HETATM   23  N4  UNL     1      18.964   2.001  50.269  1.00  0.00     0.088 N 
HETATM   24  C14 UNL     1      19.945   1.355  49.462  1.00  0.00     0.272 C 
HETATM   25  C15 UNL     1      20.246   2.477  48.455  1.00  0.00     0.032 C 
HETATM   26  C16 UNL     1      20.467   3.630  49.433  1.00  0.00     0.032 C 
HETATM   27  C17 UNL     1      19.418   3.361  50.497  1.00  0.00     0.272 C 
ENDBRANCH  22  23
ENDBRANCH  21  22
ENDBRANCH  10  21
TORSDOF 5
ENDMDL
MODEL 5
REMARK VINA RESULT:      -8.0      5.206      8.702
REMARK  5 active torsions:
REMARK  status: ('A' for Active; 'I' for Inactive)
REMARK    1  A    between atoms: C4_5  and  N1_6 
REMARK    2  A    between atoms: N1_6  and  C5_7 
REMARK    3  A    between atoms: C11_16  and  C12_17 
REMARK    4  A    between atoms: C12_17  and  C13_18 
REMARK    5  A    between atoms: C13_18  and  N4_19 
ROOT
HETATM    1  C5  UNL     1      24.721   1.648  53.050  1.00  0.00     0.141 A 
HETATM    2  N2  UNL     1      25.035   2.806  52.401  1.00  0.00    -0.224 NA
HETATM    3  C6  UNL     1      24.143   3.330  51.515  1.00  0.00     0.235 A 
HETATM    4  N3  UNL     1      22.983   2.719  51.289  1.00  0.00    -0.243 NA
HETATM    5  C7  UNL     1      22.535   1.601  51.832  1.00  0.00     0.079 A 
HETATM    6  C8  UNL     1      23.491   1.116  52.728  1.00  0.00     0.039 A 
HETATM    7  C9  UNL     1      23.219  -0.111  53.506  1.00  0.00     0.041 A 
HETATM    8  C10 UNL     1      22.046  -0.678  53.288  1.00  0.00     0.137 A 
HETATM    9  O1  UNL     1      21.087  -0.240  52.433  1.00  0.00    -0.351 OA
HETATM   10  C11 UNL     1      21.268   0.888  51.610  1.00  0.00     0.182 A 
ENDROOT
BRANCH   1  11
HETATM   11  N1  UNL     1      25.637   1.095  53.974  1.00  0.00    -0.340 N 
HETATM   12  H3  UNL     1      25.030   1.017  54.794  1.00  0.00     0.167 HD
BRANCH  11  13
HETATM   13  C4  UNL     1      27.002   0.734  53.853  1.00  0.00     0.035 A 
HETATM   14  C3  UNL     1      27.975   1.681  54.022  1.00  0.00     0.032 A 
HETATM   15  C2  UNL     1      29.297   1.250  53.888  1.00  0.00     0.046 A 
HETATM   16  C1  UNL     1      29.536  -0.073  53.601  1.00  0.00     0.138 A 
HETATM   17  F1  UNL     1      30.820  -0.517  53.467  1.00  0.00    -0.204 F 
HETATM   18  C19 UNL     1      28.543  -1.014  53.435  1.00  0.00     0.074 A 
HETATM   19  C18 UNL     1      27.235  -0.590  53.567  1.00  0.00     0.056 A 
HETATM   20 CL1  UNL     1      28.931  -2.687  53.069  1.00  0.00    -0.081 Cl
ENDBRANCH  11  13
ENDBRANCH   1  11
BRANCH  10  21
HETATM   21  C12 UNL     1      21.073   0.537  50.170  1.00  0.00     0.069 C 
BRANCH  21  22
HETATM   22  C13 UNL     1      19.989   1.361  49.555  1.00  0.00     0.275 C 
BRANCH  22  23
HETATM   23  N4  UNL     1      20.560   2.109  48.461  1.00  0.00     0.088 N 
HETATM   24  C14 UNL     1      21.869   1.710  48.065  1.00  0.00     0.272 C 
HETATM   25  C15 UNL     1      22.237   2.876  47.135  1.00  0.00     0.032 C 
HETATM   26  C16 UNL     1      21.862   4.044  48.047  1.00  0.00     0.032 C 
HETATM   27  C17 UNL     1      20.604   3.535  48.728  1.00  0.00     0.272 C 
ENDBRANCH  22  23
ENDBRANCH  21  22
ENDBRANCH  10  21
TORSDOF 5
ENDMDL
MODEL 6
REMARK VINA RESULT:      -8.0      6.949      9.578
REMARK  5 active torsions:
REMARK  status: ('A' for Active; 'I' for Inactive)
REMARK    1  A    between atoms: C4_5  and  N1_6 
REMARK    2  A    between atoms: N1_6  and  C5_7 
REMARK    3  A    between atoms: C11_16  and  C12_17 
REMARK    4  A    between atoms: C12_17  and  C13_18 
REMARK    5  A    between atoms: C13_18  and  N4_19 
ROOT
HETATM    1  C5  UNL     1      25.001   2.804  51.519  1.00  0.00     0.141 A 
HETATM    2  N2  UNL     1      23.944   3.030  52.349  1.00  0.00    -0.224 NA
HETATM    3  C6  UNL     1      23.329   4.246  52.322  1.00  0.00     0.235 A 
HETATM    4  N3  UNL     1      23.757   5.196  51.494  1.00  0.00    -0.243 NA
HETATM    5  C7  UNL     1      24.759   5.134  50.636  1.00  0.00     0.079 A 
HETATM    6  C8  UNL     1      25.345   3.869  50.712  1.00  0.00     0.039 A 
HETATM    7  C9  UNL     1      26.471   3.521  49.821  1.00  0.00     0.041 A 
HETATM    8  C10 UNL     1      26.853   4.470  48.985  1.00  0.00     0.137 A 
HETATM    9  O1  UNL     1      26.311   5.709  48.872  1.00  0.00    -0.351 OA
HETATM   10  C11 UNL     1      25.270   6.156  49.709  1.00  0.00     0.182 A 
ENDROOT
BRANCH   1  11
HETATM   11  N1  UNL     1      25.646   1.547  51.537  1.00  0.00    -0.340 N 
HETATM   12  H3  UNL     1      25.118   1.071  50.801  1.00  0.00     0.167 HD
BRANCH  11  13
HETATM   13  C4  UNL     1      26.715   1.042  52.318  1.00  0.00     0.035 A 
HETATM   14  C3  UNL     1      27.477   1.898  53.065  1.00  0.00     0.032 A 
HETATM   15  C2  UNL     1      28.512   1.327  53.810  1.00  0.00     0.046 A 
HETATM   16  C1  UNL     1      28.699  -0.034  53.748  1.00  0.00     0.138 A 
HETATM   17  F1  UNL     1      29.703  -0.614  54.467  1.00  0.00    -0.204 F 
HETATM   18  C19 UNL     1      27.921  -0.882  52.990  1.00  0.00     0.074 A 
HETATM   19  C18 UNL     1      26.897  -0.319  52.253  1.00  0.00     0.056 A 
HETATM   20 CL1  UNL     1      28.225  -2.611  52.964  1.00  0.00    -0.081 Cl
ENDBRANCH  11  13
ENDBRANCH   1  11
BRANCH  10  21
HETATM   21  C12 UNL     1      25.657   7.410  50.424  1.00  0.00     0.069 C 
BRANCH  21  22
HETATM   22  C13 UNL     1      25.179   8.620  49.691  1.00  0.00     0.275 C 
BRANCH  22  23
HETATM   23  N4  UNL     1      26.330   9.409  49.327  1.00  0.00     0.088 N 
HETATM   24  C14 UNL     1      26.855   9.160  48.026  1.00  0.00     0.272 C 
HETATM   25  C15 UNL     1      28.185   9.925  48.121  1.00  0.00     0.032 C 
HETATM   26  C16 UNL     1      28.695   9.362  49.448  1.00  0.00     0.032 C 
HETATM   27  C17 UNL     1      27.424   9.263  50.271  1.00  0.00     0.272 C 
ENDBRANCH  22  23
ENDBRANCH  21  22
ENDBRANCH  10  21
TORSDOF 5
ENDMDL
MODEL 7
REMARK VINA RESULT:      -7.8      4.389      9.211
REMARK  5 active torsions:
REMARK  status: ('A' for Active; 'I' for Inactive)
REMARK    1  A    between atoms: C4_5  and  N1_6 
REMARK    2  A    between atoms: N1_6  and  C5_7 
REMARK    3  A    between atoms: C11_16  and  C12_17 
REMARK    4  A    between atoms: C12_17  and  C13_18 
REMARK    5  A    between atoms: C13_18  and  N4_19 
ROOT
HETATM    1  C5  UNL     1      24.250   0.636  53.018  1.00  0.00     0.141 A 
HETATM    2  N2  UNL     1      23.947  -0.276  53.986  1.00  0.00    -0.224 NA
HETATM    3  C6  UNL     1      22.740  -0.906  53.947  1.00  0.00     0.235 A 
HETATM    4  N3  UNL     1      21.872  -0.634  52.976  1.00  0.00    -0.243 NA
HETATM    5  C7  UNL     1      22.014   0.216  51.975  1.00  0.00     0.079 A 
HETATM    6  C8  UNL     1      23.267   0.827  52.071  1.00  0.00     0.039 A 
HETATM    7  C9  UNL     1      23.697   1.798  51.044  1.00  0.00     0.041 A 
HETATM    8  C10 UNL     1      22.830   2.023  50.072  1.00  0.00     0.137 A 
HETATM    9  O1  UNL     1      21.607   1.451  49.935  1.00  0.00    -0.351 OA
HETATM   10  C11 UNL     1      21.084   0.553  50.886  1.00  0.00     0.182 A 
ENDROOT
BRANCH   1  11
HETATM   11  N1  UNL     1      25.500   1.294  53.047  1.00  0.00    -0.340 N 
HETATM   12  H3  UNL     1      25.194   2.255  52.869  1.00  0.00     0.167 HD
BRANCH  11  13
HETATM   13  C4  UNL     1      26.818   0.817  53.259  1.00  0.00     0.035 A 
HETATM   14  C3  UNL     1      27.796   1.679  53.677  1.00  0.00     0.032 A 
HETATM   15  C2  UNL     1      29.069   1.135  53.864  1.00  0.00     0.046 A 
HETATM   16  C1  UNL     1      29.259  -0.204  53.622  1.00  0.00     0.138 A 
HETATM   17  F1  UNL     1      30.494  -0.758  53.799  1.00  0.00    -0.204 F 
HETATM   18  C19 UNL     1      28.262  -1.058  53.202  1.00  0.00     0.074 A 
HETATM   19  C18 UNL     1      27.003  -0.523  53.016  1.00  0.00     0.056 A 
HETATM   20 CL1  UNL     1      28.587  -2.760  52.914  1.00  0.00    -0.081 Cl
ENDBRANCH  11  13
ENDBRANCH   1  11
BRANCH  10  21
HETATM   21  C12 UNL     1      19.768   1.032  51.409  1.00  0.00     0.069 C 
BRANCH  21  22
HETATM   22  C13 UNL     1      18.678   0.812  50.411  1.00  0.00     0.275 C 
BRANCH  22  23
HETATM   23  N4  UNL     1      17.841  -0.260  50.891  1.00  0.00     0.088 N 
HETATM   24  C14 UNL     1      16.448  -0.113  50.627  1.00  0.00     0.272 C 
HETATM   25  C15 UNL     1      15.886  -1.236  51.513  1.00  0.00     0.032 C 
HETATM   26  C16 UNL     1      16.620  -0.912  52.814  1.00  0.00     0.032 C 
HETATM   27  C17 UNL     1      17.990  -0.485  52.318  1.00  0.00     0.272 C 
ENDBRANCH  22  23
ENDBRANCH  21  22
ENDBRANCH  10  21
TORSDOF 5
ENDMDL
MODEL 8
REMARK VINA RESULT:      -7.7      5.238      8.611
REMARK  5 active torsions:
REMARK  status: ('A' for Active; 'I' for Inactive)
REMARK    1  A    between atoms: C4_5  and  N1_6 
REMARK    2  A    between atoms: N1_6  and  C5_7 
REMARK    3  A    between atoms: C11_16  and  C12_17 
REMARK    4  A    between atoms: C12_17  and  C13_18 
REMARK    5  A    between atoms: C13_18  and  N4_19 
ROOT
HETATM    1  C5  UNL     1      24.272   1.014  53.088  1.00  0.00     0.141 A 
HETATM    2  N2  UNL     1      24.837   2.208  52.748  1.00  0.00    -0.224 NA
HETATM    3  C6  UNL     1      24.031   3.232  52.350  1.00  0.00     0.235 A 
HETATM    4  N3  UNL     1      22.711   3.066  52.297  1.00  0.00    -0.243 NA
HETATM    5  C7  UNL     1      22.017   1.981  52.591  1.00  0.00     0.079 A 
HETATM    6  C8  UNL     1      22.897   0.973  52.990  1.00  0.00     0.039 A 
HETATM    7  C9  UNL     1      22.372  -0.341  53.415  1.00  0.00     0.041 A 
HETATM    8  C10 UNL     1      21.057  -0.468  53.387  1.00  0.00     0.137 A 
HETATM    9  O1  UNL     1      20.165   0.484  53.012  1.00  0.00    -0.351 OA
HETATM   10  C11 UNL     1      20.565   1.750  52.542  1.00  0.00     0.182 A 
ENDROOT
BRANCH   1  11
HETATM   11  N1  UNL     1      25.097  -0.055  53.505  1.00  0.00    -0.340 N 
HETATM   12  H3  UNL     1      24.381  -0.714  53.819  1.00  0.00     0.167 HD
BRANCH  11  13
HETATM   13  C4  UNL     1      26.505  -0.220  53.505  1.00  0.00     0.035 A 
HETATM   14  C3  UNL     1      27.058  -1.362  52.992  1.00  0.00     0.032 A 
HETATM   15  C2  UNL     1      28.451  -1.453  53.027  1.00  0.00     0.046 A 
HETATM   16  C1  UNL     1      29.169  -0.411  53.564  1.00  0.00     0.138 A 
HETATM   17  F1  UNL     1      30.531  -0.477  53.609  1.00  0.00    -0.204 F 
HETATM   18  C19 UNL     1      28.595   0.733  54.077  1.00  0.00     0.074 A 
HETATM   19  C18 UNL     1      27.218   0.825  54.043  1.00  0.00     0.056 A 
HETATM   20 CL1  UNL     1      29.584   2.021  54.747  1.00  0.00    -0.081 Cl
ENDBRANCH  11  13
ENDBRANCH   1  11
BRANCH  10  21
HETATM   21  C12 UNL     1      20.006   2.018  51.182  1.00  0.00     0.069 C 
BRANCH  21  22
HETATM   22  C13 UNL     1      20.204   0.847  50.276  1.00  0.00     0.275 C 
BRANCH  22  23
HETATM   23  N4  UNL     1      20.710   1.334  49.016  1.00  0.00     0.088 N 
HETATM   24  C14 UNL     1      22.095   1.667  49.002  1.00  0.00     0.272 C 
HETATM   25  C15 UNL     1      22.183   2.400  47.654  1.00  0.00     0.032 C 
HETATM   26  C16 UNL     1      21.003   3.357  47.819  1.00  0.00     0.032 C 
HETATM   27  C17 UNL     1      19.980   2.495  48.537  1.00  0.00     0.272 C 
ENDBRANCH  22  23
ENDBRANCH  21  22
ENDBRANCH  10  21
TORSDOF 5
ENDMDL
MODEL 9
REMARK VINA RESULT:      -7.6      6.546      8.982
REMARK  5 active torsions:
REMARK  status: ('A' for Active; 'I' for Inactive)
REMARK    1  A    between atoms: C4_5  and  N1_6 
REMARK    2  A    between atoms: N1_6  and  C5_7 
REMARK    3  A    between atoms: C11_16  and  C12_17 
REMARK    4  A    between atoms: C12_17  and  C13_18 
REMARK    5  A    between atoms: C13_18  and  N4_19 
ROOT
HETATM    1  C5  UNL     1      23.539   3.711  49.678  1.00  0.00     0.141 A 
HETATM    2  N2  UNL     1      22.885   3.056  48.676  1.00  0.00    -0.224 NA
HETATM    3  C6  UNL     1      22.312   1.848  48.939  1.00  0.00     0.235 A 
HETATM    4  N3  UNL     1      22.392   1.318  50.157  1.00  0.00    -0.243 NA
HETATM    5  C7  UNL     1      22.986   1.822  51.224  1.00  0.00     0.079 A 
HETATM    6  C8  UNL     1      23.550   3.056  50.891  1.00  0.00     0.039 A 
HETATM    7  C9  UNL     1      24.243   3.855  51.923  1.00  0.00     0.041 A 
HETATM    8  C10 UNL     1      24.277   3.322  53.131  1.00  0.00     0.137 A 
HETATM    9  O1  UNL     1      23.739   2.132  53.502  1.00  0.00    -0.351 OA
HETATM   10  C11 UNL     1      23.104   1.273  52.584  1.00  0.00     0.182 A 
ENDROOT
BRANCH   1  11
HETATM   11  N1  UNL     1      24.135   4.966  49.418  1.00  0.00    -0.340 N 
HETATM   12  H3  UNL     1      23.341   5.580  49.620  1.00  0.00     0.167 HD
BRANCH  11  13
HETATM   13  C4  UNL     1      25.441   5.327  49.002  1.00  0.00     0.035 A 
HETATM   14  C3  UNL     1      26.466   4.427  49.118  1.00  0.00     0.032 A 
HETATM   15  C2  UNL     1      27.724   4.853  48.687  1.00  0.00     0.046 A 
HETATM   16  C1  UNL     1      27.855   6.126  48.183  1.00  0.00     0.138 A 
HETATM   17  F1  UNL     1      29.074   6.565  47.756  1.00  0.00    -0.204 F 
HETATM   18  C19 UNL     1      26.811   7.019  48.073  1.00  0.00     0.074 A 
HETATM   19  C18 UNL     1      25.566   6.600  48.499  1.00  0.00     0.056 A 
HETATM   20 CL1  UNL     1      27.061   8.629  47.418  1.00  0.00    -0.081 Cl
ENDBRANCH  11  13
ENDBRANCH   1  11
BRANCH  10  21
HETATM   21  C12 UNL     1      23.743  -0.078  52.583  1.00  0.00     0.069 C 
BRANCH  21  22
HETATM   22  C13 UNL     1      24.128  -0.494  53.965  1.00  0.00     0.275 C 
BRANCH  22  23
HETATM   23  N4  UNL     1      25.557  -0.689  53.992  1.00  0.00     0.088 N 
HETATM   24  C14 UNL     1      26.290   0.268  54.752  1.00  0.00     0.272 C 
HETATM   25  C15 UNL     1      27.721  -0.075  54.309  1.00  0.00     0.032 C 
HETATM   26  C16 UNL     1      27.512  -0.090  52.796  1.00  0.00     0.032 C 
HETATM   27  C17 UNL     1      26.139  -0.724  52.662  1.00  0.00     0.272 C 
ENDBRANCH  22  23
ENDBRANCH  21  22
ENDBRANCH  10  21
TORSDOF 5
ENDMDL
