MODEL 1
REMARK VINA RESULT:      -7.5      0.000      0.000
REMARK  5 active torsions:
REMARK  status: ('A' for Active; 'I' for Inactive)
REMARK    1  A    between atoms: O1_2  and  C2_3 
REMARK    2  A    between atoms: C4_5  and  N1_6 
REMARK    3  A    between atoms: N1_6  and  C5_7 
REMARK    4  A    between atoms: C9_13  and  O2_14 
REMARK    5  A    between atoms: O2_14  and  S1_15 
ROOT
HETATM    1  C5  UNL     1      22.402   1.255  53.011  1.00  0.00     0.144 A 
HETATM    2  N2  UNL     1      21.518   0.593  53.761  1.00  0.00    -0.223 NA
HETATM    3  C6  UNL     1      21.940  -0.525  54.419  1.00  0.00     0.236 A 
HETATM    4  N3  UNL     1      23.205  -0.946  54.315  1.00  0.00    -0.241 NA
HETATM    5  C7  UNL     1      24.113  -0.314  53.578  1.00  0.00     0.077 A 
HETATM    6  C8  UNL     1      25.411  -0.766  53.484  1.00  0.00     0.073 A 
HETATM    7  C9  UNL     1      26.294  -0.041  52.691  1.00  0.00     0.123 A 
HETATM    8  C11 UNL     1      25.894   1.108  52.003  1.00  0.00     0.138 A 
HETATM    9  C12 UNL     1      24.578   1.497  52.146  1.00  0.00     0.121 A 
HETATM   10  C13 UNL     1      23.684   0.812  52.916  1.00  0.00     0.075 A 
HETATM   11  O3  UNL     1      24.234   2.641  51.446  1.00  0.00    -0.345 OA
HETATM   12  C14 UNL     1      25.017   3.015  50.334  1.00  0.00     0.202 C 
HETATM   13  C15 UNL     1      26.495   3.043  50.710  1.00  0.00     0.202 C 
HETATM   14  O4  UNL     1      26.862   1.760  51.234  1.00  0.00    -0.344 OA
ENDROOT
BRANCH   1  15
HETATM   15  N1  UNL     1      21.902   2.409  52.353  1.00  0.00    -0.340 N 
HETATM   16  H5  UNL     1      21.995   3.394  52.113  1.00  0.00     0.167 HD
BRANCH  15  17
HETATM   17  C4  UNL     1      20.661   2.278  51.625  1.00  0.00     0.036 A 
HETATM   18  C3  UNL     1      19.565   3.130  52.025  1.00  0.00     0.066 A 
HETATM   19  C2  UNL     1      18.362   3.179  51.521  1.00  0.00     0.069 A 
HETATM   20  P1  UNL     1      17.991   2.084  50.179  1.00  0.00    -0.077 P 
HETATM   21  C17 UNL     1      19.309   1.217  49.863  1.00  0.00     0.008 A 
HETATM   22  C18 UNL     1      17.484   3.024  48.709  1.00  0.00     0.047 C 
HETATM   23  H17 UNL     1      16.882   1.242  50.491  1.00  0.00     0.063 HD
HETATM   24  C16 UNL     1      20.518   1.424  50.646  1.00  0.00     0.030 A 
BRANCH  19  25
HETATM   25  O1  UNL     1      17.283   3.948  51.841  1.00  0.00    -0.356 OA
HETATM   26  C1  UNL     1      16.012   3.354  52.068  1.00  0.00     0.210 C 
ENDBRANCH  19  25
ENDBRANCH  15  17
ENDBRANCH   1  15
BRANCH   7  27
HETATM   27  O2  UNL     1      27.599  -0.500  52.600  1.00  0.00    -0.277 OA
BRANCH  27  28
HETATM   28  S1  UNL     1      28.703  -0.320  53.931  1.00  0.00    -0.009 SA
HETATM   29  C10 UNL     1      29.051   1.454  54.115  1.00  0.00     0.123 C 
ENDBRANCH  27  28
ENDBRANCH   7  27
TORSDOF 5
ENDMDL
MODEL 2
REMARK VINA RESULT:      -7.3      3.996      6.395
REMARK  5 active torsions:
REMARK  status: ('A' for Active; 'I' for Inactive)
REMARK    1  A    between atoms: O1_2  and  C2_3 
REMARK    2  A    between atoms: C4_5  and  N1_6 
REMARK    3  A    between atoms: N1_6  and  C5_7 
REMARK    4  A    between atoms: C9_13  and  O2_14 
REMARK    5  A    between atoms: O2_14  and  S1_15 
ROOT
HETATM    1  C5  UNL     1      26.033   2.771  50.745  1.00  0.00     0.144 A 
HETATM    2  N2  UNL     1      27.136   2.812  51.496  1.00  0.00    -0.223 NA
HETATM    3  C6  UNL     1      27.081   2.280  52.751  1.00  0.00     0.236 A 
HETATM    4  N3  UNL     1      25.954   1.731  53.217  1.00  0.00    -0.241 NA
HETATM    5  C7  UNL     1      24.837   1.673  52.499  1.00  0.00     0.077 A 
HETATM    6  C8  UNL     1      23.686   1.104  52.997  1.00  0.00     0.073 A 
HETATM    7  C9  UNL     1      22.563   1.085  52.177  1.00  0.00     0.123 A 
HETATM    8  C11 UNL     1      22.585   1.622  50.886  1.00  0.00     0.138 A 
HETATM    9  C12 UNL     1      23.774   2.174  50.458  1.00  0.00     0.121 A 
HETATM   10  C13 UNL     1      24.894   2.210  51.234  1.00  0.00     0.075 A 
HETATM   11  O3  UNL     1      23.742   2.691  49.174  1.00  0.00    -0.345 OA
HETATM   12  C14 UNL     1      22.496   3.055  48.621  1.00  0.00     0.202 C 
HETATM   13  C15 UNL     1      21.498   1.911  48.761  1.00  0.00     0.202 C 
HETATM   14  O4  UNL     1      21.401   1.550  50.146  1.00  0.00    -0.344 OA
ENDROOT
BRANCH   1  15
HETATM   15  N1  UNL     1      26.153   3.341  49.451  1.00  0.00    -0.340 N 
HETATM   16  H5  UNL     1      26.214   3.224  48.441  1.00  0.00     0.167 HD
BRANCH  15  17
HETATM   17  C4  UNL     1      26.246   4.779  49.359  1.00  0.00     0.036 A 
HETATM   18  C3  UNL     1      25.282   5.554  50.104  1.00  0.00     0.066 A 
HETATM   19  C2  UNL     1      25.172   6.854  50.164  1.00  0.00     0.069 A 
HETATM   20  P1  UNL     1      26.331   7.818  49.233  1.00  0.00    -0.077 P 
HETATM   21  C17 UNL     1      27.324   6.807  48.473  1.00  0.00     0.008 A 
HETATM   22  C18 UNL     1      27.269   8.922  50.329  1.00  0.00     0.047 C 
HETATM   23  H17 UNL     1      25.663   8.678  48.310  1.00  0.00     0.063 HD
HETATM   24  C16 UNL     1      27.158   5.370  48.631  1.00  0.00     0.030 A 
BRANCH  19  25
HETATM   25  O1  UNL     1      24.296   7.653  50.837  1.00  0.00    -0.356 OA
HETATM   26  C1  UNL     1      22.898   7.555  50.604  1.00  0.00     0.210 C 
ENDBRANCH  19  25
ENDBRANCH  15  17
ENDBRANCH   1  15
BRANCH   7  27
HETATM   27  O2  UNL     1      21.407   0.511  52.684  1.00  0.00    -0.277 OA
BRANCH  27  28
HETATM   28  S1  UNL     1      21.297   0.057  54.358  1.00  0.00    -0.009 SA
HETATM   29  C10 UNL     1      21.623  -1.727  54.463  1.00  0.00     0.123 C 
ENDBRANCH  27  28
ENDBRANCH   7  27
TORSDOF 5
ENDMDL
MODEL 3
REMARK VINA RESULT:      -7.2      4.253      7.131
REMARK  5 active torsions:
REMARK  status: ('A' for Active; 'I' for Inactive)
REMARK    1  A    between atoms: O1_2  and  C2_3 
REMARK    2  A    between atoms: C4_5  and  N1_6 
REMARK    3  A    between atoms: N1_6  and  C5_7 
REMARK    4  A    between atoms: C9_13  and  O2_14 
REMARK    5  A    between atoms: O2_14  and  S1_15 
ROOT
HETATM    1  C5  UNL     1      25.830   2.861  50.546  1.00  0.00     0.144 A 
HETATM    2  N2  UNL     1      26.980   2.833  51.224  1.00  0.00    -0.223 NA
HETATM    3  C6  UNL     1      27.012   2.162  52.411  1.00  0.00     0.236 A 
HETATM    4  N3  UNL     1      25.922   1.548  52.884  1.00  0.00    -0.241 NA
HETATM    5  C7  UNL     1      24.760   1.554  52.238  1.00  0.00     0.077 A 
HETATM    6  C8  UNL     1      23.649   0.916  52.742  1.00  0.00     0.073 A 
HETATM    7  C9  UNL     1      22.474   0.973  51.999  1.00  0.00     0.123 A 
HETATM    8  C11 UNL     1      22.407   1.653  50.779  1.00  0.00     0.138 A 
HETATM    9  C12 UNL     1      23.561   2.267  50.340  1.00  0.00     0.121 A 
HETATM   10  C13 UNL     1      24.730   2.232  51.041  1.00  0.00     0.075 A 
HETATM   11  O3  UNL     1      23.440   2.925  49.128  1.00  0.00    -0.345 OA
HETATM   12  C14 UNL     1      22.158   3.330  48.702  1.00  0.00     0.202 C 
HETATM   13  C15 UNL     1      21.180   2.163  48.776  1.00  0.00     0.202 C 
HETATM   14  O4  UNL     1      21.177   1.648  50.114  1.00  0.00    -0.344 OA
ENDROOT
BRANCH   1  15
HETATM   15  N1  UNL     1      25.860   3.574  49.320  1.00  0.00    -0.340 N 
HETATM   16  H5  UNL     1      25.803   3.578  48.303  1.00  0.00     0.167 HD
BRANCH  15  17
HETATM   17  C4  UNL     1      26.066   5.003  49.382  1.00  0.00     0.036 A 
HETATM   18  C3  UNL     1      27.181   5.545  48.642  1.00  0.00     0.066 A 
HETATM   19  C2  UNL     1      27.559   6.792  48.559  1.00  0.00     0.069 A 
HETATM   20  P1  UNL     1      26.611   7.995  49.450  1.00  0.00    -0.077 P 
HETATM   21  C17 UNL     1      25.419   7.229  50.210  1.00  0.00     0.008 A 
HETATM   22  C18 UNL     1      25.938   9.245  48.316  1.00  0.00     0.047 C 
HETATM   23  H17 UNL     1      27.430   8.719  50.369  1.00  0.00     0.063 HD
HETATM   24  C16 UNL     1      25.287   5.785  50.082  1.00  0.00     0.030 A 
BRANCH  19  25
HETATM   25  O1  UNL     1      28.590   7.377  47.887  1.00  0.00    -0.356 OA
HETATM   26  C1  UNL     1      29.567   8.140  48.582  1.00  0.00     0.210 C 
ENDBRANCH  19  25
ENDBRANCH  15  17
ENDBRANCH   1  15
BRANCH   7  27
HETATM   27  O2  UNL     1      21.359   0.329  52.511  1.00  0.00    -0.277 OA
BRANCH  27  28
HETATM   28  S1  UNL     1      21.173   0.093  54.224  1.00  0.00    -0.009 SA
HETATM   29  C10 UNL     1      21.576  -1.642  54.582  1.00  0.00     0.123 C 
ENDBRANCH  27  28
ENDBRANCH   7  27
TORSDOF 5
ENDMDL
MODEL 4
REMARK VINA RESULT:      -7.1      3.268      4.361
REMARK  5 active torsions:
REMARK  status: ('A' for Active; 'I' for Inactive)
REMARK    1  A    between atoms: O1_2  and  C2_3 
REMARK    2  A    between atoms: C4_5  and  N1_6 
REMARK    3  A    between atoms: N1_6  and  C5_7 
REMARK    4  A    between atoms: C9_13  and  O2_14 
REMARK    5  A    between atoms: O2_14  and  S1_15 
ROOT
HETATM    1  C5  UNL     1      24.351   2.844  50.612  1.00  0.00     0.144 A 
HETATM    2  N2  UNL     1      25.010   3.709  49.838  1.00  0.00    -0.223 NA
HETATM    3  C6  UNL     1      26.371   3.753  49.934  1.00  0.00     0.236 A 
HETATM    4  N3  UNL     1      27.026   2.952  50.781  1.00  0.00    -0.241 NA
HETATM    5  C7  UNL     1      26.404   2.079  51.567  1.00  0.00     0.077 A 
HETATM    6  C8  UNL     1      27.098   1.263  52.433  1.00  0.00     0.073 A 
HETATM    7  C9  UNL     1      26.366   0.378  53.219  1.00  0.00     0.123 A 
HETATM    8  C11 UNL     1      24.972   0.308  53.145  1.00  0.00     0.138 A 
HETATM    9  C12 UNL     1      24.349   1.158  52.255  1.00  0.00     0.121 A 
HETATM   10  C13 UNL     1      25.033   2.037  51.468  1.00  0.00     0.075 A 
HETATM   11  O3  UNL     1      22.969   1.047  52.221  1.00  0.00    -0.345 OA
HETATM   12  C14 UNL     1      22.305   0.505  53.341  1.00  0.00     0.202 C 
HETATM   13  C15 UNL     1      22.937  -0.824  53.742  1.00  0.00     0.202 C 
HETATM   14  O4  UNL     1      24.336  -0.616  53.979  1.00  0.00    -0.344 OA
ENDROOT
BRANCH   1  15
HETATM   15  N1  UNL     1      22.939   2.847  50.466  1.00  0.00    -0.340 N 
HETATM   16  H5  UNL     1      22.015   2.671  50.855  1.00  0.00     0.167 HD
BRANCH  15  17
HETATM   17  C4  UNL     1      22.399   3.287  49.201  1.00  0.00     0.036 A 
HETATM   18  C3  UNL     1      21.724   4.563  49.177  1.00  0.00     0.066 A 
HETATM   19  C2  UNL     1      21.157   5.151  48.159  1.00  0.00     0.069 A 
HETATM   20  P1  UNL     1      21.203   4.313  46.598  1.00  0.00    -0.077 P 
HETATM   21  C17 UNL     1      21.985   2.922  46.802  1.00  0.00     0.008 A 
HETATM   22  C18 UNL     1      22.041   5.333  45.350  1.00  0.00     0.047 C 
HETATM   23  H17 UNL     1      19.887   4.096  46.090  1.00  0.00     0.063 HD
HETATM   24  C16 UNL     1      22.502   2.566  48.115  1.00  0.00     0.030 A 
BRANCH  19  25
HETATM   25  O1  UNL     1      20.505   6.344  48.057  1.00  0.00    -0.356 OA
HETATM   26  C1  UNL     1      21.188   7.567  48.300  1.00  0.00     0.210 C 
ENDBRANCH  19  25
ENDBRANCH  15  17
ENDBRANCH   1  15
BRANCH   7  27
HETATM   27  O2  UNL     1      27.070  -0.440  54.088  1.00  0.00    -0.277 OA
BRANCH  27  28
HETATM   28  S1  UNL     1      28.659   0.000  54.640  1.00  0.00    -0.009 SA
HETATM   29  C10 UNL     1      29.860  -0.959  53.671  1.00  0.00     0.123 C 
ENDBRANCH  27  28
ENDBRANCH   7  27
TORSDOF 5
ENDMDL
MODEL 5
REMARK VINA RESULT:      -7.0      4.576      8.436
REMARK  5 active torsions:
REMARK  status: ('A' for Active; 'I' for Inactive)
REMARK    1  A    between atoms: O1_2  and  C2_3 
REMARK    2  A    between atoms: C4_5  and  N1_6 
REMARK    3  A    between atoms: N1_6  and  C5_7 
REMARK    4  A    between atoms: C9_13  and  O2_14 
REMARK    5  A    between atoms: O2_14  and  S1_15 
ROOT
HETATM    1  C5  UNL     1      26.011   3.561  49.983  1.00  0.00     0.144 A 
HETATM    2  N2  UNL     1      27.169   3.565  49.318  1.00  0.00    -0.223 NA
HETATM    3  C6  UNL     1      27.570   4.729  48.731  1.00  0.00     0.236 A 
HETATM    4  N3  UNL     1      26.824   5.836  48.819  1.00  0.00    -0.241 NA
HETATM    5  C7  UNL     1      25.667   5.869  49.471  1.00  0.00     0.077 A 
HETATM    6  C8  UNL     1      24.913   7.020  49.549  1.00  0.00     0.073 A 
HETATM    7  C9  UNL     1      23.715   6.965  50.253  1.00  0.00     0.123 A 
HETATM    8  C11 UNL     1      23.275   5.788  50.866  1.00  0.00     0.138 A 
HETATM    9  C12 UNL     1      24.083   4.678  50.743  1.00  0.00     0.121 A 
HETATM   10  C13 UNL     1      25.265   4.695  50.062  1.00  0.00     0.075 A 
HETATM   11  O3  UNL     1      23.602   3.540  51.369  1.00  0.00    -0.345 OA
HETATM   12  C14 UNL     1      22.219   3.444  51.628  1.00  0.00     0.202 C 
HETATM   13  C15 UNL     1      21.723   4.696  52.343  1.00  0.00     0.202 C 
HETATM   14  O4  UNL     1      22.055   5.842  51.548  1.00  0.00    -0.344 OA
ENDROOT
BRANCH   1  15
HETATM   15  N1  UNL     1      25.649   2.321  50.571  1.00  0.00    -0.340 N 
HETATM   16  H5  UNL     1      25.021   1.521  50.620  1.00  0.00     0.167 HD
BRANCH  15  17
HETATM   17  C4  UNL     1      26.484   1.816  51.637  1.00  0.00     0.036 A 
HETATM   18  C3  UNL     1      26.324   0.429  52.005  1.00  0.00     0.066 A 
HETATM   19  C2  UNL     1      26.959  -0.233  52.933  1.00  0.00     0.069 A 
HETATM   20  P1  UNL     1      28.175   0.644  53.878  1.00  0.00    -0.077 P 
HETATM   21  C17 UNL     1      28.226   2.159  53.342  1.00  0.00     0.008 A 
HETATM   22  C18 UNL     1      29.804  -0.143  53.708  1.00  0.00     0.047 C 
HETATM   23  H17 UNL     1      27.876   0.599  55.273  1.00  0.00     0.063 HD
HETATM   24  C16 UNL     1      27.350   2.575  52.257  1.00  0.00     0.030 A 
BRANCH  19  25
HETATM   25  O1  UNL     1      26.865  -1.531  53.337  1.00  0.00    -0.356 OA
HETATM   26  C1  UNL     1      27.414  -2.578  52.549  1.00  0.00     0.210 C 
ENDBRANCH  19  25
ENDBRANCH  15  17
ENDBRANCH   1  15
BRANCH   7  27
HETATM   27  O2  UNL     1      22.961   8.125  50.328  1.00  0.00    -0.277 OA
BRANCH  27  28
HETATM   28  S1  UNL     1      22.081   8.709  48.947  1.00  0.00    -0.009 SA
HETATM   29  C10 UNL     1      21.516   7.260  48.007  1.00  0.00     0.123 C 
ENDBRANCH  27  28
ENDBRANCH   7  27
TORSDOF 5
ENDMDL
MODEL 6
REMARK VINA RESULT:      -6.9      2.036      3.518
REMARK  5 active torsions:
REMARK  status: ('A' for Active; 'I' for Inactive)
REMARK    1  A    between atoms: O1_2  and  C2_3 
REMARK    2  A    between atoms: C4_5  and  N1_6 
REMARK    3  A    between atoms: N1_6  and  C5_7 
REMARK    4  A    between atoms: C9_13  and  O2_14 
REMARK    5  A    between atoms: O2_14  and  S1_15 
ROOT
HETATM    1  C5  UNL     1      23.070   1.174  51.656  1.00  0.00     0.144 A 
HETATM    2  N2  UNL     1      23.242   2.017  50.635  1.00  0.00    -0.223 NA
HETATM    3  C6  UNL     1      24.486   2.542  50.436  1.00  0.00     0.236 A 
HETATM    4  N3  UNL     1      25.504   2.222  51.242  1.00  0.00    -0.241 NA
HETATM    5  C7  UNL     1      25.371   1.389  52.268  1.00  0.00     0.077 A 
HETATM    6  C8  UNL     1      26.433   1.072  53.086  1.00  0.00     0.073 A 
HETATM    7  C9  UNL     1      26.203   0.189  54.137  1.00  0.00     0.123 A 
HETATM    8  C11 UNL     1      24.941  -0.366  54.368  1.00  0.00     0.138 A 
HETATM    9  C12 UNL     1      23.928  -0.001  53.507  1.00  0.00     0.121 A 
HETATM   10  C13 UNL     1      24.117   0.860  52.466  1.00  0.00     0.075 A 
HETATM   11  O3  UNL     1      22.700  -0.580  53.780  1.00  0.00    -0.345 OA
HETATM   12  C14 UNL     1      22.450  -1.052  55.085  1.00  0.00     0.202 C 
HETATM   13  C15 UNL     1      23.583  -1.961  55.549  1.00  0.00     0.202 C 
HETATM   14  O4  UNL     1      24.820  -1.242  55.452  1.00  0.00    -0.344 OA
ENDROOT
BRANCH   1  15
HETATM   15  N1  UNL     1      21.756   0.662  51.811  1.00  0.00    -0.340 N 
HETATM   16  H5  UNL     1      21.134  -0.107  52.054  1.00  0.00     0.167 HD
BRANCH  15  17
HETATM   17  C4  UNL     1      20.654   1.548  51.513  1.00  0.00     0.036 A 
HETATM   18  C3  UNL     1      19.607   1.039  50.658  1.00  0.00     0.066 A 
HETATM   19  C2  UNL     1      18.531   1.657  50.253  1.00  0.00     0.069 A 
HETATM   20  P1  UNL     1      18.289   3.325  50.800  1.00  0.00    -0.077 P 
HETATM   21  C17 UNL     1      19.534   3.729  51.735  1.00  0.00     0.008 A 
HETATM   22  C18 UNL     1      16.731   3.476  51.722  1.00  0.00     0.047 C 
HETATM   23  H17 UNL     1      18.163   4.218  49.694  1.00  0.00     0.063 HD
HETATM   24  C16 UNL     1      20.596   2.766  51.985  1.00  0.00     0.030 A 
BRANCH  19  25
HETATM   25  O1  UNL     1      17.505   1.249  49.453  1.00  0.00    -0.356 OA
HETATM   26  C1  UNL     1      16.772   0.070  49.758  1.00  0.00     0.210 C 
ENDBRANCH  19  25
ENDBRANCH  15  17
ENDBRANCH   1  15
BRANCH   7  27
HETATM   27  O2  UNL     1      27.275  -0.125  54.957  1.00  0.00    -0.277 OA
BRANCH  27  28
HETATM   28  S1  UNL     1      28.884   0.403  54.564  1.00  0.00    -0.009 SA
HETATM   29  C10 UNL     1      29.702  -0.954  53.674  1.00  0.00     0.123 C 
ENDBRANCH  27  28
ENDBRANCH   7  27
TORSDOF 5
ENDMDL
MODEL 7
REMARK VINA RESULT:      -6.9      2.044      2.277
REMARK  5 active torsions:
REMARK  status: ('A' for Active; 'I' for Inactive)
REMARK    1  A    between atoms: O1_2  and  C2_3 
REMARK    2  A    between atoms: C4_5  and  N1_6 
REMARK    3  A    between atoms: N1_6  and  C5_7 
REMARK    4  A    between atoms: C9_13  and  O2_14 
REMARK    5  A    between atoms: O2_14  and  S1_15 
ROOT
HETATM    1  C5  UNL     1      21.780   0.650  53.518  1.00  0.00     0.144 A 
HETATM    2  N2  UNL     1      21.231  -0.171  54.417  1.00  0.00    -0.223 NA
HETATM    3  C6  UNL     1      22.034  -1.093  55.023  1.00  0.00     0.236 A 
HETATM    4  N3  UNL     1      23.335  -1.172  54.726  1.00  0.00    -0.241 NA
HETATM    5  C7  UNL     1      23.916  -0.374  53.837  1.00  0.00     0.077 A 
HETATM    6  C8  UNL     1      25.259  -0.472  53.545  1.00  0.00     0.073 A 
HETATM    7  C9  UNL     1      25.785   0.406  52.602  1.00  0.00     0.123 A 
HETATM    8  C11 UNL     1      24.990   1.362  51.962  1.00  0.00     0.138 A 
HETATM    9  C12 UNL     1      23.655   1.398  52.308  1.00  0.00     0.121 A 
HETATM   10  C13 UNL     1      23.105   0.555  53.227  1.00  0.00     0.075 A 
HETATM   11  O3  UNL     1      22.914   2.363  51.646  1.00  0.00    -0.345 OA
HETATM   12  C14 UNL     1      23.390   2.856  50.414  1.00  0.00     0.202 C 
HETATM   13  C15 UNL     1      24.844   3.298  50.545  1.00  0.00     0.202 C 
HETATM   14  O4  UNL     1      25.619   2.194  51.031  1.00  0.00    -0.344 OA
ENDROOT
BRANCH   1  15
HETATM   15  N1  UNL     1      20.894   1.585  52.923  1.00  0.00    -0.340 N 
HETATM   16  H5  UNL     1      20.606   2.549  52.772  1.00  0.00     0.167 HD
BRANCH  15  17
HETATM   17  C4  UNL     1      19.825   1.065  52.102  1.00  0.00     0.036 A 
HETATM   18  C3  UNL     1      18.995   0.030  52.673  1.00  0.00     0.066 A 
HETATM   19  C2  UNL     1      17.987  -0.586  52.119  1.00  0.00     0.069 A 
HETATM   20  P1  UNL     1      17.552  -0.122  50.465  1.00  0.00    -0.077 P 
HETATM   21  C17 UNL     1      18.566   1.032  49.988  1.00  0.00     0.008 A 
HETATM   22  C18 UNL     1      15.837   0.476  50.399  1.00  0.00     0.047 C 
HETATM   23  H17 UNL     1      17.596  -1.245  49.585  1.00  0.00     0.063 HD
HETATM   24  C16 UNL     1      19.610   1.499  50.888  1.00  0.00     0.030 A 
BRANCH  19  25
HETATM   25  O1  UNL     1      17.161  -1.565  52.587  1.00  0.00    -0.356 OA
HETATM   26  C1  UNL     1      17.648  -2.558  53.479  1.00  0.00     0.210 C 
ENDBRANCH  19  25
ENDBRANCH  15  17
ENDBRANCH   1  15
BRANCH   7  27
HETATM   27  O2  UNL     1      27.136   0.302  52.312  1.00  0.00    -0.277 OA
BRANCH  27  28
HETATM   28  S1  UNL     1      28.326   1.076  53.315  1.00  0.00    -0.009 SA
HETATM   29  C10 UNL     1      28.861  -0.133  54.561  1.00  0.00     0.123 C 
ENDBRANCH  27  28
ENDBRANCH   7  27
TORSDOF 5
ENDMDL
MODEL 8
REMARK VINA RESULT:      -6.9      2.054      3.531
REMARK  5 active torsions:
REMARK  status: ('A' for Active; 'I' for Inactive)
REMARK    1  A    between atoms: O1_2  and  C2_3 
REMARK    2  A    between atoms: C4_5  and  N1_6 
REMARK    3  A    between atoms: N1_6  and  C5_7 
REMARK    4  A    between atoms: C9_13  and  O2_14 
REMARK    5  A    between atoms: O2_14  and  S1_15 
ROOT
HETATM    1  C5  UNL     1      21.164   0.976  50.881  1.00  0.00     0.144 A 
HETATM    2  N2  UNL     1      21.116   1.725  49.776  1.00  0.00    -0.223 NA
HETATM    3  C6  UNL     1      22.244   2.397  49.404  1.00  0.00     0.236 A 
HETATM    4  N3  UNL     1      23.367   2.308  50.126  1.00  0.00    -0.241 NA
HETATM    5  C7  UNL     1      23.451   1.574  51.231  1.00  0.00     0.077 A 
HETATM    6  C8  UNL     1      24.617   1.497  51.961  1.00  0.00     0.073 A 
HETATM    7  C9  UNL     1      24.616   0.704  53.104  1.00  0.00     0.123 A 
HETATM    8  C11 UNL     1      23.478   0.002  53.513  1.00  0.00     0.138 A 
HETATM    9  C12 UNL     1      22.349   0.130  52.730  1.00  0.00     0.121 A 
HETATM   10  C13 UNL     1      22.313   0.898  51.604  1.00  0.00     0.075 A 
HETATM   11  O3  UNL     1      21.252  -0.585  53.179  1.00  0.00    -0.345 OA
HETATM   12  C14 UNL     1      21.191  -0.950  54.540  1.00  0.00     0.202 C 
HETATM   13  C15 UNL     1      22.485  -1.638  54.963  1.00  0.00     0.202 C 
HETATM   14  O4  UNL     1      23.586  -0.765  54.676  1.00  0.00    -0.344 OA
ENDROOT
BRANCH   1  15
HETATM   15  N1  UNL     1      19.960   0.303  51.214  1.00  0.00    -0.340 N 
HETATM   16  H5  UNL     1      19.486  -0.506  51.611  1.00  0.00     0.167 HD
BRANCH  15  17
HETATM   17  C4  UNL     1      18.715   0.962  50.896  1.00  0.00     0.036 A 
HETATM   18  C3  UNL     1      18.384   2.152  51.644  1.00  0.00     0.066 A 
HETATM   19  C2  UNL     1      17.320   2.900  51.533  1.00  0.00     0.069 A 
HETATM   20  P1  UNL     1      16.110   2.429  50.327  1.00  0.00    -0.077 P 
HETATM   21  C17 UNL     1      16.632   1.097  49.591  1.00  0.00     0.008 A 
HETATM   22  C18 UNL     1      15.860   3.763  49.119  1.00  0.00     0.047 C 
HETATM   23  H17 UNL     1      14.834   2.220  50.930  1.00  0.00     0.063 HD
HETATM   24  C16 UNL     1      17.905   0.507  49.975  1.00  0.00     0.030 A 
BRANCH  19  25
HETATM   25  O1  UNL     1      16.939   4.028  52.197  1.00  0.00    -0.356 OA
HETATM   26  C1  UNL     1      15.615   4.165  52.692  1.00  0.00     0.210 C 
ENDBRANCH  19  25
ENDBRANCH  15  17
ENDBRANCH   1  15
BRANCH   7  27
HETATM   27  O2  UNL     1      25.792   0.630  53.834  1.00  0.00    -0.277 OA
BRANCH  27  28
HETATM   28  S1  UNL     1      27.127  -0.336  53.281  1.00  0.00    -0.009 SA
HETATM   29  C10 UNL     1      28.517  -0.047  54.415  1.00  0.00     0.123 C 
ENDBRANCH  27  28
ENDBRANCH   7  27
TORSDOF 5
ENDMDL
MODEL 9
REMARK VINA RESULT:      -6.8      4.188      7.139
REMARK  5 active torsions:
REMARK  status: ('A' for Active; 'I' for Inactive)
REMARK    1  A    between atoms: O1_2  and  C2_3 
REMARK    2  A    between atoms: C4_5  and  N1_6 
REMARK    3  A    between atoms: N1_6  and  C5_7 
REMARK    4  A    between atoms: C9_13  and  O2_14 
REMARK    5  A    between atoms: O2_14  and  S1_15 
ROOT
HETATM    1  C5  UNL     1      24.307   3.225  49.567  1.00  0.00     0.144 A 
HETATM    2  N2  UNL     1      23.533   3.717  48.597  1.00  0.00    -0.223 NA
HETATM    3  C6  UNL     1      22.222   3.340  48.566  1.00  0.00     0.236 A 
HETATM    4  N3  UNL     1      21.725   2.502  49.482  1.00  0.00    -0.241 NA
HETATM    5  C7  UNL     1      22.465   1.993  50.462  1.00  0.00     0.077 A 
HETATM    6  C8  UNL     1      21.934   1.131  51.396  1.00  0.00     0.073 A 
HETATM    7  C9  UNL     1      22.781   0.646  52.388  1.00  0.00     0.123 A 
HETATM    8  C11 UNL     1      24.130   1.012  52.448  1.00  0.00     0.138 A 
HETATM    9  C12 UNL     1      24.587   1.878  51.477  1.00  0.00     0.121 A 
HETATM   10  C13 UNL     1      23.786   2.374  50.491  1.00  0.00     0.075 A 
HETATM   11  O3  UNL     1      25.928   2.208  51.583  1.00  0.00    -0.345 OA
HETATM   12  C14 UNL     1      26.786   1.336  52.285  1.00  0.00     0.202 C 
HETATM   13  C15 UNL     1      26.207   1.011  53.658  1.00  0.00     0.202 C 
HETATM   14  O4  UNL     1      24.891   0.466  53.485  1.00  0.00    -0.344 OA
ENDROOT
BRANCH   1  15
HETATM   15  N1  UNL     1      25.660   3.654  49.545  1.00  0.00    -0.340 N 
HETATM   16  H5  UNL     1      26.653   3.429  49.531  1.00  0.00     0.167 HD
BRANCH  15  17
HETATM   17  C4  UNL     1      25.911   5.076  49.539  1.00  0.00     0.036 A 
HETATM   18  C3  UNL     1      26.955   5.561  48.667  1.00  0.00     0.066 A 
HETATM   19  C2  UNL     1      27.356   6.792  48.504  1.00  0.00     0.069 A 
HETATM   20  P1  UNL     1      26.544   8.051  49.451  1.00  0.00    -0.077 P 
HETATM   21  C17 UNL     1      25.419   7.344  50.358  1.00  0.00     0.008 A 
HETATM   22  C18 UNL     1      25.788   9.287  48.355  1.00  0.00     0.047 C 
HETATM   23  H17 UNL     1      27.476   8.775  50.253  1.00  0.00     0.063 HD
HETATM   24  C16 UNL     1      25.234   5.903  50.292  1.00  0.00     0.030 A 
BRANCH  19  25
HETATM   25  O1  UNL     1      28.326   7.326  47.708  1.00  0.00    -0.356 OA
HETATM   26  C1  UNL     1      29.430   8.018  48.274  1.00  0.00     0.210 C 
ENDBRANCH  19  25
ENDBRANCH  15  17
ENDBRANCH   1  15
BRANCH   7  27
HETATM   27  O2  UNL     1      22.242  -0.221  53.325  1.00  0.00    -0.277 OA
BRANCH  27  28
HETATM   28  S1  UNL     1      20.797   0.195  54.198  1.00  0.00    -0.009 SA
HETATM   29  C10 UNL     1      19.410  -0.666  53.400  1.00  0.00     0.123 C 
ENDBRANCH  27  28
ENDBRANCH   7  27
TORSDOF 5
ENDMDL
