MODEL 1
REMARK VINA RESULT:      -7.8      0.000      0.000
REMARK  4 active torsions:
REMARK  status: ('A' for Active; 'I' for Inactive)
REMARK    1  A    between atoms: C2_2  and  C3_3 
REMARK    2  A    between atoms: C3_3  and  N1_4 
REMARK    3  A    between atoms: N1_4  and  C4_5 
REMARK    4  A    between atoms: N5_18  and  C14_19 
ROOT
HETATM    1  C4  UNL     1      26.383   0.486  53.523  1.00  0.00     0.028 C 
HETATM    2  C5  UNL     1      25.098   0.183  53.474  1.00  0.00     0.037 C 
HETATM    3  C6  UNL     1      24.159   1.035  52.695  1.00  0.00     0.191 C 
HETATM    4  C7  UNL     1      24.841   1.390  51.400  1.00  0.00     0.096 C 
HETATM    5  C8  UNL     1      26.118   2.049  51.707  1.00  0.00     0.014 C 
HETATM    6  C9  UNL     1      26.929   1.479  52.584  1.00  0.00     0.053 C 
HETATM    7  N2  UNL     1      26.536   3.256  51.126  1.00  0.00    -0.367 N 
HETATM    8  C10 UNL     1      25.747   4.081  50.280  1.00  0.00     0.124 C 
HETATM    9  C11 UNL     1      24.536   4.448  50.663  1.00  0.00     0.125 A 
HETATM   10  C12 UNL     1      23.978   4.026  51.942  1.00  0.00     0.231 A 
HETATM   11  N3  UNL     1      22.790   4.402  52.276  1.00  0.00    -0.212 NA
HETATM   12  C13 UNL     1      21.959   5.230  51.453  1.00  0.00     0.258 A 
HETATM   13  N4  UNL     1      22.425   5.624  50.306  1.00  0.00    -0.164 NA
HETATM   14  N5  UNL     1      23.710   5.264  49.857  1.00  0.00    -0.251 N 
HETATM   15  O1  UNL     1      24.586   3.230  52.902  1.00  0.00    -0.174 OA
HETATM   16  O2  UNL     1      23.930   2.187  53.476  1.00  0.00    -0.224 OA
HETATM   17  H12 UNL     1      27.500   3.615  51.302  1.00  0.00     0.165 HD
ENDROOT
BRANCH  14  18
HETATM   18  C14 UNL     1      24.140   5.759  48.574  1.00  0.00     0.158 A 
HETATM   19  C15 UNL     1      24.669   7.129  48.589  1.00  0.00     0.005 A 
HETATM   20  C16 UNL     1      23.968   7.889  47.729  1.00  0.00     0.017 A 
HETATM   21  C17 UNL     1      22.934   7.041  47.099  1.00  0.00     0.009 A 
HETATM   22 BR1  UNL     1      21.558   7.300  45.811  1.00  0.00    -0.051 Br
HETATM   23  C18 UNL     1      23.049   5.821  47.597  1.00  0.00     0.023 A 
ENDBRANCH  14  18
BRANCH   1  24
HETATM   24  N1  UNL     1      27.293  -0.115  54.464  1.00  0.00    -0.387 N 
HETATM   25  H6  UNL     1      26.709  -0.837  54.950  1.00  0.00     0.160 HD
BRANCH  24  26
HETATM   26  C3  UNL     1      28.687   0.060  54.827  1.00  0.00     0.146 C 
BRANCH  26  27
HETATM   27  C2  UNL     1      29.578  -0.532  53.795  1.00  0.00    -0.018 C 
HETATM   28  C1  UNL     1      29.371  -1.770  53.353  1.00  0.00     0.008 C 
ENDBRANCH  26  27
ENDBRANCH  24  26
ENDBRANCH   1  24
TORSDOF 4
ENDMDL
MODEL 2
REMARK VINA RESULT:      -7.4      3.089      4.655
REMARK  4 active torsions:
REMARK  status: ('A' for Active; 'I' for Inactive)
REMARK    1  A    between atoms: C2_2  and  C3_3 
REMARK    2  A    between atoms: C3_3  and  N1_4 
REMARK    3  A    between atoms: N1_4  and  C4_5 
REMARK    4  A    between atoms: N5_18  and  C14_19 
ROOT
HETATM    1  C4  UNL     1      27.786   0.697  53.970  1.00  0.00     0.028 C 
HETATM    2  C5  UNL     1      27.803   1.970  53.618  1.00  0.00     0.037 C 
HETATM    3  C6  UNL     1      26.585   2.602  53.043  1.00  0.00     0.191 C 
HETATM    4  C7  UNL     1      25.404   2.116  53.842  1.00  0.00     0.096 C 
HETATM    5  C8  UNL     1      25.382   0.647  53.800  1.00  0.00     0.014 C 
HETATM    6  C9  UNL     1      26.499  -0.009  54.068  1.00  0.00     0.053 C 
HETATM    7  N2  UNL     1      24.242  -0.109  53.490  1.00  0.00    -0.367 N 
HETATM    8  C10 UNL     1      23.000   0.415  53.039  1.00  0.00     0.124 C 
HETATM    9  C11 UNL     1      22.973   1.253  52.016  1.00  0.00     0.125 A 
HETATM   10  C12 UNL     1      24.193   1.660  51.330  1.00  0.00     0.231 A 
HETATM   11  N3  UNL     1      24.123   2.484  50.339  1.00  0.00    -0.212 NA
HETATM   12  C13 UNL     1      22.894   3.040  49.854  1.00  0.00     0.258 A 
HETATM   13  N4  UNL     1      21.787   2.698  50.444  1.00  0.00    -0.164 NA
HETATM   14  N5  UNL     1      21.766   1.805  51.533  1.00  0.00    -0.251 N 
HETATM   15  O1  UNL     1      25.491   1.260  51.613  1.00  0.00    -0.174 OA
HETATM   16  O2  UNL     1      26.505   2.160  51.705  1.00  0.00    -0.224 OA
HETATM   17  H12 UNL     1      24.262  -1.148  53.584  1.00  0.00     0.165 HD
ENDROOT
BRANCH  14  18
HETATM   18  C14 UNL     1      20.487   1.481  52.114  1.00  0.00     0.158 A 
HETATM   19  C15 UNL     1      19.740   0.432  51.408  1.00  0.00     0.005 A 
HETATM   20  C16 UNL     1      18.535   0.906  51.049  1.00  0.00     0.017 A 
HETATM   21  C17 UNL     1      18.432   2.307  51.509  1.00  0.00     0.009 A 
HETATM   22 BR1  UNL     1      17.114   3.677  51.424  1.00  0.00    -0.051 Br
HETATM   23  C18 UNL     1      19.564   2.619  52.119  1.00  0.00     0.023 A 
ENDBRANCH  14  18
BRANCH   1  24
HETATM   24  N1  UNL     1      28.982  -0.048  54.269  1.00  0.00    -0.387 N 
HETATM   25  H6  UNL     1      29.055   0.006  55.313  1.00  0.00     0.160 HD
BRANCH  24  26
HETATM   26  C3  UNL     1      29.982  -0.770  53.503  1.00  0.00     0.146 C 
BRANCH  26  27
HETATM   27  C2  UNL     1      29.675  -2.224  53.476  1.00  0.00    -0.018 C 
HETATM   28  C1  UNL     1      28.570  -2.671  52.884  1.00  0.00     0.008 C 
ENDBRANCH  26  27
ENDBRANCH  24  26
ENDBRANCH   1  24
TORSDOF 4
ENDMDL
MODEL 3
REMARK VINA RESULT:      -7.4      1.616      1.818
REMARK  4 active torsions:
REMARK  status: ('A' for Active; 'I' for Inactive)
REMARK    1  A    between atoms: C2_2  and  C3_3 
REMARK    2  A    between atoms: C3_3  and  N1_4 
REMARK    3  A    between atoms: N1_4  and  C4_5 
REMARK    4  A    between atoms: N5_18  and  C14_19 
ROOT
HETATM    1  C4  UNL     1      26.069   0.941  53.885  1.00  0.00     0.028 C 
HETATM    2  C5  UNL     1      25.108   0.090  53.567  1.00  0.00     0.037 C 
HETATM    3  C6  UNL     1      24.002   0.515  52.668  1.00  0.00     0.191 C 
HETATM    4  C7  UNL     1      24.611   1.326  51.554  1.00  0.00     0.096 C 
HETATM    5  C8  UNL     1      25.356   2.447  52.143  1.00  0.00     0.014 C 
HETATM    6  C9  UNL     1      26.202   2.196  53.129  1.00  0.00     0.053 C 
HETATM    7  N2  UNL     1      25.224   3.780  51.724  1.00  0.00    -0.367 N 
HETATM    8  C10 UNL     1      24.269   4.260  50.788  1.00  0.00     0.124 C 
HETATM    9  C11 UNL     1      22.989   3.969  50.946  1.00  0.00     0.125 A 
HETATM   10  C12 UNL     1      22.522   3.159  52.064  1.00  0.00     0.231 A 
HETATM   11  N3  UNL     1      21.265   2.894  52.179  1.00  0.00    -0.212 NA
HETATM   12  C13 UNL     1      20.269   3.354  51.256  1.00  0.00     0.258 A 
HETATM   13  N4  UNL     1      20.652   4.078  50.247  1.00  0.00    -0.164 NA
HETATM   14  N5  UNL     1      22.002   4.418  50.041  1.00  0.00    -0.251 N 
HETATM   15  O1  UNL     1      23.289   2.604  53.079  1.00  0.00    -0.174 OA
HETATM   16  O2  UNL     1      23.137   1.307  53.453  1.00  0.00    -0.224 OA
HETATM   17  H12 UNL     1      25.860   4.514  52.107  1.00  0.00     0.165 HD
ENDROOT
BRANCH  14  18
HETATM   18  C14 UNL     1      22.325   5.234  48.896  1.00  0.00     0.158 A 
HETATM   19  C15 UNL     1      21.369   6.315  48.624  1.00  0.00     0.005 A 
HETATM   20  C16 UNL     1      20.898   6.190  47.371  1.00  0.00     0.017 A 
HETATM   21  C17 UNL     1      21.531   5.005  46.754  1.00  0.00     0.009 A 
HETATM   22 BR1  UNL     1      21.437   4.134  45.065  1.00  0.00    -0.051 Br
HETATM   23  C18 UNL     1      22.348   4.469  47.646  1.00  0.00     0.023 A 
ENDBRANCH  14  18
BRANCH   1  24
HETATM   24  N1  UNL     1      27.006   0.699  54.951  1.00  0.00    -0.387 N 
HETATM   25  H6  UNL     1      26.507   1.042  55.806  1.00  0.00     0.160 HD
BRANCH  24  26
HETATM   26  C3  UNL     1      28.342   0.142  55.060  1.00  0.00     0.146 C 
BRANCH  26  27
HETATM   27  C2  UNL     1      28.884  -0.192  53.717  1.00  0.00    -0.018 C 
HETATM   28  C1  UNL     1      29.319  -1.421  53.450  1.00  0.00     0.008 C 
ENDBRANCH  26  27
ENDBRANCH  24  26
ENDBRANCH   1  24
TORSDOF 4
ENDMDL
MODEL 4
REMARK VINA RESULT:      -7.2      3.160      6.903
REMARK  4 active torsions:
REMARK  status: ('A' for Active; 'I' for Inactive)
REMARK    1  A    between atoms: C2_2  and  C3_3 
REMARK    2  A    between atoms: C3_3  and  N1_4 
REMARK    3  A    between atoms: N1_4  and  C4_5 
REMARK    4  A    between atoms: N5_18  and  C14_19 
ROOT
HETATM    1  C4  UNL     1      26.206   5.580  49.607  1.00  0.00     0.028 C 
HETATM    2  C5  UNL     1      26.525   4.401  49.101  1.00  0.00     0.037 C 
HETATM    3  C6  UNL     1      25.845   3.172  49.589  1.00  0.00     0.191 C 
HETATM    4  C7  UNL     1      24.381   3.493  49.737  1.00  0.00     0.096 C 
HETATM    5  C8  UNL     1      24.242   4.642  50.642  1.00  0.00     0.014 C 
HETATM    6  C9  UNL     1      24.992   5.711  50.427  1.00  0.00     0.053 C 
HETATM    7  N2  UNL     1      23.358   4.678  51.732  1.00  0.00    -0.367 N 
HETATM    8  C10 UNL     1      22.584   3.582  52.203  1.00  0.00     0.124 C 
HETATM    9  C11 UNL     1      23.169   2.423  52.452  1.00  0.00     0.125 A 
HETATM   10  C12 UNL     1      24.600   2.232  52.256  1.00  0.00     0.231 A 
HETATM   11  N3  UNL     1      25.131   1.082  52.507  1.00  0.00    -0.212 NA
HETATM   12  C13 UNL     1      24.388  -0.049  52.978  1.00  0.00     0.258 A 
HETATM   13  N4  UNL     1      23.109   0.088  53.164  1.00  0.00    -0.164 NA
HETATM   14  N5  UNL     1      22.443   1.304  52.917  1.00  0.00    -0.251 N 
HETATM   15  O1  UNL     1      25.521   3.169  51.811  1.00  0.00    -0.174 OA
HETATM   16  O2  UNL     1      26.423   2.870  50.840  1.00  0.00    -0.224 OA
HETATM   17  H12 UNL     1      23.227   5.562  52.270  1.00  0.00     0.165 HD
ENDROOT
BRANCH  14  18
HETATM   18  C14 UNL     1      21.024   1.357  53.162  1.00  0.00     0.158 A 
HETATM   19  C15 UNL     1      20.478   0.192  53.870  1.00  0.00     0.005 A 
HETATM   20  C16 UNL     1      19.499  -0.361  53.132  1.00  0.00     0.017 A 
HETATM   21  C17 UNL     1      19.354   0.427  51.890  1.00  0.00     0.009 A 
HETATM   22 BR1  UNL     1      18.245   0.345  50.346  1.00  0.00    -0.051 Br
HETATM   23  C18 UNL     1      20.238   1.410  51.926  1.00  0.00     0.023 A 
ENDBRANCH  14  18
BRANCH   1  24
HETATM   24  N1  UNL     1      26.998   6.764  49.392  1.00  0.00    -0.387 N 
HETATM   25  H6  UNL     1      27.700   6.739  50.170  1.00  0.00     0.160 HD
BRANCH  24  26
HETATM   26  C3  UNL     1      27.014   7.850  48.429  1.00  0.00     0.146 C 
BRANCH  26  27
HETATM   27  C2  UNL     1      25.973   7.645  47.388  1.00  0.00    -0.018 C 
HETATM   28  C1  UNL     1      24.839   8.340  47.421  1.00  0.00     0.008 C 
ENDBRANCH  26  27
ENDBRANCH  24  26
ENDBRANCH   1  24
TORSDOF 4
ENDMDL
MODEL 5
REMARK VINA RESULT:      -7.2      4.616      8.161
REMARK  4 active torsions:
REMARK  status: ('A' for Active; 'I' for Inactive)
REMARK    1  A    between atoms: C2_2  and  C3_3 
REMARK    2  A    between atoms: C3_3  and  N1_4 
REMARK    3  A    between atoms: N1_4  and  C4_5 
REMARK    4  A    between atoms: N5_18  and  C14_19 
ROOT
HETATM    1  C4  UNL     1      19.268   2.006  49.916  1.00  0.00     0.028 C 
HETATM    2  C5  UNL     1      20.030   2.058  48.837  1.00  0.00     0.037 C 
HETATM    3  C6  UNL     1      21.498   1.848  48.949  1.00  0.00     0.191 C 
HETATM    4  C7  UNL     1      21.719   0.705  49.904  1.00  0.00     0.096 C 
HETATM    5  C8  UNL     1      21.071   1.029  51.182  1.00  0.00     0.014 C 
HETATM    6  C9  UNL     1      19.820   1.460  51.165  1.00  0.00     0.053 C 
HETATM    7  N2  UNL     1      21.700   0.911  52.431  1.00  0.00    -0.367 N 
HETATM    8  C10 UNL     1      23.073   0.606  52.638  1.00  0.00     0.124 C 
HETATM    9  C11 UNL     1      24.003   1.300  52.005  1.00  0.00     0.125 A 
HETATM   10  C12 UNL     1      23.660   2.381  51.090  1.00  0.00     0.231 A 
HETATM   11  N3  UNL     1      24.599   3.031  50.489  1.00  0.00    -0.212 NA
HETATM   12  C13 UNL     1      25.995   2.754  50.665  1.00  0.00     0.258 A 
HETATM   13  N4  UNL     1      26.335   1.796  51.474  1.00  0.00    -0.164 NA
HETATM   14  N5  UNL     1      25.380   1.033  52.174  1.00  0.00    -0.251 N 
HETATM   15  O1  UNL     1      22.390   2.832  50.759  1.00  0.00    -0.174 OA
HETATM   16  O2  UNL     1      22.030   3.048  49.467  1.00  0.00    -0.224 OA
HETATM   17  H12 UNL     1      21.152   1.051  53.308  1.00  0.00     0.165 HD
ENDROOT
BRANCH  14  18
HETATM   18  C14 UNL     1      25.859  -0.003  53.055  1.00  0.00     0.158 A 
HETATM   19  C15 UNL     1      25.996   0.402  54.460  1.00  0.00     0.005 A 
HETATM   20  C16 UNL     1      27.262   0.191  54.864  1.00  0.00     0.017 A 
HETATM   21  C17 UNL     1      28.023  -0.370  53.728  1.00  0.00     0.009 A 
HETATM   22 BR1  UNL     1      29.815  -0.939  53.438  1.00  0.00    -0.051 Br
HETATM   23  C18 UNL     1      27.200  -0.474  52.698  1.00  0.00     0.023 A 
ENDBRANCH  14  18
BRANCH   1  24
HETATM   24  N1  UNL     1      17.903   2.465  49.932  1.00  0.00    -0.387 N 
HETATM   25  H6  UNL     1      17.946   3.392  49.445  1.00  0.00     0.160 HD
BRANCH  24  26
HETATM   26  C3  UNL     1      16.637   1.960  50.430  1.00  0.00     0.146 C 
BRANCH  26  27
HETATM   27  C2  UNL     1      16.340   0.623  49.851  1.00  0.00    -0.018 C 
HETATM   28  C1  UNL     1      16.477  -0.477  50.586  1.00  0.00     0.008 C 
ENDBRANCH  26  27
ENDBRANCH  24  26
ENDBRANCH   1  24
TORSDOF 4
ENDMDL
MODEL 6
REMARK VINA RESULT:      -7.1      6.354      7.976
REMARK  4 active torsions:
REMARK  status: ('A' for Active; 'I' for Inactive)
REMARK    1  A    between atoms: C2_2  and  C3_3 
REMARK    2  A    between atoms: C3_3  and  N1_4 
REMARK    3  A    between atoms: N1_4  and  C4_5 
REMARK    4  A    between atoms: N5_18  and  C14_19 
ROOT
HETATM    1  C4  UNL     1      23.090  -0.077  53.510  1.00  0.00     0.028 C 
HETATM    2  C5  UNL     1      22.906   1.130  53.003  1.00  0.00     0.037 C 
HETATM    3  C6  UNL     1      21.555   1.549  52.545  1.00  0.00     0.191 C 
HETATM    4  C7  UNL     1      20.561   1.065  53.569  1.00  0.00     0.096 C 
HETATM    5  C8  UNL     1      20.709  -0.390  53.715  1.00  0.00     0.014 C 
HETATM    6  C9  UNL     1      21.923  -0.887  53.889  1.00  0.00     0.053 C 
HETATM    7  N2  UNL     1      19.636  -1.293  53.679  1.00  0.00    -0.367 N 
HETATM    8  C10 UNL     1      18.290  -0.964  53.360  1.00  0.00     0.124 C 
HETATM    9  C11 UNL     1      18.023  -0.285  52.257  1.00  0.00     0.125 A 
HETATM   10  C12 UNL     1      19.079   0.141  51.347  1.00  0.00     0.231 A 
HETATM   11  N3  UNL     1      18.776   0.806  50.284  1.00  0.00    -0.212 NA
HETATM   12  C13 UNL     1      17.434   1.163  49.926  1.00  0.00     0.258 A 
HETATM   13  N4  UNL     1      16.468   0.798  50.716  1.00  0.00    -0.164 NA
HETATM   14  N5  UNL     1      16.704   0.070  51.898  1.00  0.00    -0.251 N 
HETATM   15  O1  UNL     1      20.442  -0.083  51.477  1.00  0.00    -0.174 OA
HETATM   16  O2  UNL     1      21.345   0.918  51.301  1.00  0.00    -0.224 OA
HETATM   17  H12 UNL     1      19.793  -2.301  53.897  1.00  0.00     0.165 HD
ENDROOT
BRANCH  14  18
HETATM   18  C14 UNL     1      15.565  -0.296  52.702  1.00  0.00     0.158 A 
HETATM   19  C15 UNL     1      14.694  -1.317  52.106  1.00  0.00     0.005 A 
HETATM   20  C16 UNL     1      13.441  -0.837  52.016  1.00  0.00     0.017 A 
HETATM   21  C17 UNL     1      13.431   0.539  52.557  1.00  0.00     0.009 A 
HETATM   22 BR1  UNL     1      12.122   1.897  52.802  1.00  0.00    -0.051 Br
HETATM   23  C18 UNL     1      14.660   0.832  52.947  1.00  0.00     0.023 A 
ENDBRANCH  14  18
BRANCH   1  24
HETATM   24  N1  UNL     1      24.396  -0.649  53.713  1.00  0.00    -0.387 N 
HETATM   25  H6  UNL     1      24.306  -1.620  53.329  1.00  0.00     0.160 HD
BRANCH  24  26
HETATM   26  C3  UNL     1      25.656  -0.201  54.278  1.00  0.00     0.146 C 
BRANCH  26  27
HETATM   27  C2  UNL     1      26.766  -0.400  53.309  1.00  0.00    -0.018 C 
HETATM   28  C1  UNL     1      26.619  -0.055  52.033  1.00  0.00     0.008 C 
ENDBRANCH  26  27
ENDBRANCH  24  26
ENDBRANCH   1  24
TORSDOF 4
ENDMDL
MODEL 7
REMARK VINA RESULT:      -7.0      3.750      5.012
REMARK  4 active torsions:
REMARK  status: ('A' for Active; 'I' for Inactive)
REMARK    1  A    between atoms: C2_2  and  C3_3 
REMARK    2  A    between atoms: C3_3  and  N1_4 
REMARK    3  A    between atoms: N1_4  and  C4_5 
REMARK    4  A    between atoms: N5_18  and  C14_19 
ROOT
HETATM    1  C4  UNL     1      25.794   0.704  53.459  1.00  0.00     0.028 C 
HETATM    2  C5  UNL     1      25.822   1.989  53.149  1.00  0.00     0.037 C 
HETATM    3  C6  UNL     1      24.648   2.623  52.491  1.00  0.00     0.191 C 
HETATM    4  C7  UNL     1      23.411   2.096  53.170  1.00  0.00     0.096 C 
HETATM    5  C8  UNL     1      23.415   0.630  53.081  1.00  0.00     0.014 C 
HETATM    6  C9  UNL     1      24.515  -0.021  53.423  1.00  0.00     0.053 C 
HETATM    7  N2  UNL     1      22.317  -0.131  52.651  1.00  0.00    -0.367 N 
HETATM    8  C10 UNL     1      21.111   0.392  52.111  1.00  0.00     0.124 C 
HETATM    9  C11 UNL     1      21.159   1.262  51.117  1.00  0.00     0.125 A 
HETATM   10  C12 UNL     1      22.426   1.706  50.550  1.00  0.00     0.231 A 
HETATM   11  N3  UNL     1      22.428   2.561  49.583  1.00  0.00    -0.212 NA
HETATM   12  C13 UNL     1      21.237   3.117  49.012  1.00  0.00     0.258 A 
HETATM   13  N4  UNL     1      20.089   2.741  49.494  1.00  0.00    -0.164 NA
HETATM   14  N5  UNL     1      19.989   1.814  50.549  1.00  0.00    -0.251 N 
HETATM   15  O1  UNL     1      23.701   1.314  50.932  1.00  0.00    -0.174 OA
HETATM   16  O2  UNL     1      24.689   2.224  51.139  1.00  0.00    -0.224 OA
HETATM   17  H12 UNL     1      22.346  -1.172  52.714  1.00  0.00     0.165 HD
ENDROOT
BRANCH  14  18
HETATM   18  C14 UNL     1      18.670   1.455  51.007  1.00  0.00     0.158 A 
HETATM   19  C15 UNL     1      17.900   0.625  50.072  1.00  0.00     0.005 A 
HETATM   20  C16 UNL     1      16.738   1.238  49.783  1.00  0.00     0.017 A 
HETATM   21  C17 UNL     1      16.691   2.515  50.527  1.00  0.00     0.009 A 
HETATM   22 BR1  UNL     1      15.454   3.951  50.691  1.00  0.00    -0.051 Br
HETATM   23  C18 UNL     1      17.810   2.622  51.224  1.00  0.00     0.023 A 
ENDBRANCH  14  18
BRANCH   1  24
HETATM   24  N1  UNL     1      26.972  -0.035  53.836  1.00  0.00    -0.387 N 
HETATM   25  H6  UNL     1      26.860  -0.952  53.342  1.00  0.00     0.160 HD
BRANCH  24  26
HETATM   26  C3  UNL     1      28.138   0.211  54.664  1.00  0.00     0.146 C 
BRANCH  26  27
HETATM   27  C2  UNL     1      29.382   0.151  53.852  1.00  0.00    -0.018 C 
HETATM   28  C1  UNL     1      30.000  -1.009  53.647  1.00  0.00     0.008 C 
ENDBRANCH  26  27
ENDBRANCH  24  26
ENDBRANCH   1  24
TORSDOF 4
ENDMDL
MODEL 8
REMARK VINA RESULT:      -7.0      3.740      7.394
REMARK  4 active torsions:
REMARK  status: ('A' for Active; 'I' for Inactive)
REMARK    1  A    between atoms: C2_2  and  C3_3 
REMARK    2  A    between atoms: C3_3  and  N1_4 
REMARK    3  A    between atoms: N1_4  and  C4_5 
REMARK    4  A    between atoms: N5_18  and  C14_19 
ROOT
HETATM    1  C4  UNL     1      25.423   7.257  48.323  1.00  0.00     0.028 C 
HETATM    2  C5  UNL     1      24.107   7.293  48.199  1.00  0.00     0.037 C 
HETATM    3  C6  UNL     1      23.270   6.229  48.814  1.00  0.00     0.191 C 
HETATM    4  C7  UNL     1      23.833   5.945  50.182  1.00  0.00     0.096 C 
HETATM    5  C8  UNL     1      25.248   5.574  50.040  1.00  0.00     0.014 C 
HETATM    6  C9  UNL     1      26.032   6.343  49.302  1.00  0.00     0.053 C 
HETATM    7  N2  UNL     1      25.825   4.445  50.641  1.00  0.00    -0.367 N 
HETATM    8  C10 UNL     1      25.118   3.432  51.344  1.00  0.00     0.124 C 
HETATM    9  C11 UNL     1      24.070   2.852  50.783  1.00  0.00     0.125 A 
HETATM   10  C12 UNL     1      23.612   3.225  49.451  1.00  0.00     0.231 A 
HETATM   11  N3  UNL     1      22.581   2.637  48.943  1.00  0.00    -0.212 NA
HETATM   12  C13 UNL     1      21.837   1.615  49.618  1.00  0.00     0.258 A 
HETATM   13  N4  UNL     1      22.219   1.259  50.808  1.00  0.00    -0.164 NA
HETATM   14  N5  UNL     1      23.331   1.844  51.442  1.00  0.00    -0.251 N 
HETATM   15  O1  UNL     1      24.164   4.179  48.608  1.00  0.00    -0.174 OA
HETATM   16  O2  UNL     1      23.389   5.099  47.977  1.00  0.00    -0.224 OA
HETATM   17  H12 UNL     1      26.856   4.296  50.592  1.00  0.00     0.165 HD
ENDROOT
BRANCH  14  18
HETATM   18  C14 UNL     1      23.680   1.374  52.760  1.00  0.00     0.158 A 
HETATM   19  C15 UNL     1      24.801   0.426  52.797  1.00  0.00     0.005 A 
HETATM   20  C16 UNL     1      24.404  -0.713  53.391  1.00  0.00     0.017 A 
HETATM   21  C17 UNL     1      22.985  -0.563  53.778  1.00  0.00     0.009 A 
HETATM   22 BR1  UNL     1      21.685  -1.653  54.638  1.00  0.00    -0.051 Br
HETATM   23  C18 UNL     1      22.587   0.643  53.407  1.00  0.00     0.023 A 
ENDBRANCH  14  18
BRANCH   1  24
HETATM   24  N1  UNL     1      26.306   8.080  47.537  1.00  0.00    -0.387 N 
HETATM   25  H6  UNL     1      25.943   7.972  46.560  1.00  0.00     0.160 HD
BRANCH  24  26
HETATM   26  C3  UNL     1      27.456   8.925  47.800  1.00  0.00     0.146 C 
BRANCH  26  27
HETATM   27  C2  UNL     1      28.666   8.391  47.121  1.00  0.00    -0.018 C 
HETATM   28  C1  UNL     1      28.992   7.106  47.231  1.00  0.00     0.008 C 
ENDBRANCH  26  27
ENDBRANCH  24  26
ENDBRANCH   1  24
TORSDOF 4
ENDMDL
MODEL 9
REMARK VINA RESULT:      -7.0      1.730      2.227
REMARK  4 active torsions:
REMARK  status: ('A' for Active; 'I' for Inactive)
REMARK    1  A    between atoms: C2_2  and  C3_3 
REMARK    2  A    between atoms: C3_3  and  N1_4 
REMARK    3  A    between atoms: N1_4  and  C4_5 
REMARK    4  A    between atoms: N5_18  and  C14_19 
ROOT
HETATM    1  C4  UNL     1      23.879   0.845  52.417  1.00  0.00     0.028 C 
HETATM    2  C5  UNL     1      22.656   0.963  51.928  1.00  0.00     0.037 C 
HETATM    3  C6  UNL     1      22.252   2.209  51.223  1.00  0.00     0.191 C 
HETATM    4  C7  UNL     1      23.400   2.620  50.338  1.00  0.00     0.096 C 
HETATM    5  C8  UNL     1      24.601   2.776  51.170  1.00  0.00     0.014 C 
HETATM    6  C9  UNL     1      24.915   1.808  52.016  1.00  0.00     0.053 C 
HETATM    7  N2  UNL     1      25.443   3.898  51.125  1.00  0.00    -0.367 N 
HETATM    8  C10 UNL     1      25.193   5.090  50.392  1.00  0.00     0.124 C 
HETATM    9  C11 UNL     1      24.033   5.710  50.523  1.00  0.00     0.125 A 
HETATM   10  C12 UNL     1      22.990   5.204  51.407  1.00  0.00     0.231 A 
HETATM   11  N3  UNL     1      21.870   5.837  51.501  1.00  0.00    -0.212 NA
HETATM   12  C13 UNL     1      21.574   7.039  50.778  1.00  0.00     0.258 A 
HETATM   13  N4  UNL     1      22.482   7.518  49.981  1.00  0.00    -0.164 NA
HETATM   14  N5  UNL     1      23.733   6.895  49.813  1.00  0.00    -0.251 N 
HETATM   15  O1  UNL     1      23.041   4.069  52.203  1.00  0.00    -0.174 OA
HETATM   16  O2  UNL     1      22.020   3.173  52.226  1.00  0.00    -0.224 OA
HETATM   17  H12 UNL     1      26.339   3.901  51.660  1.00  0.00     0.165 HD
ENDROOT
BRANCH  14  18
HETATM   18  C14 UNL     1      24.677   7.509  48.913  1.00  0.00     0.158 A 
HETATM   19  C15 UNL     1      24.801   8.966  49.053  1.00  0.00     0.005 A 
HETATM   20  C16 UNL     1      24.542   9.552  47.871  1.00  0.00     0.017 A 
HETATM   21  C17 UNL     1      24.232   8.493  46.886  1.00  0.00     0.009 A 
HETATM   22 BR1  UNL     1      23.769   8.440  45.042  1.00  0.00    -0.051 Br
HETATM   23  C18 UNL     1      24.315   7.326  47.504  1.00  0.00     0.023 A 
ENDBRANCH  14  18
BRANCH   1  24
HETATM   24  N1  UNL     1      24.254  -0.196  53.339  1.00  0.00    -0.387 N 
HETATM   25  H6  UNL     1      23.364  -0.729  53.491  1.00  0.00     0.160 HD
BRANCH  24  26
HETATM   26  C3  UNL     1      25.472  -0.603  54.015  1.00  0.00     0.146 C 
BRANCH  26  27
HETATM   27  C2  UNL     1      26.430  -1.210  53.054  1.00  0.00    -0.018 C 
HETATM   28  C1  UNL     1      27.650  -0.700  52.902  1.00  0.00     0.008 C 
ENDBRANCH  26  27
ENDBRANCH  24  26
ENDBRANCH   1  24
TORSDOF 4
ENDMDL
