MODEL 1
REMARK VINA RESULT:      -7.7      0.000      0.000
REMARK  5 active torsions:
REMARK  status: ('A' for Active; 'I' for Inactive)
REMARK    1  A    between atoms: C1_2  and  C2_3 
REMARK    2  A    between atoms: C2_3  and  C3_4 
REMARK    3  A    between atoms: C2_3  and  N3_12 
REMARK    4  A    between atoms: N3_12  and  S1_13 
REMARK    5  A    between atoms: S1_13  and  C8_16 
ROOT
HETATM    1  N3  UNL     1      26.013   1.077  53.949  1.00  0.00    -0.201 NA
HETATM    2  H5  UNL     1      26.256   1.656  54.782  1.00  0.00     0.141 HD
ENDROOT
BRANCH   1   3
HETATM    3  C2  UNL     1      26.993   1.084  52.909  1.00  0.00     0.157 C 
BRANCH   3   4
HETATM    4  C1  UNL     1      28.107   2.008  53.271  1.00  0.00     0.255 C 
HETATM    5  O1  UNL     1      28.225   2.714  54.254  1.00  0.00    -0.305 OA
ENDBRANCH   3   4
BRANCH   3   6
HETATM    6  C3  UNL     1      26.447   1.544  51.605  1.00  0.00     0.032 C 
HETATM    7  C4  UNL     1      25.423   2.382  51.571  1.00  0.00     0.060 C 
HETATM    8  C5  UNL     1      24.830   2.879  50.314  1.00  0.00     0.075 C 
HETATM    9  N2  UNL     1      24.842   2.847  52.783  1.00  0.00    -0.226 NA
HETATM   10  C6  UNL     1      23.811   3.712  50.457  1.00  0.00     0.130 C 
HETATM   11 CL1  UNL     1      23.073   4.330  49.007  1.00  0.00    -0.062 Cl
HETATM   12  N1  UNL     1      23.346   4.082  51.751  1.00  0.00    -0.213 NA
HETATM   13  C7  UNL     1      24.031   3.827  52.807  1.00  0.00     0.200 C 
ENDBRANCH   3   6
ENDBRANCH   1   3
BRANCH   1  14
HETATM   14  S1  UNL     1      25.413  -0.479  54.311  1.00  0.00     0.242 S 
HETATM   15  O2  UNL     1      25.674  -0.825  55.744  1.00  0.00    -0.206 OA
HETATM   16  O3  UNL     1      26.116  -1.519  53.469  1.00  0.00    -0.206 OA
BRANCH  14  17
HETATM   17  C8  UNL     1      23.722  -0.546  53.929  1.00  0.00     0.074 A 
HETATM   18  C9  UNL     1      23.094  -0.105  52.786  1.00  0.00     0.026 A 
HETATM   19  C10 UNL     1      21.730  -0.234  52.643  1.00  0.00     0.025 A 
HETATM   20  C11 UNL     1      20.982  -0.809  53.650  1.00  0.00     0.034 A 
HETATM   21 CL2  UNL     1      19.255  -0.937  53.390  1.00  0.00    -0.084 Cl
HETATM   22  C12 UNL     1      21.568  -1.269  54.817  1.00  0.00     0.025 A 
HETATM   23  C13 UNL     1      22.951  -1.128  54.941  1.00  0.00     0.026 A 
ENDBRANCH  14  17
ENDBRANCH   1  14
TORSDOF 5
ENDMDL
MODEL 2
REMARK VINA RESULT:      -7.5      3.616      6.181
REMARK  5 active torsions:
REMARK  status: ('A' for Active; 'I' for Inactive)
REMARK    1  A    between atoms: C1_2  and  C2_3 
REMARK    2  A    between atoms: C2_3  and  C3_4 
REMARK    3  A    between atoms: C2_3  and  N3_12 
REMARK    4  A    between atoms: N3_12  and  S1_13 
REMARK    5  A    between atoms: S1_13  and  C8_16 
ROOT
HETATM    1  N3  UNL     1      22.833  -0.347  52.894  1.00  0.00    -0.201 NA
HETATM    2  H5  UNL     1      23.288  -1.270  52.722  1.00  0.00     0.141 HD
ENDROOT
BRANCH   1   3
HETATM    3  C2  UNL     1      22.100  -0.259  54.117  1.00  0.00     0.157 C 
BRANCH   3   4
HETATM    4  C1  UNL     1      22.860  -0.930  55.212  1.00  0.00     0.255 C 
HETATM    5  O1  UNL     1      22.688  -2.033  55.695  1.00  0.00    -0.305 OA
ENDBRANCH   3   4
BRANCH   3   6
HETATM    6  C3  UNL     1      20.768  -0.916  54.040  1.00  0.00     0.032 C 
HETATM    7  C4  UNL     1      19.848  -0.457  53.208  1.00  0.00     0.060 C 
HETATM    8  C5  UNL     1      18.506  -1.058  53.079  1.00  0.00     0.075 C 
HETATM    9  N2  UNL     1      20.129   0.667  52.382  1.00  0.00    -0.226 NA
HETATM   10  C6  UNL     1      17.704  -0.477  52.199  1.00  0.00     0.130 C 
HETATM   11 CL1  UNL     1      16.110  -1.146  52.005  1.00  0.00    -0.062 Cl
HETATM   12  N1  UNL     1      18.142   0.650  51.446  1.00  0.00    -0.213 NA
HETATM   13  C7  UNL     1      19.379   0.990  51.407  1.00  0.00     0.200 C 
ENDBRANCH   3   6
ENDBRANCH   1   3
BRANCH   1  14
HETATM   14  S1  UNL     1      23.830   1.007  52.598  1.00  0.00     0.242 S 
HETATM   15  O2  UNL     1      23.319   2.209  53.331  1.00  0.00    -0.206 OA
HETATM   16  O3  UNL     1      23.825   1.349  51.126  1.00  0.00    -0.206 OA
BRANCH  14  17
HETATM   17  C8  UNL     1      25.463   0.626  53.045  1.00  0.00     0.074 A 
HETATM   18  C9  UNL     1      26.333   1.383  53.798  1.00  0.00     0.026 A 
HETATM   19  C10 UNL     1      27.607   0.929  54.061  1.00  0.00     0.025 A 
HETATM   20  C11 UNL     1      28.020  -0.292  53.569  1.00  0.00     0.034 A 
HETATM   21 CL2  UNL     1      29.654  -0.796  53.949  1.00  0.00    -0.084 Cl
HETATM   22  C12 UNL     1      27.181  -1.089  52.808  1.00  0.00     0.025 A 
HETATM   23  C13 UNL     1      25.896  -0.611  52.554  1.00  0.00     0.026 A 
ENDBRANCH  14  17
ENDBRANCH   1  14
TORSDOF 5
ENDMDL
MODEL 3
REMARK VINA RESULT:      -7.4      3.517      5.961
REMARK  5 active torsions:
REMARK  status: ('A' for Active; 'I' for Inactive)
REMARK    1  A    between atoms: C1_2  and  C2_3 
REMARK    2  A    between atoms: C2_3  and  C3_4 
REMARK    3  A    between atoms: C2_3  and  N3_12 
REMARK    4  A    between atoms: N3_12  and  S1_13 
REMARK    5  A    between atoms: S1_13  and  C8_16 
ROOT
HETATM    1  N3  UNL     1      22.134   0.870  53.496  1.00  0.00    -0.201 NA
HETATM    2  H5  UNL     1      21.548   1.081  54.332  1.00  0.00     0.141 HD
ENDROOT
BRANCH   1   3
HETATM    3  C2  UNL     1      22.636  -0.466  53.439  1.00  0.00     0.157 C 
BRANCH   3   4
HETATM    4  C1  UNL     1      21.648  -1.404  54.048  1.00  0.00     0.255 C 
HETATM    5  O1  UNL     1      21.698  -1.974  55.121  1.00  0.00    -0.305 OA
ENDBRANCH   3   4
BRANCH   3   6
HETATM    6  C3  UNL     1      23.915  -0.635  54.178  1.00  0.00     0.032 C 
HETATM    7  C4  UNL     1      25.044  -0.175  53.666  1.00  0.00     0.060 C 
HETATM    8  C5  UNL     1      26.350  -0.307  54.343  1.00  0.00     0.075 C 
HETATM    9  N2  UNL     1      25.040   0.484  52.405  1.00  0.00    -0.226 NA
HETATM   10  C6  UNL     1      27.382   0.208  53.693  1.00  0.00     0.130 C 
HETATM   11 CL1  UNL     1      28.946   0.082  54.446  1.00  0.00    -0.062 Cl
HETATM   12  N1  UNL     1      27.208   0.840  52.429  1.00  0.00    -0.213 NA
HETATM   13  C7  UNL     1      26.041   1.149  51.990  1.00  0.00     0.200 C 
ENDBRANCH   3   6
ENDBRANCH   1   3
BRANCH   1  14
HETATM   14  S1  UNL     1      21.491   1.421  52.014  1.00  0.00     0.242 S 
HETATM   15  O2  UNL     1      20.130   2.013  52.218  1.00  0.00    -0.206 OA
HETATM   16  O3  UNL     1      21.331   0.266  51.051  1.00  0.00    -0.206 OA
BRANCH  14  17
HETATM   17  C8  UNL     1      22.588   2.557  51.298  1.00  0.00     0.074 A 
HETATM   18  C9  UNL     1      23.188   3.645  51.893  1.00  0.00     0.026 A 
HETATM   19  C10 UNL     1      24.041   4.453  51.173  1.00  0.00     0.025 A 
HETATM   20  C11 UNL     1      24.300   4.176  49.847  1.00  0.00     0.034 A 
HETATM   21 CL2  UNL     1      25.395   5.252  49.005  1.00  0.00    -0.084 Cl
HETATM   22  C12 UNL     1      23.722   3.094  49.206  1.00  0.00     0.025 A 
HETATM   23  C13 UNL     1      22.861   2.288  49.953  1.00  0.00     0.026 A 
ENDBRANCH  14  17
ENDBRANCH   1  14
TORSDOF 5
ENDMDL
MODEL 4
REMARK VINA RESULT:      -7.4      3.543      6.877
REMARK  5 active torsions:
REMARK  status: ('A' for Active; 'I' for Inactive)
REMARK    1  A    between atoms: C1_2  and  C2_3 
REMARK    2  A    between atoms: C2_3  and  C3_4 
REMARK    3  A    between atoms: C2_3  and  N3_12 
REMARK    4  A    between atoms: N3_12  and  S1_13 
REMARK    5  A    between atoms: S1_13  and  C8_16 
ROOT
HETATM    1  N3  UNL     1      24.826   2.262  50.815  1.00  0.00    -0.201 NA
HETATM    2  H5  UNL     1      25.367   1.833  50.033  1.00  0.00     0.141 HD
ENDROOT
BRANCH   1   3
HETATM    3  C2  UNL     1      25.307   1.945  52.122  1.00  0.00     0.157 C 
BRANCH   3   4
HETATM    4  C1  UNL     1      26.784   1.739  52.081  1.00  0.00     0.255 C 
HETATM    5  O1  UNL     1      27.673   2.562  52.186  1.00  0.00    -0.305 OA
ENDBRANCH   3   4
BRANCH   3   6
HETATM    6  C3  UNL     1      24.705   0.701  52.673  1.00  0.00     0.032 C 
HETATM    7  C4  UNL     1      23.409   0.650  52.933  1.00  0.00     0.060 C 
HETATM    8  C5  UNL     1      22.745  -0.550  53.481  1.00  0.00     0.075 C 
HETATM    9  N2  UNL     1      22.586   1.783  52.686  1.00  0.00    -0.226 NA
HETATM   10  C6  UNL     1      21.441  -0.435  53.684  1.00  0.00     0.130 C 
HETATM   11 CL1  UNL     1      20.606  -1.819  54.327  1.00  0.00    -0.062 Cl
HETATM   12  N1  UNL     1      20.760   0.779  53.382  1.00  0.00    -0.213 NA
HETATM   13  C7  UNL     1      21.316   1.705  52.688  1.00  0.00     0.200 C 
ENDBRANCH   3   6
ENDBRANCH   1   3
BRANCH   1  14
HETATM   14  S1  UNL     1      24.458   3.915  50.606  1.00  0.00     0.242 S 
HETATM   15  O2  UNL     1      24.222   4.575  51.930  1.00  0.00    -0.206 OA
HETATM   16  O3  UNL     1      23.189   4.072  49.800  1.00  0.00    -0.206 OA
BRANCH  14  17
HETATM   17  C8  UNL     1      25.741   4.682  49.725  1.00  0.00     0.074 A 
HETATM   18  C9  UNL     1      26.898   4.111  49.244  1.00  0.00     0.026 A 
HETATM   19  C10 UNL     1      27.821   4.870  48.560  1.00  0.00     0.025 A 
HETATM   20  C11 UNL     1      27.591   6.214  48.351  1.00  0.00     0.034 A 
HETATM   21 CL2  UNL     1      28.813   7.108  47.471  1.00  0.00    -0.084 Cl
HETATM   22  C12 UNL     1      26.442   6.834  48.814  1.00  0.00     0.025 A 
HETATM   23  C13 UNL     1      25.520   6.046  49.505  1.00  0.00     0.026 A 
ENDBRANCH  14  17
ENDBRANCH   1  14
TORSDOF 5
ENDMDL
MODEL 5
REMARK VINA RESULT:      -7.3      4.688      7.786
REMARK  5 active torsions:
REMARK  status: ('A' for Active; 'I' for Inactive)
REMARK    1  A    between atoms: C1_2  and  C2_3 
REMARK    2  A    between atoms: C2_3  and  C3_4 
REMARK    3  A    between atoms: C2_3  and  N3_12 
REMARK    4  A    between atoms: N3_12  and  S1_13 
REMARK    5  A    between atoms: S1_13  and  C8_16 
ROOT
HETATM    1  N3  UNL     1      24.349   5.023  51.286  1.00  0.00    -0.201 NA
HETATM    2  H5  UNL     1      24.244   5.951  51.750  1.00  0.00     0.141 HD
ENDROOT
BRANCH   1   3
HETATM    3  C2  UNL     1      23.536   3.983  51.834  1.00  0.00     0.157 C 
BRANCH   3   4
HETATM    4  C1  UNL     1      22.225   4.545  52.273  1.00  0.00     0.255 C 
HETATM    5  O1  UNL     1      21.147   3.988  52.357  1.00  0.00    -0.305 OA
ENDBRANCH   3   4
BRANCH   3   6
HETATM    6  C3  UNL     1      24.154   3.331  53.019  1.00  0.00     0.032 C 
HETATM    7  C4  UNL     1      25.162   2.490  52.863  1.00  0.00     0.060 C 
HETATM    8  C5  UNL     1      25.823   1.806  53.993  1.00  0.00     0.075 C 
HETATM    9  N2  UNL     1      25.661   2.206  51.562  1.00  0.00    -0.226 NA
HETATM   10  C6  UNL     1      26.818   0.995  53.665  1.00  0.00     0.130 C 
HETATM   11 CL1  UNL     1      27.633   0.164  54.957  1.00  0.00    -0.062 Cl
HETATM   12  N1  UNL     1      27.196   0.820  52.303  1.00  0.00    -0.213 NA
HETATM   13  C7  UNL     1      26.768   1.605  51.382  1.00  0.00     0.200 C 
ENDBRANCH   3   6
ENDBRANCH   1   3
BRANCH   1  14
HETATM   14  S1  UNL     1      24.336   5.072  49.580  1.00  0.00     0.242 S 
HETATM   15  O2  UNL     1      23.333   6.070  49.089  1.00  0.00    -0.206 OA
HETATM   16  O3  UNL     1      23.932   3.726  49.021  1.00  0.00    -0.206 OA
BRANCH  14  17
HETATM   17  C8  UNL     1      25.933   5.425  49.003  1.00  0.00     0.074 A 
HETATM   18  C9  UNL     1      27.034   4.598  48.999  1.00  0.00     0.026 A 
HETATM   19  C10 UNL     1      28.239   5.041  48.499  1.00  0.00     0.025 A 
HETATM   20  C11 UNL     1      28.350   6.321  47.998  1.00  0.00     0.034 A 
HETATM   21 CL2  UNL     1      29.916   6.806  47.382  1.00  0.00    -0.084 Cl
HETATM   22  C12 UNL     1      27.272   7.189  47.980  1.00  0.00     0.025 A 
HETATM   23  C13 UNL     1      26.060   6.721  48.490  1.00  0.00     0.026 A 
ENDBRANCH  14  17
ENDBRANCH   1  14
TORSDOF 5
ENDMDL
MODEL 6
REMARK VINA RESULT:      -7.3      3.978      5.366
REMARK  5 active torsions:
REMARK  status: ('A' for Active; 'I' for Inactive)
REMARK    1  A    between atoms: C1_2  and  C2_3 
REMARK    2  A    between atoms: C2_3  and  C3_4 
REMARK    3  A    between atoms: C2_3  and  N3_12 
REMARK    4  A    between atoms: N3_12  and  S1_13 
REMARK    5  A    between atoms: S1_13  and  C8_16 
ROOT
HETATM    1  N3  UNL     1      23.918   1.793  50.976  1.00  0.00    -0.201 NA
HETATM    2  H5  UNL     1      23.113   1.172  50.741  1.00  0.00     0.141 HD
ENDROOT
BRANCH   1   3
HETATM    3  C2  UNL     1      23.909   3.060  50.315  1.00  0.00     0.157 C 
BRANCH   3   4
HETATM    4  C1  UNL     1      22.802   3.102  49.317  1.00  0.00     0.255 C 
HETATM    5  O1  UNL     1      22.865   3.276  48.114  1.00  0.00    -0.305 OA
ENDBRANCH   3   4
BRANCH   3   6
HETATM    6  C3  UNL     1      25.173   3.336  49.582  1.00  0.00     0.032 C 
HETATM    7  C4  UNL     1      25.637   4.572  49.501  1.00  0.00     0.060 C 
HETATM    8  C5  UNL     1      26.883   4.920  48.789  1.00  0.00     0.075 C 
HETATM    9  N2  UNL     1      24.930   5.642  50.116  1.00  0.00    -0.226 NA
HETATM   10  C6  UNL     1      27.207   6.204  48.803  1.00  0.00     0.130 C 
HETATM   11 CL1  UNL     1      28.667   6.671  47.980  1.00  0.00    -0.062 Cl
HETATM   12  N1  UNL     1      26.384   7.157  49.469  1.00  0.00    -0.213 NA
HETATM   13  C7  UNL     1      25.452   6.791  50.273  1.00  0.00     0.200 C 
ENDBRANCH   3   6
ENDBRANCH   1   3
BRANCH   1  14
HETATM   14  S1  UNL     1      24.278   1.895  52.641  1.00  0.00     0.242 S 
HETATM   15  O2  UNL     1      23.265   1.144  53.448  1.00  0.00    -0.206 OA
HETATM   16  O3  UNL     1      24.230   3.335  53.100  1.00  0.00    -0.206 OA
BRANCH  14  17
HETATM   17  C8  UNL     1      25.887   1.307  52.918  1.00  0.00     0.074 A 
HETATM   18  C9  UNL     1      27.014   2.035  53.226  1.00  0.00     0.026 A 
HETATM   19  C10 UNL     1      28.224   1.405  53.415  1.00  0.00     0.025 A 
HETATM   20  C11 UNL     1      28.314   0.034  53.295  1.00  0.00     0.034 A 
HETATM   21 CL2  UNL     1      29.889  -0.689  53.550  1.00  0.00    -0.084 Cl
HETATM   22  C12 UNL     1      27.209  -0.742  52.987  1.00  0.00     0.025 A 
HETATM   23  C13 UNL     1      25.993  -0.084  52.801  1.00  0.00     0.026 A 
ENDBRANCH  14  17
ENDBRANCH   1  14
TORSDOF 5
ENDMDL
MODEL 7
REMARK VINA RESULT:      -7.3      3.485      4.543
REMARK  5 active torsions:
REMARK  status: ('A' for Active; 'I' for Inactive)
REMARK    1  A    between atoms: C1_2  and  C2_3 
REMARK    2  A    between atoms: C2_3  and  C3_4 
REMARK    3  A    between atoms: C2_3  and  N3_12 
REMARK    4  A    between atoms: N3_12  and  S1_13 
REMARK    5  A    between atoms: S1_13  and  C8_16 
ROOT
HETATM    1  N3  UNL     1      24.208   2.784  50.474  1.00  0.00    -0.201 NA
HETATM    2  H5  UNL     1      23.976   2.780  49.457  1.00  0.00     0.141 HD
ENDROOT
BRANCH   1   3
HETATM    3  C2  UNL     1      25.484   3.340  50.794  1.00  0.00     0.157 C 
BRANCH   3   4
HETATM    4  C1  UNL     1      25.923   4.261  49.706  1.00  0.00     0.255 C 
HETATM    5  O1  UNL     1      27.004   4.327  49.151  1.00  0.00    -0.305 OA
ENDBRANCH   3   4
BRANCH   3   6
HETATM    6  C3  UNL     1      26.542   2.306  50.948  1.00  0.00     0.032 C 
HETATM    7  C4  UNL     1      26.813   1.805  52.142  1.00  0.00     0.060 C 
HETATM    8  C5  UNL     1      27.849   0.777  52.368  1.00  0.00     0.075 C 
HETATM    9  N2  UNL     1      26.093   2.252  53.284  1.00  0.00    -0.226 NA
HETATM   10  C6  UNL     1      27.994   0.383  53.624  1.00  0.00     0.130 C 
HETATM   11 CL1  UNL     1      29.200  -0.828  53.949  1.00  0.00    -0.062 Cl
HETATM   12  N1  UNL     1      27.187   0.934  54.660  1.00  0.00    -0.213 NA
HETATM   13  C7  UNL     1      26.144   1.636  54.395  1.00  0.00     0.200 C 
ENDBRANCH   3   6
ENDBRANCH   1   3
BRANCH   1  14
HETATM   14  S1  UNL     1      22.951   3.332  51.491  1.00  0.00     0.242 S 
HETATM   15  O2  UNL     1      21.948   4.123  50.710  1.00  0.00    -0.206 OA
HETATM   16  O3  UNL     1      23.504   4.248  52.559  1.00  0.00    -0.206 OA
BRANCH  14  17
HETATM   17  C8  UNL     1      22.222   1.973  52.286  1.00  0.00     0.074 A 
HETATM   18  C9  UNL     1      20.929   1.854  52.745  1.00  0.00     0.026 A 
HETATM   19  C10 UNL     1      20.510   0.695  53.360  1.00  0.00     0.025 A 
HETATM   20  C11 UNL     1      21.386  -0.357  53.521  1.00  0.00     0.034 A 
HETATM   21 CL2  UNL     1      20.774  -1.794  54.313  1.00  0.00    -0.084 Cl
HETATM   22  C12 UNL     1      22.695  -0.286  53.076  1.00  0.00     0.025 A 
HETATM   23  C13 UNL     1      23.100   0.897  52.455  1.00  0.00     0.026 A 
ENDBRANCH  14  17
ENDBRANCH   1  14
TORSDOF 5
ENDMDL
MODEL 8
REMARK VINA RESULT:      -7.2      3.684      6.654
REMARK  5 active torsions:
REMARK  status: ('A' for Active; 'I' for Inactive)
REMARK    1  A    between atoms: C1_2  and  C2_3 
REMARK    2  A    between atoms: C2_3  and  C3_4 
REMARK    3  A    between atoms: C2_3  and  N3_12 
REMARK    4  A    between atoms: N3_12  and  S1_13 
REMARK    5  A    between atoms: S1_13  and  C8_16 
ROOT
HETATM    1  N3  UNL     1      24.048   2.307  52.898  1.00  0.00    -0.201 NA
HETATM    2  H5  UNL     1      23.781   2.436  53.899  1.00  0.00     0.141 HD
ENDROOT
BRANCH   1   3
HETATM    3  C2  UNL     1      23.871   0.981  52.397  1.00  0.00     0.157 C 
BRANCH   3   4
HETATM    4  C1  UNL     1      23.226   0.129  53.439  1.00  0.00     0.255 C 
HETATM    5  O1  UNL     1      22.288  -0.637  53.324  1.00  0.00    -0.305 OA
ENDBRANCH   3   4
BRANCH   3   6
HETATM    6  C3  UNL     1      25.154   0.328  52.027  1.00  0.00     0.032 C 
HETATM    7  C4  UNL     1      26.092   0.140  52.941  1.00  0.00     0.060 C 
HETATM    8  C5  UNL     1      27.388  -0.501  52.645  1.00  0.00     0.075 C 
HETATM    9  N2  UNL     1      25.876   0.561  54.282  1.00  0.00    -0.226 NA
HETATM   10  C6  UNL     1      28.216  -0.613  53.673  1.00  0.00     0.130 C 
HETATM   11 CL1  UNL     1      29.759  -1.362  53.382  1.00  0.00    -0.062 Cl
HETATM   12  N1  UNL     1      27.845  -0.136  54.963  1.00  0.00    -0.213 NA
HETATM   13  C7  UNL     1      26.633   0.189  55.234  1.00  0.00     0.200 C 
ENDBRANCH   3   6
ENDBRANCH   1   3
BRANCH   1  14
HETATM   14  S1  UNL     1      23.471   3.518  51.843  1.00  0.00     0.242 S 
HETATM   15  O2  UNL     1      22.889   4.660  52.618  1.00  0.00    -0.206 OA
HETATM   16  O3  UNL     1      22.368   2.967  50.968  1.00  0.00    -0.206 OA
BRANCH  14  17
HETATM   17  C8  UNL     1      24.760   4.036  50.803  1.00  0.00     0.074 A 
HETATM   18  C9  UNL     1      25.785   3.277  50.283  1.00  0.00     0.026 A 
HETATM   19  C10 UNL     1      26.735   3.852  49.467  1.00  0.00     0.025 A 
HETATM   20  C11 UNL     1      26.666   5.196  49.167  1.00  0.00     0.034 A 
HETATM   21 CL2  UNL     1      27.912   5.848  48.123  1.00  0.00    -0.084 Cl
HETATM   22  C12 UNL     1      25.654   5.999  49.666  1.00  0.00     0.025 A 
HETATM   23  C13 UNL     1      24.702   5.398  50.489  1.00  0.00     0.026 A 
ENDBRANCH  14  17
ENDBRANCH   1  14
TORSDOF 5
ENDMDL
MODEL 9
REMARK VINA RESULT:      -7.1      1.975      5.510
REMARK  5 active torsions:
REMARK  status: ('A' for Active; 'I' for Inactive)
REMARK    1  A    between atoms: C1_2  and  C2_3 
REMARK    2  A    between atoms: C2_3  and  C3_4 
REMARK    3  A    between atoms: C2_3  and  N3_12 
REMARK    4  A    between atoms: N3_12  and  S1_13 
REMARK    5  A    between atoms: S1_13  and  C8_16 
ROOT
HETATM    1  N3  UNL     1      25.245   0.511  52.472  1.00  0.00    -0.201 NA
HETATM    2  H5  UNL     1      25.635  -0.252  51.877  1.00  0.00     0.141 HD
ENDROOT
BRANCH   1   3
HETATM    3  C2  UNL     1      24.743   0.085  53.740  1.00  0.00     0.157 C 
BRANCH   3   4
HETATM    4  C1  UNL     1      25.731  -0.820  54.396  1.00  0.00     0.255 C 
HETATM    5  O1  UNL     1      26.749  -0.532  54.996  1.00  0.00    -0.305 OA
ENDBRANCH   3   4
BRANCH   3   6
HETATM    6  C3  UNL     1      23.464  -0.665  53.632  1.00  0.00     0.032 C 
HETATM    7  C4  UNL     1      22.345  -0.029  53.323  1.00  0.00     0.060 C 
HETATM    8  C5  UNL     1      21.040  -0.709  53.199  1.00  0.00     0.075 C 
HETATM    9  N2  UNL     1      22.362   1.374  53.092  1.00  0.00    -0.226 NA
HETATM   10  C6  UNL     1      20.019   0.073  52.884  1.00  0.00     0.130 C 
HETATM   11 CL1  UNL     1      18.457  -0.675  52.724  1.00  0.00    -0.062 Cl
HETATM   12  N1  UNL     1      20.205   1.471  52.685  1.00  0.00    -0.213 NA
HETATM   13  C7  UNL     1      21.378   1.980  52.562  1.00  0.00     0.200 C 
ENDBRANCH   3   6
ENDBRANCH   1   3
BRANCH   1  14
HETATM   14  S1  UNL     1      26.210   1.916  52.557  1.00  0.00     0.242 S 
HETATM   15  O2  UNL     1      27.649   1.583  52.305  1.00  0.00    -0.206 OA
HETATM   16  O3  UNL     1      26.132   2.522  53.940  1.00  0.00    -0.206 OA
BRANCH  14  17
HETATM   17  C8  UNL     1      25.614   3.093  51.431  1.00  0.00     0.074 A 
HETATM   18  C9  UNL     1      24.426   3.787  51.481  1.00  0.00     0.026 A 
HETATM   19  C10 UNL     1      24.104   4.694  50.495  1.00  0.00     0.025 A 
HETATM   20  C11 UNL     1      24.973   4.911  49.446  1.00  0.00     0.034 A 
HETATM   21 CL2  UNL     1      24.489   6.079  48.235  1.00  0.00    -0.084 Cl
HETATM   22  C12 UNL     1      26.179   4.238  49.353  1.00  0.00     0.025 A 
HETATM   23  C13 UNL     1      26.487   3.325  50.362  1.00  0.00     0.026 A 
ENDBRANCH  14  17
ENDBRANCH   1  14
TORSDOF 5
ENDMDL
