MODEL 1
REMARK VINA RESULT:      -7.9      0.000      0.000
REMARK  4 active torsions:
REMARK  status: ('A' for Active; 'I' for Inactive)
REMARK    1  A    between atoms: C2_2  and  C3_3 
REMARK       I    between atoms: C3_3  and  N1_5 
REMARK    2  A    between atoms: N4_15  and  C10_16 
REMARK    3  A    between atoms: C10_16  and  C11_17 
REMARK    4  A    between atoms: C10_16  and  C13_19 
ROOT
HETATM    1  C3  UNL     1      26.713   4.790  49.032  1.00  0.00     0.243 C 
HETATM    2  O1  UNL     1      27.870   4.352  49.161  1.00  0.00    -0.268 OA
HETATM    3  N1  UNL     1      25.372   4.491  49.350  1.00  0.00    -0.340 N 
HETATM    4  C4  UNL     1      24.839   3.360  50.067  1.00  0.00     0.132 C 
HETATM    5  C5  UNL     1      23.607   2.779  49.438  1.00  0.00     0.062 C 
HETATM    6  C6  UNL     1      22.416   3.647  49.684  1.00  0.00    -0.028 C 
HETATM    7  S1  UNL     1      22.879   5.123  49.819  1.00  0.00    -0.133 SA
HETATM    8  C7  UNL     1      21.775   6.394  50.103  1.00  0.00     0.158 C 
HETATM    9  N2  UNL     1      21.507   6.099  51.339  1.00  0.00    -0.248 NA
HETATM   10  C8  UNL     1      22.112   4.978  52.011  1.00  0.00     0.228 C 
HETATM   11  N3  UNL     1      20.953   4.534  51.685  1.00  0.00    -0.264 NA
HETATM   12  C9  UNL     1      20.566   3.182  52.020  1.00  0.00     0.270 C 
HETATM   13  N4  UNL     1      20.960   2.297  51.016  1.00  0.00    -0.383 N 
HETATM   14  C19 UNL     1      21.183   2.811  49.706  1.00  0.00     0.160 C 
HETATM   15  C20 UNL     1      24.351   5.451  48.908  1.00  0.00     0.199 C 
ENDROOT
BRANCH  13  16
HETATM   16  C10 UNL     1      20.706   0.916  51.101  1.00  0.00     0.114 C 
BRANCH  16  17
HETATM   17  C11 UNL     1      19.308   0.448  51.226  1.00  0.00     0.025 C 
HETATM   18  C12 UNL     1      18.338   0.769  50.163  1.00  0.00     0.007 C 
ENDBRANCH  16  17
BRANCH  16  19
HETATM   19  C13 UNL     1      21.583   0.339  52.186  1.00  0.00    -0.036 A 
HETATM   20  C14 UNL     1      22.949   0.501  52.233  1.00  0.00     0.009 A 
HETATM   21  C15 UNL     1      23.720  -0.046  53.237  1.00  0.00     0.001 A 
HETATM   22  C16 UNL     1      23.155  -0.784  54.245  1.00  0.00     0.000 A 
HETATM   23  C17 UNL     1      21.800  -0.968  54.235  1.00  0.00     0.001 A 
HETATM   24  C18 UNL     1      21.066  -0.410  53.222  1.00  0.00     0.009 A 
ENDBRANCH  16  19
ENDBRANCH  13  16
BRANCH   1  25
HETATM   25  C2  UNL     1      27.083   5.986  48.298  1.00  0.00     0.064 C 
HETATM   26  C1  UNL     1      28.393   6.138  48.203  1.00  0.00     0.017 C 
ENDBRANCH   1  25
TORSDOF 4
ENDMDL
MODEL 2
REMARK VINA RESULT:      -7.8      1.468      2.000
REMARK  4 active torsions:
REMARK  status: ('A' for Active; 'I' for Inactive)
REMARK    1  A    between atoms: C2_2  and  C3_3 
REMARK       I    between atoms: C3_3  and  N1_5 
REMARK    2  A    between atoms: N4_15  and  C10_16 
REMARK    3  A    between atoms: C10_16  and  C11_17 
REMARK    4  A    between atoms: C10_16  and  C13_19 
ROOT
HETATM    1  C3  UNL     1      28.028   5.544  48.552  1.00  0.00     0.243 C 
HETATM    2  O1  UNL     1      29.237   5.255  48.595  1.00  0.00    -0.268 OA
HETATM    3  N1  UNL     1      26.767   5.117  49.019  1.00  0.00    -0.340 N 
HETATM    4  C4  UNL     1      26.444   3.991  49.856  1.00  0.00     0.132 C 
HETATM    5  C5  UNL     1      25.241   3.224  49.390  1.00  0.00     0.062 C 
HETATM    6  C6  UNL     1      23.980   3.964  49.695  1.00  0.00    -0.028 C 
HETATM    7  S1  UNL     1      24.269   5.490  49.688  1.00  0.00    -0.133 SA
HETATM    8  C7  UNL     1      23.047   6.642  49.996  1.00  0.00     0.158 C 
HETATM    9  N2  UNL     1      22.929   6.413  51.269  1.00  0.00    -0.248 NA
HETATM   10  C8  UNL     1      23.725   5.424  51.950  1.00  0.00     0.228 C 
HETATM   11  N3  UNL     1      22.605   4.825  51.768  1.00  0.00    -0.264 NA
HETATM   12  C9  UNL     1      22.418   3.466  52.227  1.00  0.00     0.270 C 
HETATM   13  N4  UNL     1      22.826   2.560  51.249  1.00  0.00    -0.383 N 
HETATM   14  C19 UNL     1      22.866   2.996  49.893  1.00  0.00     0.160 C 
HETATM   15  C20 UNL     1      25.601   5.916  48.618  1.00  0.00     0.199 C 
ENDROOT
BRANCH  13  16
HETATM   16  C10 UNL     1      22.751   1.170  51.447  1.00  0.00     0.114 C 
BRANCH  16  17
HETATM   17  C11 UNL     1      21.492   0.581  51.956  1.00  0.00     0.025 C 
HETATM   18  C12 UNL     1      20.327   0.475  51.059  1.00  0.00     0.007 C 
ENDBRANCH  16  17
BRANCH  16  19
HETATM   19  C13 UNL     1      23.938   0.745  52.279  1.00  0.00    -0.036 A 
HETATM   20  C14 UNL     1      25.242   1.060  51.970  1.00  0.00     0.009 A 
HETATM   21  C15 UNL     1      26.301   0.651  52.751  1.00  0.00     0.001 A 
HETATM   22  C16 UNL     1      26.104  -0.096  53.883  1.00  0.00     0.000 A 
HETATM   23  C17 UNL     1      24.822  -0.430  54.226  1.00  0.00     0.001 A 
HETATM   24  C18 UNL     1      23.794  -0.006  53.427  1.00  0.00     0.009 A 
ENDBRANCH  16  19
ENDBRANCH  13  16
BRANCH   1  25
HETATM   25  C2  UNL     1      28.182   6.716  47.709  1.00  0.00     0.064 C 
HETATM   26  C1  UNL     1      29.443   7.090  47.584  1.00  0.00     0.017 C 
ENDBRANCH   1  25
TORSDOF 4
ENDMDL
MODEL 3
REMARK VINA RESULT:      -7.8      3.134      5.031
REMARK  4 active torsions:
REMARK  status: ('A' for Active; 'I' for Inactive)
REMARK    1  A    between atoms: C2_2  and  C3_3 
REMARK       I    between atoms: C3_3  and  N1_5 
REMARK    2  A    between atoms: N4_15  and  C10_16 
REMARK    3  A    between atoms: C10_16  and  C11_17 
REMARK    4  A    between atoms: C10_16  and  C13_19 
ROOT
HETATM    1  C3  UNL     1      28.035   0.273  54.187  1.00  0.00     0.243 C 
HETATM    2  O1  UNL     1      28.525  -0.152  55.248  1.00  0.00    -0.268 OA
HETATM    3  N1  UNL     1      26.800   0.599  53.587  1.00  0.00    -0.340 N 
HETATM    4  C4  UNL     1      25.473   0.522  54.143  1.00  0.00     0.132 C 
HETATM    5  C5  UNL     1      24.461  -0.058  53.198  1.00  0.00     0.062 C 
HETATM    6  C6  UNL     1      24.089   0.927  52.138  1.00  0.00    -0.028 C 
HETATM    7  S1  UNL     1      25.293   1.871  51.872  1.00  0.00    -0.133 SA
HETATM    8  C7  UNL     1      25.221   3.123  50.714  1.00  0.00     0.158 C 
HETATM    9  N2  UNL     1      24.426   3.908  51.376  1.00  0.00    -0.248 NA
HETATM   10  C8  UNL     1      23.915   3.565  52.678  1.00  0.00     0.228 C 
HETATM   11  N3  UNL     1      22.938   3.282  51.897  1.00  0.00    -0.264 NA
HETATM   12  C9  UNL     1      21.703   2.750  52.430  1.00  0.00     0.270 C 
HETATM   13  N4  UNL     1      21.768   1.359  52.516  1.00  0.00    -0.383 N 
HETATM   14  C19 UNL     1      22.695   0.669  51.682  1.00  0.00     0.160 C 
HETATM   15  C20 UNL     1      26.839   1.097  52.206  1.00  0.00     0.199 C 
ENDROOT
BRANCH  13  16
HETATM   16  C10 UNL     1      20.695   0.594  53.008  1.00  0.00     0.114 C 
BRANCH  16  17
HETATM   17  C11 UNL     1      20.964  -0.748  53.570  1.00  0.00     0.025 C 
HETATM   18  C12 UNL     1      21.568  -0.863  54.911  1.00  0.00     0.007 C 
ENDBRANCH  16  17
BRANCH  16  19
HETATM   19  C13 UNL     1      19.622   0.545  51.946  1.00  0.00    -0.036 A 
HETATM   20  C14 UNL     1      19.671   1.265  50.773  1.00  0.00     0.009 A 
HETATM   21  C15 UNL     1      18.670   1.199  49.828  1.00  0.00     0.001 A 
HETATM   22  C16 UNL     1      17.568   0.405  50.014  1.00  0.00     0.000 A 
HETATM   23  C17 UNL     1      17.481  -0.327  51.166  1.00  0.00     0.001 A 
HETATM   24  C18 UNL     1      18.494  -0.237  52.083  1.00  0.00     0.009 A 
ENDBRANCH  16  19
ENDBRANCH  13  16
BRANCH   1  25
HETATM   25  C2  UNL     1      29.295   0.414  53.481  1.00  0.00     0.064 C 
HETATM   26  C1  UNL     1      30.000  -0.704  53.473  1.00  0.00     0.017 C 
ENDBRANCH   1  25
TORSDOF 4
ENDMDL
MODEL 4
REMARK VINA RESULT:      -7.7      2.893      3.774
REMARK  4 active torsions:
REMARK  status: ('A' for Active; 'I' for Inactive)
REMARK    1  A    between atoms: C2_2  and  C3_3 
REMARK       I    between atoms: C3_3  and  N1_5 
REMARK    2  A    between atoms: N4_15  and  C10_16 
REMARK    3  A    between atoms: C10_16  and  C11_17 
REMARK    4  A    between atoms: C10_16  and  C13_19 
ROOT
HETATM    1  C3  UNL     1      27.620   1.159  53.947  1.00  0.00     0.243 C 
HETATM    2  O1  UNL     1      27.897   0.639  55.042  1.00  0.00    -0.268 OA
HETATM    3  N1  UNL     1      26.523   1.524  53.138  1.00  0.00    -0.340 N 
HETATM    4  C4  UNL     1      25.114   1.374  53.397  1.00  0.00     0.132 C 
HETATM    5  C5  UNL     1      24.338   0.876  52.213  1.00  0.00     0.062 C 
HETATM    6  C6  UNL     1      24.157   1.954  51.196  1.00  0.00    -0.028 C 
HETATM    7  S1  UNL     1      25.357   2.936  51.273  1.00  0.00    -0.133 SA
HETATM    8  C7  UNL     1      25.481   4.294  50.245  1.00  0.00     0.158 C 
HETATM    9  N2  UNL     1      24.541   4.999  50.798  1.00  0.00    -0.248 NA
HETATM   10  C8  UNL     1      23.786   4.524  51.930  1.00  0.00     0.228 C 
HETATM   11  N3  UNL     1      23.000   4.305  50.940  1.00  0.00    -0.264 NA
HETATM   12  C9  UNL     1      21.702   3.705  51.155  1.00  0.00     0.270 C 
HETATM   13  N4  UNL     1      21.794   2.314  51.123  1.00  0.00    -0.383 N 
HETATM   14  C19 UNL     1      22.895   1.722  50.439  1.00  0.00     0.160 C 
HETATM   15  C20 UNL     1      26.828   2.155  51.846  1.00  0.00     0.199 C 
ENDROOT
BRANCH  13  16
HETATM   16  C10 UNL     1      20.670   1.490  51.309  1.00  0.00     0.114 C 
BRANCH  16  17
HETATM   17  C11 UNL     1      19.329   2.110  51.397  1.00  0.00     0.025 C 
HETATM   18  C12 UNL     1      18.139   1.317  51.037  1.00  0.00     0.007 C 
ENDBRANCH  16  17
BRANCH  16  19
HETATM   19  C13 UNL     1      20.938   0.581  52.485  1.00  0.00    -0.036 A 
HETATM   20  C14 UNL     1      21.385  -0.715  52.365  1.00  0.00     0.009 A 
HETATM   21  C15 UNL     1      21.614  -1.518  53.462  1.00  0.00     0.001 A 
HETATM   22  C16 UNL     1      21.406  -1.058  54.736  1.00  0.00     0.000 A 
HETATM   23  C17 UNL     1      20.962   0.226  54.899  1.00  0.00     0.001 A 
HETATM   24  C18 UNL     1      20.745   0.995  53.787  1.00  0.00     0.009 A 
ENDBRANCH  16  19
ENDBRANCH  13  16
BRANCH   1  25
HETATM   25  C2  UNL     1      28.992   1.386  53.534  1.00  0.00     0.064 C 
HETATM   26  C1  UNL     1      29.732   0.293  53.608  1.00  0.00     0.017 C 
ENDBRANCH   1  25
TORSDOF 4
ENDMDL
MODEL 5
REMARK VINA RESULT:      -7.6      2.352      6.824
REMARK  4 active torsions:
REMARK  status: ('A' for Active; 'I' for Inactive)
REMARK    1  A    between atoms: C2_2  and  C3_3 
REMARK       I    between atoms: C3_3  and  N1_5 
REMARK    2  A    between atoms: N4_15  and  C10_16 
REMARK    3  A    between atoms: C10_16  and  C11_17 
REMARK    4  A    between atoms: C10_16  and  C13_19 
ROOT
HETATM    1  C3  UNL     1      23.154  -0.002  53.156  1.00  0.00     0.243 C 
HETATM    2  O1  UNL     1      24.104  -0.512  53.776  1.00  0.00    -0.268 OA
HETATM    3  N1  UNL     1      22.847   1.041  52.257  1.00  0.00    -0.340 N 
HETATM    4  C4  UNL     1      23.724   2.021  51.670  1.00  0.00     0.132 C 
HETATM    5  C5  UNL     1      23.153   3.409  51.666  1.00  0.00     0.062 C 
HETATM    6  C6  UNL     1      22.097   3.553  50.619  1.00  0.00    -0.028 C 
HETATM    7  S1  UNL     1      21.410   2.179  50.394  1.00  0.00    -0.133 SA
HETATM    8  C7  UNL     1      20.147   1.974  49.263  1.00  0.00     0.158 C 
HETATM    9  N2  UNL     1      20.875   2.072  48.192  1.00  0.00    -0.248 NA
HETATM   10  C8  UNL     1      22.299   2.286  48.245  1.00  0.00     0.228 C 
HETATM   11  N3  UNL     1      21.835   3.456  48.001  1.00  0.00    -0.264 NA
HETATM   12  C9  UNL     1      22.730   4.583  47.855  1.00  0.00     0.270 C 
HETATM   13  N4  UNL     1      22.986   5.168  49.096  1.00  0.00    -0.383 N 
HETATM   14  C19 UNL     1      22.047   4.965  50.149  1.00  0.00     0.160 C 
HETATM   15  C20 UNL     1      21.445   1.167  51.835  1.00  0.00     0.199 C 
ENDROOT
BRANCH  13  16
HETATM   16  C10 UNL     1      23.832   6.283  49.231  1.00  0.00     0.114 C 
BRANCH  16  17
HETATM   17  C11 UNL     1      23.532   7.513  48.465  1.00  0.00     0.025 C 
HETATM   18  C12 UNL     1      22.976   8.685  49.167  1.00  0.00     0.007 C 
ENDBRANCH  16  17
BRANCH  16  19
HETATM   19  C13 UNL     1      25.255   5.827  49.010  1.00  0.00    -0.036 A 
HETATM   20  C14 UNL     1      25.725   4.584  49.369  1.00  0.00     0.009 A 
HETATM   21  C15 UNL     1      27.033   4.204  49.157  1.00  0.00     0.001 A 
HETATM   22  C16 UNL     1      27.935   5.054  48.571  1.00  0.00     0.000 A 
HETATM   23  C17 UNL     1      27.507   6.299  48.199  1.00  0.00     0.001 A 
HETATM   24  C18 UNL     1      26.201   6.643  48.425  1.00  0.00     0.009 A 
ENDBRANCH  16  19
ENDBRANCH  13  16
BRANCH   1  25
HETATM   25  C2  UNL     1      22.141  -0.914  53.654  1.00  0.00     0.064 C 
HETATM   26  C1  UNL     1      22.342  -1.259  54.914  1.00  0.00     0.017 C 
ENDBRANCH   1  25
TORSDOF 4
ENDMDL
MODEL 6
REMARK VINA RESULT:      -7.3      3.226      5.081
REMARK  4 active torsions:
REMARK  status: ('A' for Active; 'I' for Inactive)
REMARK    1  A    between atoms: C2_2  and  C3_3 
REMARK       I    between atoms: C3_3  and  N1_5 
REMARK    2  A    between atoms: N4_15  and  C10_16 
REMARK    3  A    between atoms: C10_16  and  C11_17 
REMARK    4  A    between atoms: C10_16  and  C13_19 
ROOT
HETATM    1  C3  UNL     1      21.595   4.123  46.879  1.00  0.00     0.243 C 
HETATM    2  O1  UNL     1      20.880   3.509  46.066  1.00  0.00    -0.268 OA
HETATM    3  N1  UNL     1      22.496   3.913  47.943  1.00  0.00    -0.340 N 
HETATM    4  C4  UNL     1      22.948   2.672  48.518  1.00  0.00     0.132 C 
HETATM    5  C5  UNL     1      22.984   2.685  50.019  1.00  0.00     0.062 C 
HETATM    6  C6  UNL     1      24.145   3.479  50.522  1.00  0.00    -0.028 C 
HETATM    7  S1  UNL     1      24.486   4.593  49.495  1.00  0.00    -0.133 SA
HETATM    8  C7  UNL     1      25.763   5.697  49.750  1.00  0.00     0.158 C 
HETATM    9  N2  UNL     1      26.738   4.862  49.551  1.00  0.00    -0.248 NA
HETATM   10  C8  UNL     1      26.510   3.477  49.225  1.00  0.00     0.228 C 
HETATM   11  N3  UNL     1      26.777   3.443  50.479  1.00  0.00    -0.264 NA
HETATM   12  C9  UNL     1      26.786   2.184  51.192  1.00  0.00     0.270 C 
HETATM   13  N4  UNL     1      25.508   1.882  51.665  1.00  0.00    -0.383 N 
HETATM   14  C19 UNL     1      24.580   2.948  51.844  1.00  0.00     0.160 C 
HETATM   15  C20 UNL     1      23.078   5.107  48.571  1.00  0.00     0.199 C 
ENDROOT
BRANCH  13  16
HETATM   16  C10 UNL     1      25.245   0.706  52.390  1.00  0.00     0.114 C 
BRANCH  16  17
HETATM   17  C11 UNL     1      24.102   0.681  53.331  1.00  0.00     0.025 C 
HETATM   18  C12 UNL     1      22.910  -0.123  53.001  1.00  0.00     0.007 C 
ENDBRANCH  16  17
BRANCH  16  19
HETATM   19  C13 UNL     1      26.524   0.266  53.061  1.00  0.00    -0.036 A 
HETATM   20  C14 UNL     1      27.049   0.871  54.181  1.00  0.00     0.009 A 
HETATM   21  C15 UNL     1      28.223   0.445  54.764  1.00  0.00     0.001 A 
HETATM   22  C16 UNL     1      28.930  -0.611  54.250  1.00  0.00     0.000 A 
HETATM   23  C17 UNL     1      28.443  -1.239  53.137  1.00  0.00     0.001 A 
HETATM   24  C18 UNL     1      27.273  -0.789  52.584  1.00  0.00     0.009 A 
ENDBRANCH  16  19
ENDBRANCH  13  16
BRANCH   1  25
HETATM   25  C2  UNL     1      21.245   5.453  46.415  1.00  0.00     0.064 C 
HETATM   26  C1  UNL     1      21.442   5.606  45.117  1.00  0.00     0.017 C 
ENDBRANCH   1  25
TORSDOF 4
ENDMDL
MODEL 7
REMARK VINA RESULT:      -7.2      2.383      6.015
REMARK  4 active torsions:
REMARK  status: ('A' for Active; 'I' for Inactive)
REMARK    1  A    between atoms: C2_2  and  C3_3 
REMARK       I    between atoms: C3_3  and  N1_5 
REMARK    2  A    between atoms: N4_15  and  C10_16 
REMARK    3  A    between atoms: C10_16  and  C11_17 
REMARK    4  A    between atoms: C10_16  and  C13_19 
ROOT
HETATM    1  C3  UNL     1      26.418   0.293  52.574  1.00  0.00     0.243 C 
HETATM    2  O1  UNL     1      27.650   0.342  52.408  1.00  0.00    -0.268 OA
HETATM    3  N1  UNL     1      25.231   0.998  52.288  1.00  0.00    -0.340 N 
HETATM    4  C4  UNL     1      25.061   2.235  51.570  1.00  0.00     0.132 C 
HETATM    5  C5  UNL     1      24.094   3.179  52.224  1.00  0.00     0.062 C 
HETATM    6  C6  UNL     1      22.683   2.730  52.021  1.00  0.00    -0.028 C 
HETATM    7  S1  UNL     1      22.653   1.182  51.895  1.00  0.00    -0.133 SA
HETATM    8  C7  UNL     1      21.197   0.323  51.659  1.00  0.00     0.158 C 
HETATM    9  N2  UNL     1      20.999   0.681  50.426  1.00  0.00    -0.248 NA
HETATM   10  C8  UNL     1      21.906   1.552  49.722  1.00  0.00     0.228 C 
HETATM   11  N3  UNL     1      20.957   2.340  50.073  1.00  0.00    -0.264 NA
HETATM   12  C9  UNL     1      21.005   3.744  49.729  1.00  0.00     0.270 C 
HETATM   13  N4  UNL     1      21.688   4.464  50.710  1.00  0.00    -0.383 N 
HETATM   14  C19 UNL     1      21.777   3.911  52.021  1.00  0.00     0.160 C 
HETATM   15  C20 UNL     1      23.973   0.411  52.771  1.00  0.00     0.199 C 
ENDROOT
BRANCH  13  16
HETATM   16  C10 UNL     1      21.879   5.853  50.613  1.00  0.00     0.114 C 
BRANCH  16  17
HETATM   17  C11 UNL     1      20.939   6.655  49.799  1.00  0.00     0.025 C 
HETATM   18  C12 UNL     1      20.741   8.082  50.116  1.00  0.00     0.007 C 
ENDBRANCH  16  17
BRANCH  16  19
HETATM   19  C13 UNL     1      23.314   6.107  50.214  1.00  0.00    -0.036 A 
HETATM   20  C14 UNL     1      23.958   5.432  49.203  1.00  0.00     0.009 A 
HETATM   21  C15 UNL     1      25.272   5.686  48.870  1.00  0.00     0.001 A 
HETATM   22  C16 UNL     1      26.003   6.634  49.537  1.00  0.00     0.000 A 
HETATM   23  C17 UNL     1      25.399   7.329  50.549  1.00  0.00     0.001 A 
HETATM   24  C18 UNL     1      24.093   7.049  50.853  1.00  0.00     0.009 A 
ENDBRANCH  16  19
ENDBRANCH  13  16
BRANCH   1  25
HETATM   25  C2  UNL     1      26.414  -0.956  53.315  1.00  0.00     0.064 C 
HETATM   26  C1  UNL     1      26.971  -1.947  52.641  1.00  0.00     0.017 C 
ENDBRANCH   1  25
TORSDOF 4
ENDMDL
MODEL 8
REMARK VINA RESULT:      -6.7      3.096      5.104
REMARK  4 active torsions:
REMARK  status: ('A' for Active; 'I' for Inactive)
REMARK    1  A    between atoms: C2_2  and  C3_3 
REMARK       I    between atoms: C3_3  and  N1_5 
REMARK    2  A    between atoms: N4_15  and  C10_16 
REMARK    3  A    between atoms: C10_16  and  C11_17 
REMARK    4  A    between atoms: C10_16  and  C13_19 
ROOT
HETATM    1  C3  UNL     1      20.687   5.242  46.452  1.00  0.00     0.243 C 
HETATM    2  O1  UNL     1      20.947   6.032  45.527  1.00  0.00    -0.268 OA
HETATM    3  N1  UNL     1      21.256   4.652  47.600  1.00  0.00    -0.340 N 
HETATM    4  C4  UNL     1      22.575   4.827  48.152  1.00  0.00     0.132 C 
HETATM    5  C5  UNL     1      23.216   3.543  48.590  1.00  0.00     0.062 C 
HETATM    6  C6  UNL     1      22.617   3.051  49.867  1.00  0.00    -0.028 C 
HETATM    7  S1  UNL     1      21.140   3.522  49.953  1.00  0.00    -0.133 SA
HETATM    8  C7  UNL     1      20.145   3.134  51.285  1.00  0.00     0.158 C 
HETATM    9  N2  UNL     1      20.712   3.926  52.144  1.00  0.00    -0.248 NA
HETATM   10  C8  UNL     1      21.829   4.766  51.795  1.00  0.00     0.228 C 
HETATM   11  N3  UNL     1      22.384   3.773  52.388  1.00  0.00    -0.264 NA
HETATM   12  C9  UNL     1      23.820   3.726  52.550  1.00  0.00     0.270 C 
HETATM   13  N4  UNL     1      24.418   3.131  51.439  1.00  0.00    -0.383 N 
HETATM   14  C19 UNL     1      23.630   2.266  50.625  1.00  0.00     0.160 C 
HETATM   15  C20 UNL     1      20.407   3.728  48.365  1.00  0.00     0.199 C 
ENDROOT
BRANCH  13  16
HETATM   16  C10 UNL     1      25.811   2.967  51.344  1.00  0.00     0.114 C 
BRANCH  16  17
HETATM   17  C11 UNL     1      26.441   2.909  50.005  1.00  0.00     0.025 C 
HETATM   18  C12 UNL     1      26.785   4.165  49.313  1.00  0.00     0.007 C 
ENDBRANCH  16  17
BRANCH  16  19
HETATM   19  C13 UNL     1      26.208   1.783  52.193  1.00  0.00    -0.036 A 
HETATM   20  C14 UNL     1      26.464   0.529  51.687  1.00  0.00     0.009 A 
HETATM   21  C15 UNL     1      26.818  -0.531  52.495  1.00  0.00     0.001 A 
HETATM   22  C16 UNL     1      26.934  -0.383  53.852  1.00  0.00     0.000 A 
HETATM   23  C17 UNL     1      26.687   0.848  54.396  1.00  0.00     0.001 A 
HETATM   24  C18 UNL     1      26.337   1.878  53.563  1.00  0.00     0.009 A 
ENDBRANCH  16  19
ENDBRANCH  13  16
BRANCH   1  25
HETATM   25  C2  UNL     1      19.328   4.957  46.031  1.00  0.00     0.064 C 
HETATM   26  C1  UNL     1      19.260   4.546  44.777  1.00  0.00     0.017 C 
ENDBRANCH   1  25
TORSDOF 4
ENDMDL
MODEL 9
REMARK VINA RESULT:      -6.6      5.295     11.801
REMARK  4 active torsions:
REMARK  status: ('A' for Active; 'I' for Inactive)
REMARK    1  A    between atoms: C2_2  and  C3_3 
REMARK       I    between atoms: C3_3  and  N1_5 
REMARK    2  A    between atoms: N4_15  and  C10_16 
REMARK    3  A    between atoms: C10_16  and  C11_17 
REMARK    4  A    between atoms: C10_16  and  C13_19 
ROOT
HETATM    1  C3  UNL     1      26.425   5.925  49.243  1.00  0.00     0.243 C 
HETATM    2  O1  UNL     1      25.372   6.342  49.757  1.00  0.00    -0.268 OA
HETATM    3  N1  UNL     1      27.654   6.371  48.713  1.00  0.00    -0.340 N 
HETATM    4  C4  UNL     1      28.153   7.716  48.588  1.00  0.00     0.132 C 
HETATM    5  C5  UNL     1      28.807   7.991  47.265  1.00  0.00     0.062 C 
HETATM    6  C6  UNL     1      30.156   7.356  47.189  1.00  0.00    -0.028 C 
HETATM    7  S1  UNL     1      30.172   6.082  48.076  1.00  0.00    -0.133 SA
HETATM    8  C7  UNL     1      31.561   5.100  48.224  1.00  0.00     0.158 C 
HETATM    9  N2  UNL     1      32.260   5.921  48.948  1.00  0.00    -0.248 NA
HETATM   10  C8  UNL     1      31.757   7.208  49.357  1.00  0.00     0.228 C 
HETATM   11  N3  UNL     1      32.511   7.491  48.359  1.00  0.00    -0.264 NA
HETATM   12  C9  UNL     1      32.665   8.862  47.924  1.00  0.00     0.270 C 
HETATM   13  N4  UNL     1      31.671   9.197  47.004  1.00  0.00    -0.383 N 
HETATM   14  C19 UNL     1      31.032   8.148  46.281  1.00  0.00     0.160 C 
HETATM   15  C20 UNL     1      28.579   5.343  48.218  1.00  0.00     0.199 C 
ENDROOT
BRANCH  13  16
HETATM   16  C10 UNL     1      31.593  10.478  46.428  1.00  0.00     0.114 C 
BRANCH  16  17
HETATM   17  C11 UNL     1      32.844  11.206  46.120  1.00  0.00     0.025 C 
HETATM   18  C12 UNL     1      33.486  11.019  44.805  1.00  0.00     0.007 C 
ENDBRANCH  16  17
BRANCH  16  19
HETATM   19  C13 UNL     1      30.655  11.316  47.263  1.00  0.00    -0.036 A 
HETATM   20  C14 UNL     1      31.020  11.934  48.438  1.00  0.00     0.009 A 
HETATM   21  C15 UNL     1      30.134  12.688  49.178  1.00  0.00     0.001 A 
HETATM   22  C16 UNL     1      28.837  12.860  48.773  1.00  0.00     0.000 A 
HETATM   23  C17 UNL     1      28.434  12.263  47.610  1.00  0.00     0.001 A 
HETATM   24  C18 UNL     1      29.340  11.521  46.901  1.00  0.00     0.009 A 
ENDBRANCH  16  19
ENDBRANCH  13  16
BRANCH   1  25
HETATM   25  C2  UNL     1      26.075   4.518  49.300  1.00  0.00     0.064 C 
HETATM   26  C1  UNL     1      24.768   4.319  49.285  1.00  0.00     0.017 C 
ENDBRANCH   1  25
TORSDOF 4
ENDMDL
