MODEL 1
REMARK VINA RESULT:      -8.6      0.000      0.000
REMARK  7 active torsions:
REMARK  status: ('A' for Active; 'I' for Inactive)
REMARK    1  A    between atoms: N2_5  and  C4_6 
REMARK    2  A    between atoms: C7_9  and  N3_10 
REMARK       I    between atoms: N3_10  and  C8_11 
REMARK    3  A    between atoms: C8_11  and  C9_13 
REMARK    4  A    between atoms: C9_13  and  C17_23 
REMARK    5  A    between atoms: C10_14  and  N4_15 
REMARK    6  A    between atoms: N4_15  and  C11_16 
REMARK    7  A    between atoms: C17_23  and  C18_24 
ROOT
HETATM    1  N3  UNL     1      25.757   2.645  50.803  1.00  0.00    -0.323 N 
HETATM    2  C8  UNL     1      26.539   1.985  51.766  1.00  0.00     0.253 C 
HETATM    3  O1  UNL     1      27.597   2.515  52.147  1.00  0.00    -0.268 OA
HETATM    4  H10 UNL     1      24.855   2.296  50.413  1.00  0.00     0.169 HD
ENDROOT
BRANCH   2   5
HETATM    5  C9  UNL     1      26.101   0.704  52.296  1.00  0.00     0.028 C 
HETATM    6  C10 UNL     1      24.979   0.641  52.990  1.00  0.00     0.101 C 
BRANCH   6   7
HETATM    7  N4  UNL     1      24.505  -0.585  53.530  1.00  0.00    -0.365 N 
HETATM    8  H12 UNL     1      24.987  -1.455  53.812  1.00  0.00     0.165 HD
BRANCH   7   9
HETATM    9  C11 UNL     1      23.089  -0.426  53.646  1.00  0.00     0.033 A 
HETATM   10  C12 UNL     1      22.247  -1.367  54.205  1.00  0.00     0.029 A 
HETATM   11  C13 UNL     1      20.900  -1.173  54.296  1.00  0.00     0.004 A 
HETATM   12  C14 UNL     1      20.334  -0.004  53.821  1.00  0.00     0.024 A 
HETATM   13  C15 UNL     1      21.184   0.935  53.261  1.00  0.00     0.036 A 
HETATM   14 CL1  UNL     1      20.369   2.395  52.681  1.00  0.00    -0.084 Cl
HETATM   15  C16 UNL     1      22.556   0.739  53.168  1.00  0.00     0.053 A 
ENDBRANCH   7   9
ENDBRANCH   6   7
BRANCH   5  16
HETATM   16  C17 UNL     1      26.890  -0.536  52.070  1.00  0.00     0.082 C 
BRANCH  16  17
HETATM   17  C18 UNL     1      27.907  -0.598  53.184  1.00  0.00     0.395 C 
HETATM   18  O2  UNL     1      28.178  -0.774  54.352  1.00  0.00    -0.429 OA
ENDBRANCH  16  17
ENDBRANCH   5  16
ENDBRANCH   2   5
BRANCH   1  19
HETATM   19  C7  UNL     1      25.961   3.884  50.139  1.00  0.00     0.035 A 
HETATM   20  C6  UNL     1      27.006   3.979  49.268  1.00  0.00     0.032 A 
HETATM   21  C5  UNL     1      27.273   5.129  48.589  1.00  0.00     0.031 A 
HETATM   22  C4  UNL     1      26.525   6.274  48.723  1.00  0.00     0.030 A 
HETATM   23  C20 UNL     1      25.471   6.171  49.606  1.00  0.00     0.031 A 
HETATM   24  C19 UNL     1      25.187   5.015  50.299  1.00  0.00     0.032 A 
BRANCH  22  25
HETATM   25  N2  UNL     1      26.740   7.508  48.053  1.00  0.00    -0.378 N 
HETATM   26  C3  UNL     1      25.893   8.680  48.076  1.00  0.00     0.142 C 
HETATM   27  C2  UNL     1      26.567   9.936  48.512  1.00  0.00     0.136 C 
HETATM   28  N1  UNL     1      27.940  10.049  48.192  1.00  0.00    -0.414 N 
HETATM   29  C1  UNL     1      28.659  11.081  48.833  1.00  0.00     0.143 C 
HETATM   30  C22 UNL     1      28.666   8.863  47.903  1.00  0.00     0.136 C 
HETATM   31  C21 UNL     1      27.883   7.799  47.211  1.00  0.00     0.142 C 
ENDBRANCH  22  25
ENDBRANCH   1  19
TORSDOF 7
ENDMDL
MODEL 2
REMARK VINA RESULT:      -8.1      2.902      3.999
REMARK  7 active torsions:
REMARK  status: ('A' for Active; 'I' for Inactive)
REMARK    1  A    between atoms: N2_5  and  C4_6 
REMARK    2  A    between atoms: C7_9  and  N3_10 
REMARK       I    between atoms: N3_10  and  C8_11 
REMARK    3  A    between atoms: C8_11  and  C9_13 
REMARK    4  A    between atoms: C9_13  and  C17_23 
REMARK    5  A    between atoms: C10_14  and  N4_15 
REMARK    6  A    between atoms: N4_15  and  C11_16 
REMARK    7  A    between atoms: C17_23  and  C18_24 
ROOT
HETATM    1  N3  UNL     1      24.526   3.921  49.433  1.00  0.00    -0.323 N 
HETATM    2  C8  UNL     1      23.821   3.778  50.641  1.00  0.00     0.253 C 
HETATM    3  O1  UNL     1      24.165   4.461  51.621  1.00  0.00    -0.268 OA
HETATM    4  H10 UNL     1      24.325   3.404  48.550  1.00  0.00     0.169 HD
ENDROOT
BRANCH   2   5
HETATM    5  C9  UNL     1      22.713   2.841  50.723  1.00  0.00     0.028 C 
HETATM    6  C10 UNL     1      22.958   1.574  51.006  1.00  0.00     0.101 C 
BRANCH   6   7
HETATM    7  N4  UNL     1      21.912   0.616  51.099  1.00  0.00    -0.365 N 
HETATM    8  H12 UNL     1      21.181   0.316  50.433  1.00  0.00     0.165 HD
BRANCH   7   9
HETATM    9  C11 UNL     1      22.029   0.053  52.408  1.00  0.00     0.033 A 
HETATM   10  C12 UNL     1      20.954  -0.333  53.184  1.00  0.00     0.029 A 
HETATM   11  C13 UNL     1      21.112  -0.868  54.429  1.00  0.00     0.004 A 
HETATM   12  C14 UNL     1      22.380  -1.039  54.954  1.00  0.00     0.024 A 
HETATM   13  C15 UNL     1      23.454  -0.650  54.171  1.00  0.00     0.036 A 
HETATM   14 CL1  UNL     1      25.033  -0.907  54.926  1.00  0.00    -0.084 Cl
HETATM   15  C16 UNL     1      23.294  -0.106  52.903  1.00  0.00     0.053 A 
ENDBRANCH   7   9
ENDBRANCH   6   7
BRANCH   5  16
HETATM   16  C17 UNL     1      21.312   3.281  50.496  1.00  0.00     0.082 C 
BRANCH  16  17
HETATM   17  C18 UNL     1      20.733   3.565  51.861  1.00  0.00     0.395 C 
HETATM   18  O2  UNL     1      20.091   3.211  52.826  1.00  0.00    -0.429 OA
ENDBRANCH  16  17
ENDBRANCH   5  16
ENDBRANCH   2   5
BRANCH   1  19
HETATM   19  C7  UNL     1      25.627   4.753  49.100  1.00  0.00     0.035 A 
HETATM   20  C6  UNL     1      25.381   6.070  48.841  1.00  0.00     0.032 A 
HETATM   21  C5  UNL     1      26.378   6.937  48.516  1.00  0.00     0.031 A 
HETATM   22  C4  UNL     1      27.699   6.565  48.421  1.00  0.00     0.030 A 
HETATM   23  C20 UNL     1      27.940   5.234  48.683  1.00  0.00     0.031 A 
HETATM   24  C19 UNL     1      26.943   4.344  49.015  1.00  0.00     0.032 A 
BRANCH  22  25
HETATM   25  N2  UNL     1      28.792   7.408  48.087  1.00  0.00    -0.378 N 
HETATM   26  C3  UNL     1      29.295   8.536  48.840  1.00  0.00     0.142 C 
HETATM   27  C2  UNL     1      30.741   8.463  49.193  1.00  0.00     0.136 C 
HETATM   28  N1  UNL     1      31.574   7.787  48.271  1.00  0.00    -0.414 N 
HETATM   29  C1  UNL     1      32.874   7.458  48.712  1.00  0.00     0.143 C 
HETATM   30  C22 UNL     1      30.973   6.883  47.356  1.00  0.00     0.136 C 
HETATM   31  C21 UNL     1      29.608   7.265  46.897  1.00  0.00     0.142 C 
ENDBRANCH  22  25
ENDBRANCH   1  19
TORSDOF 7
ENDMDL
MODEL 3
REMARK VINA RESULT:      -8.1      1.813      2.265
REMARK  7 active torsions:
REMARK  status: ('A' for Active; 'I' for Inactive)
REMARK    1  A    between atoms: N2_5  and  C4_6 
REMARK    2  A    between atoms: C7_9  and  N3_10 
REMARK       I    between atoms: N3_10  and  C8_11 
REMARK    3  A    between atoms: C8_11  and  C9_13 
REMARK    4  A    between atoms: C9_13  and  C17_23 
REMARK    5  A    between atoms: C10_14  and  N4_15 
REMARK    6  A    between atoms: N4_15  and  C11_16 
REMARK    7  A    between atoms: C17_23  and  C18_24 
ROOT
HETATM    1  N3  UNL     1      24.765   2.384  51.127  1.00  0.00    -0.323 N 
HETATM    2  C8  UNL     1      24.858   2.019  52.481  1.00  0.00     0.253 C 
HETATM    3  O1  UNL     1      25.572   2.700  53.238  1.00  0.00    -0.268 OA
HETATM    4  H10 UNL     1      24.198   1.889  50.404  1.00  0.00     0.169 HD
ENDROOT
BRANCH   2   5
HETATM    5  C9  UNL     1      24.127   0.861  52.968  1.00  0.00     0.028 C 
HETATM    6  C10 UNL     1      22.842   0.981  53.250  1.00  0.00     0.101 C 
BRANCH   6   7
HETATM    7  N4  UNL     1      22.079  -0.119  53.729  1.00  0.00    -0.365 N 
HETATM    8  H12 UNL     1      22.260  -0.826  54.460  1.00  0.00     0.165 HD
BRANCH   7   9
HETATM    9  C11 UNL     1      20.873  -0.107  52.961  1.00  0.00     0.033 A 
HETATM   10  C12 UNL     1      20.738   0.522  51.739  1.00  0.00     0.029 A 
HETATM   11  C13 UNL     1      19.567   0.507  51.040  1.00  0.00     0.004 A 
HETATM   12  C14 UNL     1      18.463  -0.152  51.551  1.00  0.00     0.024 A 
HETATM   13  C15 UNL     1      18.604  -0.780  52.777  1.00  0.00     0.036 A 
HETATM   14 CL1  UNL     1      17.141  -1.595  53.347  1.00  0.00    -0.084 Cl
HETATM   15  C16 UNL     1      19.796  -0.766  53.490  1.00  0.00     0.053 A 
ENDBRANCH   7   9
ENDBRANCH   6   7
BRANCH   5  16
HETATM   16  C17 UNL     1      24.796  -0.453  53.154  1.00  0.00     0.082 C 
BRANCH  16  17
HETATM   17  C18 UNL     1      25.702  -0.299  54.353  1.00  0.00     0.395 C 
HETATM   18  O2  UNL     1      25.979  -0.561  55.503  1.00  0.00    -0.429 OA
ENDBRANCH  16  17
ENDBRANCH   5  16
ENDBRANCH   2   5
BRANCH   1  19
HETATM   19  C7  UNL     1      25.371   3.453  50.415  1.00  0.00     0.035 A 
HETATM   20  C6  UNL     1      26.526   3.197  49.736  1.00  0.00     0.032 A 
HETATM   21  C5  UNL     1      27.172   4.164  49.028  1.00  0.00     0.031 A 
HETATM   22  C4  UNL     1      26.722   5.460  48.938  1.00  0.00     0.030 A 
HETATM   23  C20 UNL     1      25.555   5.711  49.626  1.00  0.00     0.031 A 
HETATM   24  C19 UNL     1      24.889   4.745  50.346  1.00  0.00     0.032 A 
BRANCH  22  25
HETATM   25  N2  UNL     1      27.338   6.521  48.222  1.00  0.00    -0.378 N 
HETATM   26  C3  UNL     1      26.724   7.751  47.773  1.00  0.00     0.142 C 
HETATM   27  C2  UNL     1      27.397   8.997  48.239  1.00  0.00     0.136 C 
HETATM   28  N1  UNL     1      28.797   8.918  48.420  1.00  0.00    -0.414 N 
HETATM   29  C1  UNL     1      29.408   9.979  49.123  1.00  0.00     0.143 C 
HETATM   30  C22 UNL     1      29.386   7.636  48.581  1.00  0.00     0.136 C 
HETATM   31  C21 UNL     1      28.729   6.540  47.814  1.00  0.00     0.142 C 
ENDBRANCH  22  25
ENDBRANCH   1  19
TORSDOF 7
ENDMDL
MODEL 4
REMARK VINA RESULT:      -8.1      2.805      3.746
REMARK  7 active torsions:
REMARK  status: ('A' for Active; 'I' for Inactive)
REMARK    1  A    between atoms: N2_5  and  C4_6 
REMARK    2  A    between atoms: C7_9  and  N3_10 
REMARK       I    between atoms: N3_10  and  C8_11 
REMARK    3  A    between atoms: C8_11  and  C9_13 
REMARK    4  A    between atoms: C9_13  and  C17_23 
REMARK    5  A    between atoms: C10_14  and  N4_15 
REMARK    6  A    between atoms: N4_15  and  C11_16 
REMARK    7  A    between atoms: C17_23  and  C18_24 
ROOT
HETATM    1  N3  UNL     1      24.560   3.948  49.436  1.00  0.00    -0.323 N 
HETATM    2  C8  UNL     1      23.824   3.918  50.633  1.00  0.00     0.253 C 
HETATM    3  O1  UNL     1      24.133   4.701  51.548  1.00  0.00    -0.268 OA
HETATM    4  H10 UNL     1      24.389   3.341  48.605  1.00  0.00     0.169 HD
ENDROOT
BRANCH   2   5
HETATM    5  C9  UNL     1      22.723   2.981  50.780  1.00  0.00     0.028 C 
HETATM    6  C10 UNL     1      22.984   1.714  51.050  1.00  0.00     0.101 C 
BRANCH   6   7
HETATM    7  N4  UNL     1      21.946   0.756  51.205  1.00  0.00    -0.365 N 
HETATM    8  H12 UNL     1      21.146   0.492  50.605  1.00  0.00     0.165 HD
BRANCH   7   9
HETATM    9  C11 UNL     1      22.194   0.127  52.464  1.00  0.00     0.033 A 
HETATM   10  C12 UNL     1      21.210  -0.415  53.267  1.00  0.00     0.029 A 
HETATM   11  C13 UNL     1      21.493  -1.007  54.463  1.00  0.00     0.004 A 
HETATM   12  C14 UNL     1      22.800  -1.079  54.909  1.00  0.00     0.024 A 
HETATM   13  C15 UNL     1      23.782  -0.534  54.099  1.00  0.00     0.036 A 
HETATM   14 CL1  UNL     1      25.421  -0.675  54.752  1.00  0.00    -0.084 Cl
HETATM   15  C16 UNL     1      23.496   0.069  52.881  1.00  0.00     0.053 A 
ENDBRANCH   7   9
ENDBRANCH   6   7
BRANCH   5  16
HETATM   16  C17 UNL     1      21.310   3.419  50.633  1.00  0.00     0.082 C 
BRANCH  16  17
HETATM   17  C18 UNL     1      20.747   3.502  52.032  1.00  0.00     0.395 C 
HETATM   18  O2  UNL     1      20.123   3.008  52.946  1.00  0.00    -0.429 OA
ENDBRANCH  16  17
ENDBRANCH   5  16
ENDBRANCH   2   5
BRANCH   1  19
HETATM   19  C7  UNL     1      25.662   4.755  49.050  1.00  0.00     0.035 A 
HETATM   20  C6  UNL     1      26.899   4.181  49.023  1.00  0.00     0.032 A 
HETATM   21  C5  UNL     1      28.009   4.882  48.665  1.00  0.00     0.031 A 
HETATM   22  C4  UNL     1      27.979   6.209  48.305  1.00  0.00     0.030 A 
HETATM   23  C20 UNL     1      26.726   6.783  48.335  1.00  0.00     0.031 A 
HETATM   24  C19 UNL     1      25.594   6.087  48.694  1.00  0.00     0.032 A 
BRANCH  22  25
HETATM   25  N2  UNL     1      29.090   7.006  47.921  1.00  0.00    -0.378 N 
HETATM   26  C3  UNL     1      29.153   7.960  46.836  1.00  0.00     0.142 C 
HETATM   27  C2  UNL     1      29.565   9.338  47.232  1.00  0.00     0.136 C 
HETATM   28  N1  UNL     1      30.460   9.430  48.323  1.00  0.00    -0.414 N 
HETATM   29  C1  UNL     1      30.636  10.711  48.892  1.00  0.00     0.143 C 
HETATM   30  C22 UNL     1      30.557   8.328  49.213  1.00  0.00     0.136 C 
HETATM   31  C21 UNL     1      30.382   6.990  48.579  1.00  0.00     0.142 C 
ENDBRANCH  22  25
ENDBRANCH   1  19
TORSDOF 7
ENDMDL
MODEL 5
REMARK VINA RESULT:      -7.7      4.369      9.717
REMARK  7 active torsions:
REMARK  status: ('A' for Active; 'I' for Inactive)
REMARK    1  A    between atoms: N2_5  and  C4_6 
REMARK    2  A    between atoms: C7_9  and  N3_10 
REMARK       I    between atoms: N3_10  and  C8_11 
REMARK    3  A    between atoms: C8_11  and  C9_13 
REMARK    4  A    between atoms: C9_13  and  C17_23 
REMARK    5  A    between atoms: C10_14  and  N4_15 
REMARK    6  A    between atoms: N4_15  and  C11_16 
REMARK    7  A    between atoms: C17_23  and  C18_24 
ROOT
HETATM    1  N3  UNL     1      22.432   1.405  50.942  1.00  0.00    -0.323 N 
HETATM    2  C8  UNL     1      23.019   2.637  51.276  1.00  0.00     0.253 C 
HETATM    3  O1  UNL     1      22.316   3.512  51.809  1.00  0.00    -0.268 OA
HETATM    4  H10 UNL     1      22.924   0.601  50.494  1.00  0.00     0.169 HD
ENDROOT
BRANCH   2   5
HETATM    5  C9  UNL     1      24.427   2.866  50.993  1.00  0.00     0.028 C 
HETATM    6  C10 UNL     1      25.312   2.722  51.963  1.00  0.00     0.101 C 
BRANCH   6   7
HETATM    7  N4  UNL     1      26.700   2.933  51.742  1.00  0.00    -0.365 N 
HETATM    8  H12 UNL     1      27.219   3.638  51.193  1.00  0.00     0.165 HD
BRANCH   7   9
HETATM    9  C11 UNL     1      27.362   1.903  52.479  1.00  0.00     0.033 A 
HETATM   10  C12 UNL     1      28.351   2.133  53.415  1.00  0.00     0.029 A 
HETATM   11  C13 UNL     1      28.956   1.118  54.096  1.00  0.00     0.004 A 
HETATM   12  C14 UNL     1      28.586  -0.193  53.860  1.00  0.00     0.024 A 
HETATM   13  C15 UNL     1      27.594  -0.418  52.920  1.00  0.00     0.036 A 
HETATM   14 CL1  UNL     1      27.188  -2.124  52.688  1.00  0.00    -0.084 Cl
HETATM   15  C16 UNL     1      26.976   0.615  52.226  1.00  0.00     0.053 A 
ENDBRANCH   7   9
ENDBRANCH   6   7
BRANCH   5  16
HETATM   16  C17 UNL     1      24.888   3.256  49.635  1.00  0.00     0.082 C 
BRANCH  16  17
HETATM   17  C18 UNL     1      24.619   4.736  49.507  1.00  0.00     0.395 C 
HETATM   18  O2  UNL     1      23.971   5.717  49.802  1.00  0.00    -0.429 OA
ENDBRANCH  16  17
ENDBRANCH   5  16
ENDBRANCH   2   5
BRANCH   1  19
HETATM   19  C7  UNL     1      21.100   0.941  51.110  1.00  0.00     0.035 A 
HETATM   20  C6  UNL     1      20.217   1.146  50.091  1.00  0.00     0.032 A 
HETATM   21  C5  UNL     1      18.922   0.734  50.169  1.00  0.00     0.031 A 
HETATM   22  C4  UNL     1      18.402   0.086  51.265  1.00  0.00     0.030 A 
HETATM   23  C20 UNL     1      19.300  -0.118  52.290  1.00  0.00     0.031 A 
HETATM   24  C19 UNL     1      20.613   0.292  52.227  1.00  0.00     0.032 A 
BRANCH  22  25
HETATM   25  N2  UNL     1      17.067  -0.374  51.421  1.00  0.00    -0.378 N 
HETATM   26  C3  UNL     1      16.373  -0.653  52.658  1.00  0.00     0.142 C 
HETATM   27  C2  UNL     1      15.090   0.084  52.841  1.00  0.00     0.136 C 
HETATM   28  N1  UNL     1      14.366   0.375  51.661  1.00  0.00    -0.414 N 
HETATM   29  C1  UNL     1      13.311   1.307  51.777  1.00  0.00     0.143 C 
HETATM   30  C22 UNL     1      15.060   0.361  50.422  1.00  0.00     0.136 C 
HETATM   31  C21 UNL     1      16.156  -0.644  50.325  1.00  0.00     0.142 C 
ENDBRANCH  22  25
ENDBRANCH   1  19
TORSDOF 7
ENDMDL
MODEL 6
REMARK VINA RESULT:      -7.7      4.914      9.857
REMARK  7 active torsions:
REMARK  status: ('A' for Active; 'I' for Inactive)
REMARK    1  A    between atoms: N2_5  and  C4_6 
REMARK    2  A    between atoms: C7_9  and  N3_10 
REMARK       I    between atoms: N3_10  and  C8_11 
REMARK    3  A    between atoms: C8_11  and  C9_13 
REMARK    4  A    between atoms: C9_13  and  C17_23 
REMARK    5  A    between atoms: C10_14  and  N4_15 
REMARK    6  A    between atoms: N4_15  and  C11_16 
REMARK    7  A    between atoms: C17_23  and  C18_24 
ROOT
HETATM    1  N3  UNL     1      28.199   5.735  48.877  1.00  0.00    -0.323 N 
HETATM    2  C8  UNL     1      28.723   6.698  47.998  1.00  0.00     0.253 C 
HETATM    3  O1  UNL     1      27.963   7.237  47.175  1.00  0.00    -0.268 OA
HETATM    4  H10 UNL     1      28.740   5.222  49.606  1.00  0.00     0.169 HD
ENDROOT
BRANCH   2   5
HETATM    5  C9  UNL     1      30.133   7.046  48.067  1.00  0.00     0.028 C 
HETATM    6  C10 UNL     1      30.979   6.204  48.634  1.00  0.00     0.101 C 
BRANCH   6   7
HETATM    7  N4  UNL     1      32.367   6.494  48.727  1.00  0.00    -0.365 N 
HETATM    8  H12 UNL     1      32.885   7.334  49.033  1.00  0.00     0.165 HD
BRANCH   7   9
HETATM    9  C11 UNL     1      33.032   5.309  48.283  1.00  0.00     0.033 A 
HETATM   10  C12 UNL     1      34.397   5.110  48.362  1.00  0.00     0.029 A 
HETATM   11  C13 UNL     1      34.989   3.961  47.927  1.00  0.00     0.004 A 
HETATM   12  C14 UNL     1      34.221   2.947  47.384  1.00  0.00     0.024 A 
HETATM   13  C15 UNL     1      32.854   3.152  47.308  1.00  0.00     0.036 A 
HETATM   14 CL1  UNL     1      31.956   1.801  46.601  1.00  0.00    -0.084 Cl
HETATM   15  C16 UNL     1      32.249   4.321  47.751  1.00  0.00     0.053 A 
ENDBRANCH   7   9
ENDBRANCH   6   7
BRANCH   5  16
HETATM   16  C17 UNL     1      30.641   8.327  47.510  1.00  0.00     0.082 C 
BRANCH  16  17
HETATM   17  C18 UNL     1      30.291   9.394  48.521  1.00  0.00     0.395 C 
HETATM   18  O2  UNL     1      29.988   9.715  49.649  1.00  0.00    -0.429 OA
ENDBRANCH  16  17
ENDBRANCH   5  16
ENDBRANCH   2   5
BRANCH   1  19
HETATM   19  C7  UNL     1      26.879   5.227  49.009  1.00  0.00     0.035 A 
HETATM   20  C6  UNL     1      26.728   3.919  49.364  1.00  0.00     0.032 A 
HETATM   21  C5  UNL     1      25.499   3.352  49.513  1.00  0.00     0.031 A 
HETATM   22  C4  UNL     1      24.324   4.040  49.321  1.00  0.00     0.030 A 
HETATM   23  C20 UNL     1      24.484   5.361  48.962  1.00  0.00     0.031 A 
HETATM   24  C19 UNL     1      25.720   5.949  48.808  1.00  0.00     0.032 A 
BRANCH  22  25
HETATM   25  N2  UNL     1      23.009   3.520  49.457  1.00  0.00    -0.378 N 
HETATM   26  C3  UNL     1      22.331   2.601  48.569  1.00  0.00     0.142 C 
HETATM   27  C2  UNL     1      21.821   1.359  49.218  1.00  0.00     0.136 C 
HETATM   28  N1  UNL     1      21.419   1.483  50.568  1.00  0.00    -0.414 N 
HETATM   29  C1  UNL     1      21.207   0.282  51.280  1.00  0.00     0.143 C 
HETATM   30  C22 UNL     1      21.909   2.582  51.321  1.00  0.00     0.136 C 
HETATM   31  C21 UNL     1      22.106   3.839  50.545  1.00  0.00     0.142 C 
ENDBRANCH  22  25
ENDBRANCH   1  19
TORSDOF 7
ENDMDL
MODEL 7
REMARK VINA RESULT:      -7.7      3.380      4.917
REMARK  7 active torsions:
REMARK  status: ('A' for Active; 'I' for Inactive)
REMARK    1  A    between atoms: N2_5  and  C4_6 
REMARK    2  A    between atoms: C7_9  and  N3_10 
REMARK       I    between atoms: N3_10  and  C8_11 
REMARK    3  A    between atoms: C8_11  and  C9_13 
REMARK    4  A    between atoms: C9_13  and  C17_23 
REMARK    5  A    between atoms: C10_14  and  N4_15 
REMARK    6  A    between atoms: N4_15  and  C11_16 
REMARK    7  A    between atoms: C17_23  and  C18_24 
ROOT
HETATM    1  N3  UNL     1      25.162   4.834  49.410  1.00  0.00    -0.323 N 
HETATM    2  C8  UNL     1      23.864   4.899  48.874  1.00  0.00     0.253 C 
HETATM    3  O1  UNL     1      23.648   5.662  47.917  1.00  0.00    -0.268 OA
HETATM    4  H10 UNL     1      25.458   4.231  50.208  1.00  0.00     0.169 HD
ENDROOT
BRANCH   2   5
HETATM    5  C9  UNL     1      22.807   4.079  49.442  1.00  0.00     0.028 C 
HETATM    6  C10 UNL     1      23.045   2.805  49.699  1.00  0.00     0.101 C 
BRANCH   6   7
HETATM    7  N4  UNL     1      22.047   1.959  50.255  1.00  0.00    -0.365 N 
HETATM    8  H12 UNL     1      21.052   1.807  50.020  1.00  0.00     0.165 HD
BRANCH   7   9
HETATM    9  C11 UNL     1      22.694   1.258  51.319  1.00  0.00     0.033 A 
HETATM   10  C12 UNL     1      24.007   1.462  51.696  1.00  0.00     0.029 A 
HETATM   11  C13 UNL     1      24.584   0.769  52.719  1.00  0.00     0.004 A 
HETATM   12  C14 UNL     1      23.853  -0.174  53.418  1.00  0.00     0.024 A 
HETATM   13  C15 UNL     1      22.538  -0.375  53.035  1.00  0.00     0.036 A 
HETATM   14 CL1  UNL     1      21.684  -1.599  53.985  1.00  0.00    -0.084 Cl
HETATM   15  C16 UNL     1      21.948   0.330  51.993  1.00  0.00     0.053 A 
ENDBRANCH   7   9
ENDBRANCH   6   7
BRANCH   5  16
HETATM   16  C17 UNL     1      21.466   4.647  49.741  1.00  0.00     0.082 C 
BRANCH  16  17
HETATM   17  C18 UNL     1      21.687   5.735  50.765  1.00  0.00     0.395 C 
HETATM   18  O2  UNL     1      21.491   6.863  51.159  1.00  0.00    -0.429 OA
ENDBRANCH  16  17
ENDBRANCH   5  16
ENDBRANCH   2   5
BRANCH   1  19
HETATM   19  C7  UNL     1      26.348   5.522  49.041  1.00  0.00     0.035 A 
HETATM   20  C6  UNL     1      27.447   4.779  48.725  1.00  0.00     0.032 A 
HETATM   21  C5  UNL     1      28.625   5.356  48.360  1.00  0.00     0.031 A 
HETATM   22  C4  UNL     1      28.803   6.717  48.281  1.00  0.00     0.030 A 
HETATM   23  C20 UNL     1      27.689   7.462  48.602  1.00  0.00     0.031 A 
HETATM   24  C19 UNL     1      26.491   6.893  48.972  1.00  0.00     0.032 A 
BRANCH  22  25
HETATM   25  N2  UNL     1      29.997   7.393  47.910  1.00  0.00    -0.378 N 
HETATM   26  C3  UNL     1      30.939   8.057  48.784  1.00  0.00     0.142 C 
HETATM   27  C2  UNL     1      32.347   7.583  48.668  1.00  0.00     0.136 C 
HETATM   28  N1  UNL     1      32.749   7.132  47.388  1.00  0.00    -0.414 N 
HETATM   29  C1  UNL     1      33.967   6.421  47.318  1.00  0.00     0.143 C 
HETATM   30  C22 UNL     1      31.743   6.750  46.461  1.00  0.00     0.136 C 
HETATM   31  C21 UNL     1      30.476   7.530  46.549  1.00  0.00     0.142 C 
ENDBRANCH  22  25
ENDBRANCH   1  19
TORSDOF 7
ENDMDL
MODEL 8
REMARK VINA RESULT:      -7.5      6.284      9.002
REMARK  7 active torsions:
REMARK  status: ('A' for Active; 'I' for Inactive)
REMARK    1  A    between atoms: N2_5  and  C4_6 
REMARK    2  A    between atoms: C7_9  and  N3_10 
REMARK       I    between atoms: N3_10  and  C8_11 
REMARK    3  A    between atoms: C8_11  and  C9_13 
REMARK    4  A    between atoms: C9_13  and  C17_23 
REMARK    5  A    between atoms: C10_14  and  N4_15 
REMARK    6  A    between atoms: N4_15  and  C11_16 
REMARK    7  A    between atoms: C17_23  and  C18_24 
ROOT
HETATM    1  N3  UNL     1      20.608   1.351  51.317  1.00  0.00    -0.323 N 
HETATM    2  C8  UNL     1      19.726   2.346  51.772  1.00  0.00     0.253 C 
HETATM    3  O1  UNL     1      19.963   2.908  52.856  1.00  0.00    -0.268 OA
HETATM    4  H10 UNL     1      20.511   0.817  50.427  1.00  0.00     0.169 HD
ENDROOT
BRANCH   2   5
HETATM    5  C9  UNL     1      18.563   2.699  50.976  1.00  0.00     0.028 C 
HETATM    6  C10 UNL     1      17.905   3.811  51.250  1.00  0.00     0.101 C 
BRANCH   6   7
HETATM    7  N4  UNL     1      16.761   4.203  50.502  1.00  0.00    -0.365 N 
HETATM    8  H12 UNL     1      16.645   4.544  49.533  1.00  0.00     0.165 HD
BRANCH   7   9
HETATM    9  C11 UNL     1      15.653   4.037  51.389  1.00  0.00     0.033 A 
HETATM   10  C12 UNL     1      15.668   4.393  52.723  1.00  0.00     0.029 A 
HETATM   11  C13 UNL     1      14.585   4.218  53.534  1.00  0.00     0.004 A 
HETATM   12  C14 UNL     1      13.422   3.666  53.028  1.00  0.00     0.024 A 
HETATM   13  C15 UNL     1      13.414   3.310  51.690  1.00  0.00     0.036 A 
HETATM   14 CL1  UNL     1      11.885   2.613  51.134  1.00  0.00    -0.084 Cl
HETATM   15  C16 UNL     1      14.515   3.489  50.863  1.00  0.00     0.053 A 
ENDBRANCH   7   9
ENDBRANCH   6   7
BRANCH   5  16
HETATM   16  C17 UNL     1      18.101   1.834  49.859  1.00  0.00     0.082 C 
BRANCH  16  17
HETATM   17  C18 UNL     1      17.394   0.662  50.497  1.00  0.00     0.395 C 
HETATM   18  O2  UNL     1      17.430  -0.425  51.032  1.00  0.00    -0.429 OA
ENDBRANCH  16  17
ENDBRANCH   5  16
ENDBRANCH   2   5
BRANCH   1  19
HETATM   19  C7  UNL     1      21.795   0.833  51.900  1.00  0.00     0.035 A 
HETATM   20  C6  UNL     1      22.979   1.433  51.585  1.00  0.00     0.032 A 
HETATM   21  C5  UNL     1      24.163   1.001  52.100  1.00  0.00     0.031 A 
HETATM   22  C4  UNL     1      24.265  -0.061  52.966  1.00  0.00     0.030 A 
HETATM   23  C20 UNL     1      23.065  -0.663  53.280  1.00  0.00     0.031 A 
HETATM   24  C19 UNL     1      21.859  -0.238  52.769  1.00  0.00     0.032 A 
BRANCH  22  25
HETATM   25  N2  UNL     1      25.459  -0.570  53.543  1.00  0.00    -0.378 N 
HETATM   26  C3  UNL     1      26.469  -1.381  52.901  1.00  0.00     0.142 C 
HETATM   27  C2  UNL     1      27.852  -0.827  52.959  1.00  0.00     0.136 C 
HETATM   28  N1  UNL     1      28.168  -0.062  54.105  1.00  0.00    -0.414 N 
HETATM   29  C1  UNL     1      29.355   0.701  54.052  1.00  0.00     0.143 C 
HETATM   30  C22 UNL     1      27.102   0.487  54.866  1.00  0.00     0.136 C 
HETATM   31  C21 UNL     1      25.869  -0.349  54.916  1.00  0.00     0.142 C 
ENDBRANCH  22  25
ENDBRANCH   1  19
TORSDOF 7
ENDMDL
MODEL 9
REMARK VINA RESULT:      -7.5      6.272      8.985
REMARK  7 active torsions:
REMARK  status: ('A' for Active; 'I' for Inactive)
REMARK    1  A    between atoms: N2_5  and  C4_6 
REMARK    2  A    between atoms: C7_9  and  N3_10 
REMARK       I    between atoms: N3_10  and  C8_11 
REMARK    3  A    between atoms: C8_11  and  C9_13 
REMARK    4  A    between atoms: C9_13  and  C17_23 
REMARK    5  A    between atoms: C10_14  and  N4_15 
REMARK    6  A    between atoms: N4_15  and  C11_16 
REMARK    7  A    between atoms: C17_23  and  C18_24 
ROOT
HETATM    1  N3  UNL     1      20.462   1.428  51.376  1.00  0.00    -0.323 N 
HETATM    2  C8  UNL     1      19.663   2.519  51.759  1.00  0.00     0.253 C 
HETATM    3  O1  UNL     1      20.035   3.232  52.707  1.00  0.00    -0.268 OA
HETATM    4  H10 UNL     1      20.251   0.767  50.598  1.00  0.00     0.169 HD
ENDROOT
BRANCH   2   5
HETATM    5  C9  UNL     1      18.426   2.792  51.047  1.00  0.00     0.028 C 
HETATM    6  C10 UNL     1      17.322   3.027  51.734  1.00  0.00     0.101 C 
BRANCH   6   7
HETATM    7  N4  UNL     1      16.086   3.300  51.088  1.00  0.00    -0.365 N 
HETATM    8  H12 UNL     1      15.855   3.752  50.188  1.00  0.00     0.165 HD
BRANCH   7   9
HETATM    9  C11 UNL     1      15.079   2.796  51.968  1.00  0.00     0.033 A 
HETATM   10  C12 UNL     1      14.881   1.455  52.233  1.00  0.00     0.029 A 
HETATM   11  C13 UNL     1      13.907   1.019  53.082  1.00  0.00     0.004 A 
HETATM   12  C14 UNL     1      13.076   1.929  53.710  1.00  0.00     0.024 A 
HETATM   13  C15 UNL     1      13.279   3.272  53.441  1.00  0.00     0.036 A 
HETATM   14 CL1  UNL     1      12.170   4.358  54.290  1.00  0.00    -0.084 Cl
HETATM   15  C16 UNL     1      14.271   3.718  52.577  1.00  0.00     0.053 A 
ENDBRANCH   7   9
ENDBRANCH   6   7
BRANCH   5  16
HETATM   16  C17 UNL     1      18.379   2.814  49.561  1.00  0.00     0.082 C 
BRANCH  16  17
HETATM   17  C18 UNL     1      19.235   3.981  49.129  1.00  0.00     0.395 C 
HETATM   18  O2  UNL     1      19.720   4.662  48.252  1.00  0.00    -0.429 OA
ENDBRANCH  16  17
ENDBRANCH   5  16
ENDBRANCH   2   5
BRANCH   1  19
HETATM   19  C7  UNL     1      21.694   0.957  51.903  1.00  0.00     0.035 A 
HETATM   20  C6  UNL     1      21.667  -0.143  52.709  1.00  0.00     0.032 A 
HETATM   21  C5  UNL     1      22.801  -0.662  53.255  1.00  0.00     0.031 A 
HETATM   22  C4  UNL     1      24.050  -0.129  53.044  1.00  0.00     0.030 A 
HETATM   23  C20 UNL     1      24.070   0.982  52.229  1.00  0.00     0.031 A 
HETATM   24  C19 UNL     1      22.933   1.519  51.668  1.00  0.00     0.032 A 
BRANCH  22  25
HETATM   25  N2  UNL     1      25.276  -0.610  53.577  1.00  0.00    -0.378 N 
HETATM   26  C3  UNL     1      26.349  -1.265  52.861  1.00  0.00     0.142 C 
HETATM   27  C2  UNL     1      27.686  -0.620  53.003  1.00  0.00     0.136 C 
HETATM   28  N1  UNL     1      27.936   0.031  54.233  1.00  0.00    -0.414 N 
HETATM   29  C1  UNL     1      29.062   0.881  54.284  1.00  0.00     0.143 C 
HETATM   30  C22 UNL     1      26.826   0.408  55.035  1.00  0.00     0.136 C 
HETATM   31  C21 UNL     1      25.660  -0.518  54.972  1.00  0.00     0.142 C 
ENDBRANCH  22  25
ENDBRANCH   1  19
TORSDOF 7
ENDMDL
