MODEL 1
REMARK VINA RESULT:      -7.5      0.000      0.000
REMARK  0 active torsions:
REMARK  status: ('A' for Active; 'I' for Inactive)
ROOT
HETATM    1  N1  UNL     1      23.839   5.240  53.246  1.00  0.00    -0.402 N 
HETATM    2  C1  UNL     1      23.804   3.974  53.016  1.00  0.00     0.014 A 
HETATM    3  C2  UNL     1      24.684   2.881  53.334  1.00  0.00     0.028 A 
HETATM    4  C3  UNL     1      24.088   1.594  52.805  1.00  0.00     0.047 A 
HETATM    5  C4  UNL     1      23.003   0.634  52.064  1.00  0.00    -0.008 A 
HETATM    6  C5  UNL     1      23.016   1.559  52.210  1.00  0.00     0.079 A 
HETATM    7  C6  UNL     1      23.038   2.878  52.419  1.00  0.00     0.043 A 
HETATM    8  C7  UNL     1      21.916   3.699  51.765  1.00  0.00    -0.009 C 
HETATM    9  C8  UNL     1      22.377   4.805  51.058  1.00  0.00     0.033 C 
HETATM   10  C9  UNL     1      23.607   5.505  50.604  1.00  0.00     0.115 C 
HETATM   11  N2  UNL     1      24.779   4.912  50.339  1.00  0.00    -0.246 NA
HETATM   12  C10 UNL     1      24.921   3.387  50.463  1.00  0.00     0.125 C 
HETATM   13  N3  UNL     1      25.785   2.917  51.366  1.00  0.00    -0.256 NA
HETATM   14  C11 UNL     1      26.111   1.508  51.729  1.00  0.00     0.268 C 
HETATM   15  N4  UNL     1      25.581   1.054  53.093  1.00  0.00    -0.393 N 
HETATM   16  C12 UNL     1      23.890   2.965  49.348  1.00  0.00     0.107 C 
HETATM   17  C13 UNL     1      22.663   2.247  49.743  1.00  0.00    -0.023 C 
HETATM   18  C14 UNL     1      21.562   1.576  50.215  1.00  0.00    -0.025 C 
HETATM   19  C15 UNL     1      21.625   1.251  51.753  1.00  0.00     0.017 A 
HETATM   20  C16 UNL     1      21.057   2.629  52.303  1.00  0.00     0.019 C 
HETATM   21  H1  UNL     1      22.903   5.664  53.415  1.00  0.00     0.156 HD
HETATM   22  H2  UNL     1      24.848   5.606  53.220  1.00  0.00     0.156 HD
HETATM   23  H9  UNL     1      25.740   0.659  54.020  1.00  0.00     0.155 HD
ENDROOT
TORSDOF 0
ENDMDL
MODEL 2
REMARK VINA RESULT:      -7.3      1.230      1.548
REMARK  0 active torsions:
REMARK  status: ('A' for Active; 'I' for Inactive)
ROOT
HETATM    1  N1  UNL     1      21.983   5.719  51.957  1.00  0.00    -0.402 N 
HETATM    2  C1  UNL     1      22.494   4.564  52.204  1.00  0.00     0.014 A 
HETATM    3  C2  UNL     1      23.786   4.126  52.659  1.00  0.00     0.028 A 
HETATM    4  C3  UNL     1      23.782   2.617  52.783  1.00  0.00     0.047 A 
HETATM    5  C4  UNL     1      23.182   1.105  52.720  1.00  0.00    -0.008 A 
HETATM    6  C5  UNL     1      22.796   1.936  52.523  1.00  0.00     0.079 A 
HETATM    7  C6  UNL     1      22.249   3.121  52.241  1.00  0.00     0.043 A 
HETATM    8  C7  UNL     1      20.836   3.103  51.638  1.00  0.00    -0.009 C 
HETATM    9  C8  UNL     1      20.709   3.887  50.496  1.00  0.00     0.033 C 
HETATM   10  C9  UNL     1      21.467   4.730  49.536  1.00  0.00     0.115 C 
HETATM   11  N2  UNL     1      22.758   4.566  49.216  1.00  0.00    -0.246 NA
HETATM   12  C10 UNL     1      23.567   3.413  49.831  1.00  0.00     0.125 C 
HETATM   13  N3  UNL     1      24.612   3.731  50.598  1.00  0.00    -0.256 NA
HETATM   14  C11 UNL     1      25.552   2.843  51.342  1.00  0.00     0.268 C 
HETATM   15  N4  UNL     1      25.378   2.850  52.864  1.00  0.00    -0.393 N 
HETATM   16  C12 UNL     1      22.751   2.208  49.228  1.00  0.00     0.107 C 
HETATM   17  C13 UNL     1      21.999   1.324  50.140  1.00  0.00    -0.023 C 
HETATM   18  C14 UNL     1      21.344   0.561  51.075  1.00  0.00    -0.025 C 
HETATM   19  C15 UNL     1      21.656   0.969  52.563  1.00  0.00     0.017 A 
HETATM   20  C16 UNL     1      20.578   2.128  52.713  1.00  0.00     0.019 C 
HETATM   21  H1  UNL     1      20.970   5.792  52.190  1.00  0.00     0.156 HD
HETATM   22  H2  UNL     1      22.721   6.387  51.555  1.00  0.00     0.156 HD
HETATM   23  H9  UNL     1      25.760   2.977  53.801  1.00  0.00     0.155 HD
ENDROOT
TORSDOF 0
ENDMDL
MODEL 3
REMARK VINA RESULT:      -7.1      2.128      3.829
REMARK  0 active torsions:
REMARK  status: ('A' for Active; 'I' for Inactive)
ROOT
HETATM    1  N1  UNL     1      22.435   2.171  48.453  1.00  0.00    -0.402 N 
HETATM    2  C1  UNL     1      22.426   1.759  49.672  1.00  0.00     0.014 A 
HETATM    3  C2  UNL     1      21.517   0.953  50.443  1.00  0.00     0.028 A 
HETATM    4  C3  UNL     1      22.064   0.793  51.845  1.00  0.00     0.047 A 
HETATM    5  C4  UNL     1      23.105   0.976  53.082  1.00  0.00    -0.008 A 
HETATM    6  C5  UNL     1      23.123   1.296  52.202  1.00  0.00     0.079 A 
HETATM    7  C6  UNL     1      23.146   1.752  50.947  1.00  0.00     0.043 A 
HETATM    8  C7  UNL     1      24.282   2.721  50.585  1.00  0.00    -0.009 C 
HETATM    9  C8  UNL     1      23.844   3.875  49.943  1.00  0.00     0.033 C 
HETATM   10  C9  UNL     1      22.629   4.611  49.507  1.00  0.00     0.115 C 
HETATM   11  N2  UNL     1      21.435   4.556  50.111  1.00  0.00    -0.246 NA
HETATM   12  C10 UNL     1      21.247   3.710  51.379  1.00  0.00     0.125 C 
HETATM   13  N3  UNL     1      20.384   2.692  51.323  1.00  0.00    -0.256 NA
HETATM   14  C11 UNL     1      20.021   1.693  52.368  1.00  0.00     0.268 C 
HETATM   15  N4  UNL     1      20.559   0.280  52.125  1.00  0.00    -0.393 N 
HETATM   16  C12 UNL     1      22.244   4.481  52.325  1.00  0.00     0.107 C 
HETATM   17  C13 UNL     1      23.455   3.788  52.807  1.00  0.00    -0.023 C 
HETATM   18  C14 UNL     1      24.542   3.050  53.204  1.00  0.00    -0.025 C 
HETATM   19  C15 UNL     1      24.495   1.547  52.742  1.00  0.00     0.017 A 
HETATM   20  C16 UNL     1      25.117   1.732  51.292  1.00  0.00     0.019 C 
HETATM   21  H1  UNL     1      23.387   2.228  48.034  1.00  0.00     0.156 HD
HETATM   22  H2  UNL     1      21.438   2.371  48.108  1.00  0.00     0.156 HD
HETATM   23  H9  UNL     1      20.405  -0.722  52.016  1.00  0.00     0.155 HD
ENDROOT
TORSDOF 0
ENDMDL
MODEL 4
REMARK VINA RESULT:      -7.1      1.905      3.792
REMARK  0 active torsions:
REMARK  status: ('A' for Active; 'I' for Inactive)
ROOT
HETATM    1  N1  UNL     1      21.885   0.298  52.469  1.00  0.00    -0.402 N 
HETATM    2  C1  UNL     1      22.442   1.134  51.665  1.00  0.00     0.014 A 
HETATM    3  C2  UNL     1      23.613   1.966  51.750  1.00  0.00     0.028 A 
HETATM    4  C3  UNL     1      23.771   2.733  50.455  1.00  0.00     0.047 A 
HETATM    5  C4  UNL     1      23.417   3.217  48.942  1.00  0.00    -0.008 A 
HETATM    6  C5  UNL     1      22.989   2.614  49.518  1.00  0.00     0.079 A 
HETATM    7  C6  UNL     1      22.381   1.757  50.342  1.00  0.00     0.043 A 
HETATM    8  C7  UNL     1      21.038   1.179  49.867  1.00  0.00    -0.009 C 
HETATM    9  C8  UNL     1      20.028   1.268  50.819  1.00  0.00     0.033 C 
HETATM   10  C9  UNL     1      19.702   1.798  52.169  1.00  0.00     0.115 C 
HETATM   11  N2  UNL     1      20.250   2.887  52.724  1.00  0.00    -0.246 NA
HETATM   12  C10 UNL     1      21.280   3.718  51.944  1.00  0.00     0.125 C 
HETATM   13  N3  UNL     1      22.514   3.807  52.447  1.00  0.00    -0.256 NA
HETATM   14  C11 UNL     1      23.714   4.508  51.906  1.00  0.00     0.268 C 
HETATM   15  N4  UNL     1      24.806   3.585  51.354  1.00  0.00    -0.393 N 
HETATM   16  C12 UNL     1      20.354   4.182  50.756  1.00  0.00     0.107 C 
HETATM   17  C13 UNL     1      20.648   3.704  49.390  1.00  0.00    -0.023 C 
HETATM   18  C14 UNL     1      21.014   3.211  48.163  1.00  0.00    -0.025 C 
HETATM   19  C15 UNL     1      22.360   2.396  48.179  1.00  0.00     0.017 A 
HETATM   20  C16 UNL     1      21.768   0.983  48.601  1.00  0.00     0.019 C 
HETATM   21  H1  UNL     1      21.444  -0.517  51.992  1.00  0.00     0.156 HD
HETATM   22  H2  UNL     1      21.994   0.615  53.489  1.00  0.00     0.156 HD
HETATM   23  H9  UNL     1      25.774   3.264  51.342  1.00  0.00     0.155 HD
ENDROOT
TORSDOF 0
ENDMDL
MODEL 5
REMARK VINA RESULT:      -7.0      9.075     10.979
REMARK  0 active torsions:
REMARK  status: ('A' for Active; 'I' for Inactive)
ROOT
HETATM    1  N1  UNL     1      31.645   5.821  50.103  1.00  0.00    -0.402 N 
HETATM    2  C1  UNL     1      32.624   5.695  49.277  1.00  0.00     0.014 A 
HETATM    3  C2  UNL     1      33.978   6.180  49.258  1.00  0.00     0.028 A 
HETATM    4  C3  UNL     1      34.668   5.675  48.009  1.00  0.00     0.047 A 
HETATM    5  C4  UNL     1      34.833   4.873  46.603  1.00  0.00    -0.008 A 
HETATM    6  C5  UNL     1      34.104   4.964  47.185  1.00  0.00     0.079 A 
HETATM    7  C6  UNL     1      33.067   5.096  48.017  1.00  0.00     0.043 A 
HETATM    8  C7  UNL     1      31.731   4.495  47.554  1.00  0.00    -0.009 C 
HETATM    9  C8  UNL     1      30.659   5.374  47.666  1.00  0.00     0.033 C 
HETATM   10  C9  UNL     1      30.291   6.771  48.013  1.00  0.00     0.115 C 
HETATM   11  N2  UNL     1      31.083   7.840  47.856  1.00  0.00    -0.246 NA
HETATM   12  C10 UNL     1      32.483   7.682  47.243  1.00  0.00     0.125 C 
HETATM   13  N3  UNL     1      33.532   8.001  48.005  1.00  0.00    -0.256 NA
HETATM   14  C11 UNL     1      34.990   7.924  47.699  1.00  0.00     0.268 C 
HETATM   15  N4  UNL     1      35.743   6.805  48.425  1.00  0.00    -0.393 N 
HETATM   16  C12 UNL     1      32.056   7.169  45.815  1.00  0.00     0.107 C 
HETATM   17  C13 UNL     1      32.418   5.796  45.411  1.00  0.00    -0.023 C 
HETATM   18  C14 UNL     1      32.811   4.511  45.131  1.00  0.00    -0.025 C 
HETATM   19  C15 UNL     1      33.722   3.868  46.242  1.00  0.00     0.017 A 
HETATM   20  C16 UNL     1      32.573   3.337  47.203  1.00  0.00     0.019 C 
HETATM   21  H1  UNL     1      31.037   4.978  50.169  1.00  0.00     0.156 HD
HETATM   22  H2  UNL     1      31.658   6.789  50.567  1.00  0.00     0.156 HD
HETATM   23  H9  UNL     1      36.502   6.495  49.032  1.00  0.00     0.155 HD
ENDROOT
TORSDOF 0
ENDMDL
MODEL 6
REMARK VINA RESULT:      -6.8      2.197      3.885
REMARK  0 active torsions:
REMARK  status: ('A' for Active; 'I' for Inactive)
ROOT
HETATM    1  N1  UNL     1      19.621   2.404  50.703  1.00  0.00    -0.402 N 
HETATM    2  C1  UNL     1      20.607   3.072  51.191  1.00  0.00     0.014 A 
HETATM    3  C2  UNL     1      20.818   4.464  51.481  1.00  0.00     0.028 A 
HETATM    4  C3  UNL     1      22.199   4.643  52.074  1.00  0.00     0.047 A 
HETATM    5  C4  UNL     1      23.669   4.206  52.620  1.00  0.00    -0.008 A 
HETATM    6  C5  UNL     1      22.967   3.704  52.255  1.00  0.00     0.079 A 
HETATM    7  C6  UNL     1      21.965   2.992  51.733  1.00  0.00     0.043 A 
HETATM    8  C7  UNL     1      22.238   1.502  51.476  1.00  0.00    -0.009 C 
HETATM    9  C8  UNL     1      21.882   1.085  50.197  1.00  0.00     0.033 C 
HETATM   10  C9  UNL     1      21.376   1.560  48.883  1.00  0.00     0.115 C 
HETATM   11  N2  UNL     1      21.586   2.780  48.370  1.00  0.00    -0.246 NA
HETATM   12  C10 UNL     1      22.436   3.805  49.136  1.00  0.00     0.125 C 
HETATM   13  N3  UNL     1      21.841   4.934  49.527  1.00  0.00    -0.256 NA
HETATM   14  C11 UNL     1      22.393   6.084  50.300  1.00  0.00     0.268 C 
HETATM   15  N4  UNL     1      21.890   6.193  51.743  1.00  0.00    -0.393 N 
HETATM   16  C12 UNL     1      23.805   3.024  49.130  1.00  0.00     0.107 C 
HETATM   17  C13 UNL     1      24.365   2.551  50.411  1.00  0.00    -0.023 C 
HETATM   18  C14 UNL     1      24.801   2.164  51.654  1.00  0.00    -0.025 C 
HETATM   19  C15 UNL     1      23.910   2.699  52.836  1.00  0.00     0.017 A 
HETATM   20  C16 UNL     1      22.811   1.551  52.833  1.00  0.00     0.019 C 
HETATM   21  H1  UNL     1      19.515   1.450  51.107  1.00  0.00     0.156 HD
HETATM   22  H2  UNL     1      19.095   2.981  49.965  1.00  0.00     0.156 HD
HETATM   23  H9  UNL     1      21.444   6.725  52.489  1.00  0.00     0.155 HD
ENDROOT
TORSDOF 0
ENDMDL
MODEL 7
REMARK VINA RESULT:      -6.7      2.698      4.195
REMARK  0 active torsions:
REMARK  status: ('A' for Active; 'I' for Inactive)
ROOT
HETATM    1  N1  UNL     1      19.251   1.334  49.463  1.00  0.00    -0.402 N 
HETATM    2  C1  UNL     1      20.382   1.251  50.072  1.00  0.00     0.014 A 
HETATM    3  C2  UNL     1      20.925   0.337  51.041  1.00  0.00     0.028 A 
HETATM    4  C3  UNL     1      22.342   0.753  51.375  1.00  0.00     0.047 A 
HETATM    5  C4  UNL     1      23.704   1.642  51.304  1.00  0.00    -0.008 A 
HETATM    6  C5  UNL     1      22.882   1.726  50.861  1.00  0.00     0.079 A 
HETATM    7  C6  UNL     1      21.711   1.845  50.231  1.00  0.00     0.043 A 
HETATM    8  C7  UNL     1      21.522   3.093  49.354  1.00  0.00    -0.009 C 
HETATM    9  C8  UNL     1      20.331   3.768  49.599  1.00  0.00     0.033 C 
HETATM   10  C9  UNL     1      19.132   3.796  50.477  1.00  0.00     0.115 C 
HETATM   11  N2  UNL     1      19.098   3.380  51.750  1.00  0.00    -0.246 NA
HETATM   12  C10 UNL     1      20.372   2.852  52.426  1.00  0.00     0.125 C 
HETATM   13  N3  UNL     1      20.374   1.582  52.838  1.00  0.00    -0.256 NA
HETATM   14  C11 UNL     1      21.459   0.794  53.491  1.00  0.00     0.268 C 
HETATM   15  N4  UNL     1      22.108  -0.271  52.601  1.00  0.00    -0.393 N 
HETATM   16  C12 UNL     1      21.235   4.169  52.360  1.00  0.00     0.107 C 
HETATM   17  C13 UNL     1      22.449   4.188  51.521  1.00  0.00    -0.023 C 
HETATM   18  C14 UNL     1      23.562   4.096  50.722  1.00  0.00    -0.025 C 
HETATM   19  C15 UNL     1      23.815   2.653  50.147  1.00  0.00     0.017 A 
HETATM   20  C16 UNL     1      22.871   2.744  48.872  1.00  0.00     0.019 C 
HETATM   21  H1  UNL     1      19.322   1.692  48.488  1.00  0.00     0.156 HD
HETATM   22  H2  UNL     1      18.449   1.006  50.098  1.00  0.00     0.156 HD
HETATM   23  H9  UNL     1      22.378  -1.239  52.428  1.00  0.00     0.155 HD
ENDROOT
TORSDOF 0
ENDMDL
MODEL 8
REMARK VINA RESULT:      -6.7      2.083      3.331
REMARK  0 active torsions:
REMARK  status: ('A' for Active; 'I' for Inactive)
ROOT
HETATM    1  N1  UNL     1      20.271   5.951  50.068  1.00  0.00    -0.402 N 
HETATM    2  C1  UNL     1      21.305   5.605  50.751  1.00  0.00     0.014 A 
HETATM    3  C2  UNL     1      22.422   6.326  51.300  1.00  0.00     0.028 A 
HETATM    4  C3  UNL     1      23.325   5.359  52.035  1.00  0.00     0.047 A 
HETATM    5  C4  UNL     1      23.834   3.929  52.622  1.00  0.00    -0.008 A 
HETATM    6  C5  UNL     1      23.082   4.160  52.113  1.00  0.00     0.079 A 
HETATM    7  C6  UNL     1      22.011   4.491  51.388  1.00  0.00     0.043 A 
HETATM    8  C7  UNL     1      21.126   3.335  50.896  1.00  0.00    -0.009 C 
HETATM    9  C8  UNL     1      20.833   3.399  49.538  1.00  0.00     0.033 C 
HETATM   10  C9  UNL     1      21.114   4.154  48.289  1.00  0.00     0.115 C 
HETATM   11  N2  UNL     1      22.254   4.804  48.021  1.00  0.00    -0.246 NA
HETATM   12  C10 UNL     1      23.415   4.779  49.027  1.00  0.00     0.125 C 
HETATM   13  N3  UNL     1      23.800   5.942  49.558  1.00  0.00    -0.256 NA
HETATM   14  C11 UNL     1      24.861   6.223  50.568  1.00  0.00     0.268 C 
HETATM   15  N4  UNL     1      24.343   6.609  51.957  1.00  0.00    -0.393 N 
HETATM   16  C12 UNL     1      23.711   3.231  49.003  1.00  0.00     0.107 C 
HETATM   17  C13 UNL     1      23.471   2.437  50.224  1.00  0.00    -0.023 C 
HETATM   18  C14 UNL     1      23.224   1.796  51.413  1.00  0.00    -0.025 C 
HETATM   19  C15 UNL     1      22.826   2.765  52.588  1.00  0.00     0.017 A 
HETATM   20  C16 UNL     1      21.269   2.865  52.286  1.00  0.00     0.019 C 
HETATM   21  H1  UNL     1      19.416   5.399  50.287  1.00  0.00     0.156 HD
HETATM   22  H2  UNL     1      20.505   6.760  49.401  1.00  0.00     0.156 HD
HETATM   23  H9  UNL     1      24.312   7.257  52.744  1.00  0.00     0.155 HD
ENDROOT
TORSDOF 0
ENDMDL
MODEL 9
REMARK VINA RESULT:      -6.7      9.194     11.257
REMARK  0 active torsions:
REMARK  status: ('A' for Active; 'I' for Inactive)
ROOT
HETATM    1  N1  UNL     1      31.582   8.260  45.330  1.00  0.00    -0.402 N 
HETATM    2  C1  UNL     1      31.594   7.258  46.137  1.00  0.00     0.014 A 
HETATM    3  C2  UNL     1      30.833   6.915  47.308  1.00  0.00     0.028 A 
HETATM    4  C3  UNL     1      31.301   5.573  47.828  1.00  0.00     0.047 A 
HETATM    5  C4  UNL     1      32.178   4.203  47.877  1.00  0.00    -0.008 A 
HETATM    6  C5  UNL     1      32.193   4.930  47.286  1.00  0.00     0.079 A 
HETATM    7  C6  UNL     1      32.213   5.967  46.445  1.00  0.00     0.043 A 
HETATM    8  C7  UNL     1      33.320   5.971  45.380  1.00  0.00    -0.009 C 
HETATM    9  C8  UNL     1      34.017   7.173  45.308  1.00  0.00     0.033 C 
HETATM   10  C9  UNL     1      34.164   8.509  45.943  1.00  0.00     0.115 C 
HETATM   11  N2  UNL     1      33.936   8.778  47.236  1.00  0.00    -0.246 NA
HETATM   12  C10 UNL     1      33.518   7.656  48.198  1.00  0.00     0.125 C 
HETATM   13  N3  UNL     1      32.321   7.753  48.781  1.00  0.00    -0.256 NA
HETATM   14  C11 UNL     1      31.642   6.818  49.723  1.00  0.00     0.268 C 
HETATM   15  N4  UNL     1      30.463   6.042  49.126  1.00  0.00    -0.393 N 
HETATM   16  C12 UNL     1      34.817   6.769  48.100  1.00  0.00     0.107 C 
HETATM   17  C13 UNL     1      34.722   5.424  47.499  1.00  0.00    -0.023 C 
HETATM   18  C14 UNL     1      34.522   4.189  46.934  1.00  0.00    -0.025 C 
HETATM   19  C15 UNL     1      33.012   3.866  46.626  1.00  0.00     0.017 A 
HETATM   20  C16 UNL     1      32.914   4.565  45.202  1.00  0.00     0.019 C 
HETATM   21  H1  UNL     1      31.796   8.010  44.342  1.00  0.00     0.156 HD
HETATM   22  H2  UNL     1      31.344   9.169  45.850  1.00  0.00     0.156 HD
HETATM   23  H9  UNL     1      29.482   5.765  49.145  1.00  0.00     0.155 HD
ENDROOT
TORSDOF 0
ENDMDL
