MODEL 1
REMARK VINA RESULT:      -7.9      0.000      0.000
REMARK  5 active torsions:
REMARK  status: ('A' for Active; 'I' for Inactive)
REMARK    1  A    between atoms: N1_3  and  C3_4 
REMARK    2  A    between atoms: C14_18  and  O1_19 
REMARK    3  A    between atoms: O1_19  and  C15_20 
REMARK    4  A    between atoms: C15_20  and  C16_21 
REMARK    5  A    between atoms: C16_21  and  N5_22 
ROOT
HETATM    1  C1  UNL     1      24.718   2.019  52.771  1.00  0.00     0.028 C 
HETATM    2  C2  UNL     1      24.953   2.973  51.913  1.00  0.00     0.130 C 
HETATM    3  N1  UNL     1      24.169   3.294  50.771  1.00  0.00    -0.164 N 
HETATM    4  C12 UNL     1      23.132   2.375  50.457  1.00  0.00     0.117 C 
HETATM    5  C13 UNL     1      22.991   1.304  51.255  1.00  0.00     0.056 C 
HETATM    6  C14 UNL     1      23.872   1.099  52.402  1.00  0.00     0.082 C 
ENDROOT
BRANCH   3   7
HETATM    7  C3  UNL     1      24.452   4.458  50.044  1.00  0.00     0.733 A 
HETATM    8  N2  UNL     1      23.451   5.327  49.825  1.00  0.00    -0.074 NA
HETATM    9  C4  UNL     1      23.653   6.462  49.134  1.00  0.00     0.139 A 
HETATM   10  C5  UNL     1      24.919   6.737  48.642  1.00  0.00     0.053 A 
HETATM   11  C6  UNL     1      25.951   5.867  48.855  1.00  0.00     0.089 A 
HETATM   12  C7  UNL     1      27.281   6.110  48.364  1.00  0.00     0.011 A 
HETATM   13  N4  UNL     1      25.662   4.753  49.556  1.00  0.00    -0.062 NA
HETATM   14  C8  UNL     1      27.667   7.204  47.648  1.00  0.00     0.017 A 
HETATM   15  C11 UNL     1      28.286   5.184  48.614  1.00  0.00     0.130 A 
HETATM   16  C9  UNL     1      28.977   7.352  47.215  1.00  0.00     0.020 A 
HETATM   17  C10 UNL     1      29.918   6.387  47.505  1.00  0.00     0.116 A 
HETATM   18  N3  UNL     1      29.574   5.279  48.217  1.00  0.00    -0.272 NA
ENDBRANCH   3   7
BRANCH   6  19
HETATM   19  O1  UNL     1      23.804  -0.113  53.116  1.00  0.00    -0.349 OA
BRANCH  19  20
HETATM   20  C15 UNL     1      24.839  -0.465  54.012  1.00  0.00     0.196 C 
BRANCH  20  21
HETATM   21  C16 UNL     1      25.959  -1.129  53.239  1.00  0.00     0.156 C 
BRANCH  21  22
HETATM   22  N5  UNL     1      27.208  -0.568  53.723  1.00  0.00    -0.348 N 
HETATM   23  C17 UNL     1      28.456  -0.744  53.269  1.00  0.00     0.111 A 
HETATM   24  C18 UNL     1      29.312   0.003  54.062  1.00  0.00     0.135 A 
HETATM   25  N6  UNL     1      28.559   0.636  55.007  1.00  0.00    -0.255 NA
HETATM   26  C19 UNL     1      27.275   0.262  54.767  1.00  0.00     0.209 A 
ENDBRANCH  21  22
ENDBRANCH  20  21
ENDBRANCH  19  20
ENDBRANCH   6  19
TORSDOF 5
ENDMDL
MODEL 2
REMARK VINA RESULT:      -7.9      2.804      8.330
REMARK  5 active torsions:
REMARK  status: ('A' for Active; 'I' for Inactive)
REMARK    1  A    between atoms: N1_3  and  C3_4 
REMARK    2  A    between atoms: C14_18  and  O1_19 
REMARK    3  A    between atoms: O1_19  and  C15_20 
REMARK    4  A    between atoms: C15_20  and  C16_21 
REMARK    5  A    between atoms: C16_21  and  N5_22 
ROOT
HETATM    1  C1  UNL     1      26.996   4.546  48.923  1.00  0.00     0.028 C 
HETATM    2  C2  UNL     1      26.834   3.590  49.795  1.00  0.00     0.130 C 
HETATM    3  N1  UNL     1      25.692   3.379  50.615  1.00  0.00    -0.164 N 
HETATM    4  C12 UNL     1      24.715   4.411  50.588  1.00  0.00     0.117 C 
HETATM    5  C13 UNL     1      24.958   5.474  49.803  1.00  0.00     0.056 C 
HETATM    6  C14 UNL     1      26.181   5.558  49.009  1.00  0.00     0.082 C 
ENDROOT
BRANCH   3   7
HETATM    7  C3  UNL     1      25.595   2.208  51.377  1.00  0.00     0.733 A 
HETATM    8  N2  UNL     1      26.703   1.465  51.540  1.00  0.00    -0.074 NA
HETATM    9  C4  UNL     1      26.680   0.330  52.259  1.00  0.00     0.139 A 
HETATM   10  C5  UNL     1      25.490  -0.077  52.841  1.00  0.00     0.053 A 
HETATM   11  C6  UNL     1      24.353   0.664  52.689  1.00  0.00     0.089 A 
HETATM   12  C7  UNL     1      23.097   0.281  53.275  1.00  0.00     0.011 A 
HETATM   13  N4  UNL     1      24.463   1.788  51.952  1.00  0.00    -0.062 NA
HETATM   14  C8  UNL     1      22.889  -0.832  54.032  1.00  0.00     0.017 A 
HETATM   15  C11 UNL     1      21.977   1.080  53.081  1.00  0.00     0.130 A 
HETATM   16  C9  UNL     1      21.637  -1.120  54.557  1.00  0.00     0.020 A 
HETATM   17  C10 UNL     1      20.573  -0.276  54.319  1.00  0.00     0.116 A 
HETATM   18  N3  UNL     1      20.738   0.847  53.568  1.00  0.00    -0.272 NA
ENDBRANCH   3   7
BRANCH   6  19
HETATM   19  O1  UNL     1      26.480   6.755  48.330  1.00  0.00    -0.349 OA
BRANCH  19  20
HETATM   20  C15 UNL     1      27.581   7.544  48.738  1.00  0.00     0.196 C 
BRANCH  20  21
HETATM   21  C16 UNL     1      28.680   7.432  47.704  1.00  0.00     0.156 C 
BRANCH  21  22
HETATM   22  N5  UNL     1      29.920   7.181  48.417  1.00  0.00    -0.348 N 
HETATM   23  C17 UNL     1      30.581   6.032  48.605  1.00  0.00     0.111 A 
HETATM   24  C18 UNL     1      31.716   6.304  49.353  1.00  0.00     0.135 A 
HETATM   25  N6  UNL     1      31.730   7.643  49.615  1.00  0.00    -0.255 NA
HETATM   26  C19 UNL     1      30.614   8.147  49.026  1.00  0.00     0.209 A 
ENDBRANCH  21  22
ENDBRANCH  20  21
ENDBRANCH  19  20
ENDBRANCH   6  19
TORSDOF 5
ENDMDL
MODEL 3
REMARK VINA RESULT:      -7.8      2.611      7.727
REMARK  5 active torsions:
REMARK  status: ('A' for Active; 'I' for Inactive)
REMARK    1  A    between atoms: N1_3  and  C3_4 
REMARK    2  A    between atoms: C14_18  and  O1_19 
REMARK    3  A    between atoms: O1_19  and  C15_20 
REMARK    4  A    between atoms: C15_20  and  C16_21 
REMARK    5  A    between atoms: C16_21  and  N5_22 
ROOT
HETATM    1  C1  UNL     1      28.149   5.638  48.236  1.00  0.00     0.028 C 
HETATM    2  C2  UNL     1      27.387   4.790  48.869  1.00  0.00     0.130 C 
HETATM    3  N1  UNL     1      26.147   5.078  49.503  1.00  0.00    -0.164 N 
HETATM    4  C12 UNL     1      25.804   6.454  49.590  1.00  0.00     0.117 C 
HETATM    5  C13 UNL     1      26.670   7.342  49.073  1.00  0.00     0.056 C 
HETATM    6  C14 UNL     1      27.914   6.902  48.446  1.00  0.00     0.082 C 
ENDROOT
BRANCH   3   7
HETATM    7  C3  UNL     1      25.360   4.027  49.991  1.00  0.00     0.733 A 
HETATM    8  N2  UNL     1      24.196   3.767  49.373  1.00  0.00    -0.074 NA
HETATM    9  C4  UNL     1      23.393   2.773  49.789  1.00  0.00     0.139 A 
HETATM   10  C5  UNL     1      23.777   2.006  50.877  1.00  0.00     0.053 A 
HETATM   11  C6  UNL     1      24.957   2.252  51.520  1.00  0.00     0.089 A 
HETATM   12  C7  UNL     1      25.396   1.482  52.652  1.00  0.00     0.011 A 
HETATM   13  N4  UNL     1      25.701   3.267  51.038  1.00  0.00    -0.062 NA
HETATM   14  C8  UNL     1      24.713   0.442  53.208  1.00  0.00     0.017 A 
HETATM   15  C11 UNL     1      26.607   1.786  53.261  1.00  0.00     0.130 A 
HETATM   16  C9  UNL     1      25.218  -0.244  54.303  1.00  0.00     0.020 A 
HETATM   17  C10 UNL     1      26.430   0.118  54.852  1.00  0.00     0.116 A 
HETATM   18  N3  UNL     1      27.144   1.152  54.326  1.00  0.00    -0.272 NA
ENDBRANCH   3   7
BRANCH   6  19
HETATM   19  O1  UNL     1      28.871   7.863  48.065  1.00  0.00    -0.349 OA
BRANCH  19  20
HETATM   20  C15 UNL     1      29.836   8.307  48.998  1.00  0.00     0.196 C 
BRANCH  20  21
HETATM   21  C16 UNL     1      31.208   8.235  48.362  1.00  0.00     0.156 C 
BRANCH  21  22
HETATM   22  N5  UNL     1      31.514   6.831  48.152  1.00  0.00    -0.348 N 
HETATM   23  C17 UNL     1      31.689   6.157  47.008  1.00  0.00     0.111 A 
HETATM   24  C18 UNL     1      31.963   4.836  47.325  1.00  0.00     0.135 A 
HETATM   25  N6  UNL     1      31.951   4.722  48.684  1.00  0.00    -0.255 NA
HETATM   26  C19 UNL     1      31.672   5.965  49.157  1.00  0.00     0.209 A 
ENDBRANCH  21  22
ENDBRANCH  20  21
ENDBRANCH  19  20
ENDBRANCH   6  19
TORSDOF 5
ENDMDL
MODEL 4
REMARK VINA RESULT:      -7.7      3.187      8.856
REMARK  5 active torsions:
REMARK  status: ('A' for Active; 'I' for Inactive)
REMARK    1  A    between atoms: N1_3  and  C3_4 
REMARK    2  A    between atoms: C14_18  and  O1_19 
REMARK    3  A    between atoms: O1_19  and  C15_20 
REMARK    4  A    between atoms: C15_20  and  C16_21 
REMARK    5  A    between atoms: C16_21  and  N5_22 
ROOT
HETATM    1  C1  UNL     1      26.914   4.711  48.918  1.00  0.00     0.028 C 
HETATM    2  C2  UNL     1      26.769   3.750  49.788  1.00  0.00     0.130 C 
HETATM    3  N1  UNL     1      25.605   3.477  50.558  1.00  0.00    -0.164 N 
HETATM    4  C12 UNL     1      24.574   4.451  50.484  1.00  0.00     0.117 C 
HETATM    5  C13 UNL     1      24.791   5.525  49.705  1.00  0.00     0.056 C 
HETATM    6  C14 UNL     1      26.041   5.677  48.965  1.00  0.00     0.082 C 
ENDROOT
BRANCH   3   7
HETATM    7  C3  UNL     1      25.541   2.304  51.321  1.00  0.00     0.733 A 
HETATM    8  N2  UNL     1      26.669   1.592  51.483  1.00  0.00    -0.074 NA
HETATM    9  C4  UNL     1      26.679   0.456  52.203  1.00  0.00     0.139 A 
HETATM   10  C5  UNL     1      25.501   0.016  52.785  1.00  0.00     0.053 A 
HETATM   11  C6  UNL     1      24.343   0.725  52.632  1.00  0.00     0.089 A 
HETATM   12  C7  UNL     1      23.098   0.308  53.218  1.00  0.00     0.011 A 
HETATM   13  N4  UNL     1      24.422   1.851  51.895  1.00  0.00    -0.062 NA
HETATM   14  C8  UNL     1      22.921  -0.811  53.975  1.00  0.00     0.017 A 
HETATM   15  C11 UNL     1      21.956   1.074  53.024  1.00  0.00     0.130 A 
HETATM   16  C9  UNL     1      21.678  -1.134  54.500  1.00  0.00     0.020 A 
HETATM   17  C10 UNL     1      20.591  -0.321  54.262  1.00  0.00     0.116 A 
HETATM   18  N3  UNL     1      20.724   0.807  53.510  1.00  0.00    -0.272 NA
ENDBRANCH   3   7
BRANCH   6  19
HETATM   19  O1  UNL     1      26.302   6.887  48.294  1.00  0.00    -0.349 OA
BRANCH  19  20
HETATM   20  C15 UNL     1      27.573   7.496  48.403  1.00  0.00     0.196 C 
BRANCH  20  21
HETATM   21  C16 UNL     1      27.509   8.594  49.443  1.00  0.00     0.156 C 
BRANCH  21  22
HETATM   22  N5  UNL     1      28.643   9.471  49.216  1.00  0.00    -0.348 N 
HETATM   23  C17 UNL     1      28.668  10.776  48.916  1.00  0.00     0.111 A 
HETATM   24  C18 UNL     1      29.992  11.166  48.796  1.00  0.00     0.135 A 
HETATM   25  N6  UNL     1      30.772  10.071  49.031  1.00  0.00    -0.255 NA
HETATM   26  C19 UNL     1      29.910   9.051  49.284  1.00  0.00     0.209 A 
ENDBRANCH  21  22
ENDBRANCH  20  21
ENDBRANCH  19  20
ENDBRANCH   6  19
TORSDOF 5
ENDMDL
MODEL 5
REMARK VINA RESULT:      -7.5      1.212      1.915
REMARK  5 active torsions:
REMARK  status: ('A' for Active; 'I' for Inactive)
REMARK    1  A    between atoms: N1_3  and  C3_4 
REMARK    2  A    between atoms: C14_18  and  O1_19 
REMARK    3  A    between atoms: O1_19  and  C15_20 
REMARK    4  A    between atoms: C15_20  and  C16_21 
REMARK    5  A    between atoms: C16_21  and  N5_22 
ROOT
HETATM    1  C1  UNL     1      23.361   2.844  50.503  1.00  0.00     0.028 C 
HETATM    2  C2  UNL     1      23.947   3.897  50.004  1.00  0.00     0.130 C 
HETATM    3  N1  UNL     1      25.348   4.118  49.909  1.00  0.00    -0.164 N 
HETATM    4  C12 UNL     1      26.169   3.169  50.575  1.00  0.00     0.117 C 
HETATM    5  C13 UNL     1      25.554   2.166  51.224  1.00  0.00     0.056 C 
HETATM    6  C14 UNL     1      24.097   2.061  51.239  1.00  0.00     0.082 C 
ENDROOT
BRANCH   3   7
HETATM    7  C3  UNL     1      25.826   5.221  49.189  1.00  0.00     0.733 A 
HETATM    8  N2  UNL     1      24.957   6.194  48.870  1.00  0.00    -0.074 NA
HETATM    9  C4  UNL     1      25.349   7.279  48.179  1.00  0.00     0.139 A 
HETATM   10  C5  UNL     1      26.675   7.391  47.793  1.00  0.00     0.053 A 
HETATM   11  C6  UNL     1      27.575   6.413  48.108  1.00  0.00     0.089 A 
HETATM   12  C7  UNL     1      28.960   6.487  47.729  1.00  0.00     0.011 A 
HETATM   13  N4  UNL     1      27.099   5.360  48.801  1.00  0.00    -0.062 NA
HETATM   14  C8  UNL     1      29.531   7.508  47.030  1.00  0.00     0.017 A 
HETATM   15  C11 UNL     1      29.824   5.457  48.080  1.00  0.00     0.130 A 
HETATM   16  C9  UNL     1      30.881   7.491  46.709  1.00  0.00     0.020 A 
HETATM   17  C10 UNL     1      31.674   6.432  47.094  1.00  0.00     0.116 A 
HETATM   18  N3  UNL     1      31.143   5.390  47.793  1.00  0.00    -0.272 NA
ENDBRANCH   3   7
BRANCH   6  19
HETATM   19  O1  UNL     1      23.484   1.098  52.063  1.00  0.00    -0.349 OA
BRANCH  19  20
HETATM   20  C15 UNL     1      23.996   0.846  53.357  1.00  0.00     0.196 C 
BRANCH  20  21
HETATM   21  C16 UNL     1      24.445  -0.597  53.440  1.00  0.00     0.156 C 
BRANCH  21  22
HETATM   22  N5  UNL     1      25.889  -0.591  53.602  1.00  0.00    -0.348 N 
HETATM   23  C17 UNL     1      26.841  -1.071  52.793  1.00  0.00     0.111 A 
HETATM   24  C18 UNL     1      28.071  -0.827  53.384  1.00  0.00     0.135 A 
HETATM   25  N6  UNL     1      27.845  -0.188  54.568  1.00  0.00    -0.255 NA
HETATM   26  C19 UNL     1      26.496  -0.061  54.668  1.00  0.00     0.209 A 
ENDBRANCH  21  22
ENDBRANCH  20  21
ENDBRANCH  19  20
ENDBRANCH   6  19
TORSDOF 5
ENDMDL
MODEL 6
REMARK VINA RESULT:      -7.3      5.198      8.723
REMARK  5 active torsions:
REMARK  status: ('A' for Active; 'I' for Inactive)
REMARK    1  A    between atoms: N1_3  and  C3_4 
REMARK    2  A    between atoms: C14_18  and  O1_19 
REMARK    3  A    between atoms: O1_19  and  C15_20 
REMARK    4  A    between atoms: C15_20  and  C16_21 
REMARK    5  A    between atoms: C16_21  and  N5_22 
ROOT
HETATM    1  C1  UNL     1      20.625  -0.486  54.213  1.00  0.00     0.028 C 
HETATM    2  C2  UNL     1      21.879  -0.146  54.102  1.00  0.00     0.130 C 
HETATM    3  N1  UNL     1      22.472   0.552  53.013  1.00  0.00    -0.164 N 
HETATM    4  C12 UNL     1      21.641   0.740  51.877  1.00  0.00     0.117 C 
HETATM    5  C13 UNL     1      20.392   0.249  51.934  1.00  0.00     0.056 C 
HETATM    6  C14 UNL     1      19.912  -0.450  53.124  1.00  0.00     0.082 C 
ENDROOT
BRANCH   3   7
HETATM    7  C3  UNL     1      23.795   0.999  53.118  1.00  0.00     0.733 A 
HETATM    8  N2  UNL     1      24.010   2.321  53.220  1.00  0.00    -0.074 NA
HETATM    9  C4  UNL     1      25.256   2.818  53.323  1.00  0.00     0.139 A 
HETATM   10  C5  UNL     1      26.333   1.946  53.323  1.00  0.00     0.053 A 
HETATM   11  C6  UNL     1      26.136   0.598  53.220  1.00  0.00     0.089 A 
HETATM   12  C7  UNL     1      27.222  -0.343  53.216  1.00  0.00     0.011 A 
HETATM   13  N4  UNL     1      24.856   0.185  53.121  1.00  0.00    -0.062 NA
HETATM   14  C8  UNL     1      28.543  -0.021  53.312  1.00  0.00     0.017 A 
HETATM   15  C11 UNL     1      26.953  -1.702  53.108  1.00  0.00     0.130 A 
HETATM   16  C9  UNL     1      29.524  -1.002  53.299  1.00  0.00     0.020 A 
HETATM   17  C10 UNL     1      29.176  -2.331  53.189  1.00  0.00     0.116 A 
HETATM   18  N3  UNL     1      27.867  -2.697  53.090  1.00  0.00    -0.272 NA
ENDBRANCH   3   7
BRANCH   6  19
HETATM   19  O1  UNL     1      18.661  -1.095  53.087  1.00  0.00    -0.349 OA
BRANCH  19  20
HETATM   20  C15 UNL     1      17.721  -0.758  52.085  1.00  0.00     0.196 C 
BRANCH  20  21
HETATM   21  C16 UNL     1      16.364  -0.564  52.726  1.00  0.00     0.156 C 
BRANCH  21  22
HETATM   22  N5  UNL     1      15.477  -1.573  52.173  1.00  0.00    -0.348 N 
HETATM   23  C17 UNL     1      15.444  -2.893  52.393  1.00  0.00     0.111 A 
HETATM   24  C18 UNL     1      14.416  -3.431  51.634  1.00  0.00     0.135 A 
HETATM   25  N6  UNL     1      13.826  -2.409  50.950  1.00  0.00    -0.255 NA
HETATM   26  C19 UNL     1      14.503  -1.286  51.305  1.00  0.00     0.209 A 
ENDBRANCH  21  22
ENDBRANCH  20  21
ENDBRANCH  19  20
ENDBRANCH   6  19
TORSDOF 5
ENDMDL
MODEL 7
REMARK VINA RESULT:      -7.3      3.027      7.914
REMARK  5 active torsions:
REMARK  status: ('A' for Active; 'I' for Inactive)
REMARK    1  A    between atoms: N1_3  and  C3_4 
REMARK    2  A    between atoms: C14_18  and  O1_19 
REMARK    3  A    between atoms: O1_19  and  C15_20 
REMARK    4  A    between atoms: C15_20  and  C16_21 
REMARK    5  A    between atoms: C16_21  and  N5_22 
ROOT
HETATM    1  C1  UNL     1      25.839   6.144  49.371  1.00  0.00     0.028 C 
HETATM    2  C2  UNL     1      24.778   5.551  49.844  1.00  0.00     0.130 C 
HETATM    3  N1  UNL     1      24.673   4.185  50.224  1.00  0.00    -0.164 N 
HETATM    4  C12 UNL     1      25.787   3.366  49.896  1.00  0.00     0.117 C 
HETATM    5  C13 UNL     1      26.820   3.950  49.265  1.00  0.00     0.056 C 
HETATM    6  C14 UNL     1      26.793   5.372  48.934  1.00  0.00     0.082 C 
ENDROOT
BRANCH   3   7
HETATM    7  C3  UNL     1      23.519   3.737  50.879  1.00  0.00     0.733 A 
HETATM    8  N2  UNL     1      22.377   4.417  50.685  1.00  0.00    -0.074 NA
HETATM    9  C4  UNL     1      21.233   4.042  51.283  1.00  0.00     0.139 A 
HETATM   10  C5  UNL     1      21.237   2.932  52.113  1.00  0.00     0.053 A 
HETATM   11  C6  UNL     1      22.387   2.225  52.323  1.00  0.00     0.089 A 
HETATM   12  C7  UNL     1      22.439   1.068  53.174  1.00  0.00     0.011 A 
HETATM   13  N4  UNL     1      23.489   2.670  51.685  1.00  0.00    -0.062 NA
HETATM   14  C8  UNL     1      21.382   0.546  53.858  1.00  0.00     0.017 A 
HETATM   15  C11 UNL     1      23.643   0.395  53.346  1.00  0.00     0.130 A 
HETATM   16  C9  UNL     1      21.529  -0.577  54.658  1.00  0.00     0.020 A 
HETATM   17  C10 UNL     1      22.758  -1.190  54.777  1.00  0.00     0.116 A 
HETATM   18  N3  UNL     1      23.841  -0.701  54.111  1.00  0.00    -0.272 NA
ENDBRANCH   3   7
BRANCH   6  19
HETATM   19  O1  UNL     1      27.814   5.912  48.129  1.00  0.00    -0.349 OA
BRANCH  19  20
HETATM   20  C15 UNL     1      29.126   5.390  48.206  1.00  0.00     0.196 C 
BRANCH  20  21
HETATM   21  C16 UNL     1      30.096   6.524  48.460  1.00  0.00     0.156 C 
BRANCH  21  22
HETATM   22  N5  UNL     1      31.437   5.979  48.343  1.00  0.00    -0.348 N 
HETATM   23  C17 UNL     1      32.592   6.437  48.843  1.00  0.00     0.111 A 
HETATM   24  C18 UNL     1      33.602   5.569  48.458  1.00  0.00     0.135 A 
HETATM   25  N6  UNL     1      33.037   4.575  47.715  1.00  0.00    -0.255 NA
HETATM   26  C19 UNL     1      31.709   4.860  47.665  1.00  0.00     0.209 A 
ENDBRANCH  21  22
ENDBRANCH  20  21
ENDBRANCH  19  20
ENDBRANCH   6  19
TORSDOF 5
ENDMDL
MODEL 8
REMARK VINA RESULT:      -7.2      6.354      9.749
REMARK  5 active torsions:
REMARK  status: ('A' for Active; 'I' for Inactive)
REMARK    1  A    between atoms: N1_3  and  C3_4 
REMARK    2  A    between atoms: C14_18  and  O1_19 
REMARK    3  A    between atoms: O1_19  and  C15_20 
REMARK    4  A    between atoms: C15_20  and  C16_21 
REMARK    5  A    between atoms: C16_21  and  N5_22 
ROOT
HETATM    1  C1  UNL     1      17.286  -1.218  53.171  1.00  0.00     0.028 C 
HETATM    2  C2  UNL     1      18.573  -1.280  53.376  1.00  0.00     0.130 C 
HETATM    3  N1  UNL     1      19.553  -0.382  52.871  1.00  0.00    -0.164 N 
HETATM    4  C12 UNL     1      19.088   0.567  51.921  1.00  0.00     0.117 C 
HETATM    5  C13 UNL     1      17.786   0.528  51.592  1.00  0.00     0.056 C 
HETATM    6  C14 UNL     1      16.887  -0.455  52.194  1.00  0.00     0.082 C 
ENDROOT
BRANCH   3   7
HETATM    7  C3  UNL     1      20.875  -0.478  53.322  1.00  0.00     0.733 A 
HETATM    8  N2  UNL     1      21.134  -1.294  54.357  1.00  0.00    -0.074 NA
HETATM    9  C4  UNL     1      22.381  -1.432  54.840  1.00  0.00     0.139 A 
HETATM   10  C5  UNL     1      23.415  -0.719  54.255  1.00  0.00     0.053 A 
HETATM   11  C6  UNL     1      23.174   0.116  53.201  1.00  0.00     0.089 A 
HETATM   12  C7  UNL     1      24.215   0.875  52.562  1.00  0.00     0.011 A 
HETATM   13  N4  UNL     1      21.896   0.197  52.780  1.00  0.00    -0.062 NA
HETATM   14  C8  UNL     1      25.530   0.859  52.916  1.00  0.00     0.017 A 
HETATM   15  C11 UNL     1      23.902   1.707  51.494  1.00  0.00     0.130 A 
HETATM   16  C9  UNL     1      26.465   1.628  52.240  1.00  0.00     0.020 A 
HETATM   17  C10 UNL     1      26.076   2.429  51.187  1.00  0.00     0.116 A 
HETATM   18  N3  UNL     1      24.770   2.475  50.801  1.00  0.00    -0.272 NA
ENDBRANCH   3   7
BRANCH   6  19
HETATM   19  O1  UNL     1      15.572  -0.576  51.705  1.00  0.00    -0.349 OA
BRANCH  19  20
HETATM   20  C15 UNL     1      14.706   0.542  51.722  1.00  0.00     0.196 C 
BRANCH  20  21
HETATM   21  C16 UNL     1      14.132   0.702  53.113  1.00  0.00     0.156 C 
BRANCH  21  22
HETATM   22  N5  UNL     1      13.686   2.079  53.240  1.00  0.00    -0.348 N 
HETATM   23  C17 UNL     1      12.481   2.559  53.570  1.00  0.00     0.111 A 
HETATM   24  C18 UNL     1      12.551   3.944  53.557  1.00  0.00     0.135 A 
HETATM   25  N6  UNL     1      13.825   4.293  53.214  1.00  0.00    -0.255 NA
HETATM   26  C19 UNL     1      14.491   3.124  53.027  1.00  0.00     0.209 A 
ENDBRANCH  21  22
ENDBRANCH  20  21
ENDBRANCH  19  20
ENDBRANCH   6  19
TORSDOF 5
ENDMDL
MODEL 9
REMARK VINA RESULT:      -7.2      3.020      7.566
REMARK  5 active torsions:
REMARK  status: ('A' for Active; 'I' for Inactive)
REMARK    1  A    between atoms: N1_3  and  C3_4 
REMARK    2  A    between atoms: C14_18  and  O1_19 
REMARK    3  A    between atoms: O1_19  and  C15_20 
REMARK    4  A    between atoms: C15_20  and  C16_21 
REMARK    5  A    between atoms: C16_21  and  N5_22 
ROOT
HETATM    1  C1  UNL     1      22.258   5.299  51.720  1.00  0.00     0.028 C 
HETATM    2  C2  UNL     1      22.678   4.197  52.275  1.00  0.00     0.130 C 
HETATM    3  N1  UNL     1      22.735   2.913  51.666  1.00  0.00    -0.164 N 
HETATM    4  C12 UNL     1      22.117   2.807  50.391  1.00  0.00     0.117 C 
HETATM    5  C13 UNL     1      21.545   3.913  49.887  1.00  0.00     0.056 C 
HETATM    6  C14 UNL     1      21.562   5.173  50.626  1.00  0.00     0.082 C 
ENDROOT
BRANCH   3   7
HETATM    7  C3  UNL     1      23.374   1.860  52.333  1.00  0.00     0.733 A 
HETATM    8  N2  UNL     1      22.676   0.733  52.554  1.00  0.00    -0.074 NA
HETATM    9  C4  UNL     1      23.228  -0.315  53.188  1.00  0.00     0.139 A 
HETATM   10  C5  UNL     1      24.542  -0.227  53.621  1.00  0.00     0.053 A 
HETATM   11  C6  UNL     1      25.270   0.909  53.406  1.00  0.00     0.089 A 
HETATM   12  C7  UNL     1      26.635   1.044  53.836  1.00  0.00     0.011 A 
HETATM   13  N4  UNL     1      24.640   1.912  52.763  1.00  0.00    -0.062 NA
HETATM   14  C8  UNL     1      27.353   0.089  54.490  1.00  0.00     0.017 A 
HETATM   15  C11 UNL     1      27.319   2.228  53.587  1.00  0.00     0.130 A 
HETATM   16  C9  UNL     1      28.669   0.312  54.867  1.00  0.00     0.020 A 
HETATM   17  C10 UNL     1      29.279   1.515  54.582  1.00  0.00     0.116 A 
HETATM   18  N3  UNL     1      28.598   2.497  53.930  1.00  0.00    -0.272 NA
ENDBRANCH   3   7
BRANCH   6  19
HETATM   19  O1  UNL     1      20.812   6.264  50.146  1.00  0.00    -0.349 OA
BRANCH  19  20
HETATM   20  C15 UNL     1      21.163   7.582  50.517  1.00  0.00     0.196 C 
BRANCH  20  21
HETATM   21  C16 UNL     1      21.846   8.260  49.349  1.00  0.00     0.156 C 
BRANCH  21  22
HETATM   22  N5  UNL     1      23.266   7.971  49.452  1.00  0.00    -0.348 N 
HETATM   23  C17 UNL     1      24.104   8.161  50.479  1.00  0.00     0.111 A 
HETATM   24  C18 UNL     1      25.363   7.726  50.093  1.00  0.00     0.135 A 
HETATM   25  N6  UNL     1      25.271   7.268  48.811  1.00  0.00    -0.255 NA
HETATM   26  C19 UNL     1      23.971   7.434  48.452  1.00  0.00     0.209 A 
ENDBRANCH  21  22
ENDBRANCH  20  21
ENDBRANCH  19  20
ENDBRANCH   6  19
TORSDOF 5
ENDMDL
