MODEL 1
REMARK VINA RESULT:      -7.4      0.000      0.000
REMARK  1 active torsions:
REMARK  status: ('A' for Active; 'I' for Inactive)
REMARK    1  A    between atoms: O1_2  and  C2_3 
ROOT
HETATM    1  C2  UNL     1      22.242   3.835  47.172  1.00  0.00     0.055 C 
HETATM    2  C3  UNL     1      22.015   2.555  47.532  1.00  0.00     0.126 C 
HETATM    3  C4  UNL     1      22.155   1.788  48.798  1.00  0.00    -0.001 C 
HETATM    4  C5  UNL     1      22.487   1.698  50.106  1.00  0.00     0.089 C 
HETATM    5  N1  UNL     1      22.989   2.771  50.878  1.00  0.00    -0.338 N 
HETATM    6  C6  UNL     1      22.538   3.183  52.173  1.00  0.00     0.279 C 
HETATM    7  N2  UNL     1      23.388   4.237  52.665  1.00  0.00    -0.263 NA
HETATM    8  C7  UNL     1      23.552   5.397  52.166  1.00  0.00     0.228 C 
HETATM    9  N3  UNL     1      22.879   5.797  51.011  1.00  0.00    -0.255 NA
HETATM   10  C8  UNL     1      21.948   6.643  50.888  1.00  0.00     0.118 C 
HETATM   11  C9  UNL     1      22.120   6.211  49.534  1.00  0.00     0.027 C 
HETATM   12  C10 UNL     1      22.914   5.384  48.927  1.00  0.00    -0.042 C 
HETATM   13  C11 UNL     1      22.670   5.286  47.445  1.00  0.00     0.072 C 
HETATM   14  C12 UNL     1      23.998   4.563  49.421  1.00  0.00    -0.002 A 
HETATM   15  C13 UNL     1      25.182   5.060  48.918  1.00  0.00     0.021 A 
HETATM   16  C14 UNL     1      26.443   4.509  49.185  1.00  0.00    -0.061 A 
HETATM   17  C15 UNL     1      27.737   5.030  48.649  1.00  0.00     0.048 C 
HETATM   18  C16 UNL     1      26.489   3.400  50.006  1.00  0.00     0.009 A 
HETATM   19  C17 UNL     1      25.296   2.912  50.504  1.00  0.00     0.031 A 
HETATM   20  C18 UNL     1      24.060   3.455  50.238  1.00  0.00     0.046 A 
ENDROOT
BRANCH   1  21
HETATM   21  O1  UNL     1      21.841   3.572  45.864  1.00  0.00    -0.389 OA
HETATM   22  C1  UNL     1      21.545   4.611  44.940  1.00  0.00     0.202 C 
ENDBRANCH   1  21
TORSDOF 1
ENDMDL
MODEL 2
REMARK VINA RESULT:      -7.1      2.740      4.966
REMARK  1 active torsions:
REMARK  status: ('A' for Active; 'I' for Inactive)
REMARK    1  A    between atoms: O1_2  and  C2_3 
ROOT
HETATM    1  C2  UNL     1      19.887   0.996  51.360  1.00  0.00     0.055 C 
HETATM    2  C3  UNL     1      19.297   2.100  51.859  1.00  0.00     0.126 C 
HETATM    3  C4  UNL     1      19.620   3.551  51.846  1.00  0.00    -0.001 C 
HETATM    4  C5  UNL     1      20.414   4.593  51.506  1.00  0.00     0.089 C 
HETATM    5  N1  UNL     1      21.625   4.472  50.787  1.00  0.00    -0.338 N 
HETATM    6  C6  UNL     1      22.029   5.239  49.647  1.00  0.00     0.279 C 
HETATM    7  N2  UNL     1      23.379   4.890  49.287  1.00  0.00    -0.263 NA
HETATM    8  C7  UNL     1      23.806   3.758  48.888  1.00  0.00     0.228 C 
HETATM    9  N3  UNL     1      22.953   2.663  48.748  1.00  0.00    -0.255 NA
HETATM   10  C8  UNL     1      22.553   2.098  47.691  1.00  0.00     0.118 C 
HETATM   11  C9  UNL     1      21.897   1.317  48.695  1.00  0.00     0.027 C 
HETATM   12  C10 UNL     1      21.877   1.318  49.993  1.00  0.00    -0.042 C 
HETATM   13  C11 UNL     1      20.990   0.256  50.586  1.00  0.00     0.072 C 
HETATM   14  C12 UNL     1      22.571   2.141  50.959  1.00  0.00    -0.002 A 
HETATM   15  C13 UNL     1      23.492   1.355  51.617  1.00  0.00     0.021 A 
HETATM   16  C14 UNL     1      24.345   1.820  52.628  1.00  0.00    -0.061 A 
HETATM   17  C15 UNL     1      25.349   0.985  53.354  1.00  0.00     0.048 C 
HETATM   18  C16 UNL     1      24.246   3.152  52.977  1.00  0.00     0.009 A 
HETATM   19  C17 UNL     1      23.319   3.930  52.310  1.00  0.00     0.031 A 
HETATM   20  C18 UNL     1      22.482   3.469  51.319  1.00  0.00     0.046 A 
ENDROOT
BRANCH   1  21
HETATM   21  O1  UNL     1      18.882   0.184  51.879  1.00  0.00    -0.389 OA
HETATM   22  C1  UNL     1      19.073  -0.606  53.045  1.00  0.00     0.202 C 
ENDBRANCH   1  21
TORSDOF 1
ENDMDL
MODEL 3
REMARK VINA RESULT:      -7.0      2.129      4.729
REMARK  1 active torsions:
REMARK  status: ('A' for Active; 'I' for Inactive)
REMARK    1  A    between atoms: O1_2  and  C2_3 
ROOT
HETATM    1  C2  UNL     1      26.731   5.475  49.067  1.00  0.00     0.055 C 
HETATM    2  C3  UNL     1      26.208   6.647  49.477  1.00  0.00     0.126 C 
HETATM    3  C4  UNL     1      25.143   7.032  50.441  1.00  0.00    -0.001 C 
HETATM    4  C5  UNL     1      24.180   6.723  51.340  1.00  0.00     0.089 C 
HETATM    5  N1  UNL     1      23.829   5.405  51.713  1.00  0.00    -0.338 N 
HETATM    6  C6  UNL     1      23.669   4.902  53.043  1.00  0.00     0.279 C 
HETATM    7  N2  UNL     1      23.190   3.544  52.989  1.00  0.00    -0.263 NA
HETATM    8  C7  UNL     1      23.786   2.532  52.497  1.00  0.00     0.228 C 
HETATM    9  N3  UNL     1      25.052   2.639  51.918  1.00  0.00    -0.255 NA
HETATM   10  C8  UNL     1      26.158   2.203  52.345  1.00  0.00     0.118 C 
HETATM   11  C9  UNL     1      26.554   2.831  51.122  1.00  0.00     0.027 C 
HETATM   12  C10 UNL     1      25.934   3.452  50.165  1.00  0.00    -0.042 C 
HETATM   13  C11 UNL     1      26.845   3.941  49.070  1.00  0.00     0.072 C 
HETATM   14  C12 UNL     1      24.530   3.734  49.960  1.00  0.00    -0.002 A 
HETATM   15  C13 UNL     1      24.090   2.988  48.888  1.00  0.00     0.021 A 
HETATM   16  C14 UNL     1      22.777   3.011  48.399  1.00  0.00    -0.061 A 
HETATM   17  C15 UNL     1      22.280   2.212  47.238  1.00  0.00     0.048 C 
HETATM   18  C16 UNL     1      21.875   3.837  49.042  1.00  0.00     0.009 A 
HETATM   19  C17 UNL     1      22.329   4.579  50.116  1.00  0.00     0.031 A 
HETATM   20  C18 UNL     1      23.621   4.555  50.592  1.00  0.00     0.046 A 
ENDROOT
BRANCH   1  21
HETATM   21  O1  UNL     1      27.605   6.130  48.203  1.00  0.00    -0.389 OA
HETATM   22  C1  UNL     1      29.000   5.860  48.188  1.00  0.00     0.202 C 
ENDBRANCH   1  21
TORSDOF 1
ENDMDL
MODEL 4
REMARK VINA RESULT:      -6.9      2.587      5.265
REMARK  1 active torsions:
REMARK  status: ('A' for Active; 'I' for Inactive)
REMARK    1  A    between atoms: O1_2  and  C2_3 
ROOT
HETATM    1  C2  UNL     1      25.806   1.431  52.198  1.00  0.00     0.055 C 
HETATM    2  C3  UNL     1      26.701   1.711  51.229  1.00  0.00     0.126 C 
HETATM    3  C4  UNL     1      26.779   2.725  50.144  1.00  0.00    -0.001 C 
HETATM    4  C5  UNL     1      26.276   3.774  49.454  1.00  0.00     0.089 C 
HETATM    5  N1  UNL     1      25.035   4.393  49.735  1.00  0.00    -0.338 N 
HETATM    6  C6  UNL     1      24.786   5.796  49.868  1.00  0.00     0.279 C 
HETATM    7  N2  UNL     1      23.372   6.019  50.034  1.00  0.00    -0.263 NA
HETATM    8  C7  UNL     1      22.634   5.624  50.994  1.00  0.00     0.228 C 
HETATM    9  N3  UNL     1      23.151   4.885  52.058  1.00  0.00    -0.255 NA
HETATM   10  C8  UNL     1      23.320   5.236  53.260  1.00  0.00     0.118 C 
HETATM   11  C9  UNL     1      23.801   3.888  53.287  1.00  0.00     0.027 C 
HETATM   12  C10 UNL     1      23.898   2.929  52.419  1.00  0.00    -0.042 C 
HETATM   13  C11 UNL     1      24.500   1.666  52.975  1.00  0.00     0.072 C 
HETATM   14  C12 UNL     1      23.511   2.857  51.027  1.00  0.00    -0.002 A 
HETATM   15  C13 UNL     1      22.452   1.980  50.916  1.00  0.00     0.021 A 
HETATM   16  C14 UNL     1      21.818   1.660  49.708  1.00  0.00    -0.061 A 
HETATM   17  C15 UNL     1      20.672   0.712  49.565  1.00  0.00     0.048 C 
HETATM   18  C16 UNL     1      22.292   2.269  48.562  1.00  0.00     0.009 A 
HETATM   19  C17 UNL     1      23.353   3.146  48.687  1.00  0.00     0.031 A 
HETATM   20  C18 UNL     1      23.974   3.457  49.876  1.00  0.00     0.046 A 
ENDROOT
BRANCH   1  21
HETATM   21  O1  UNL     1      26.585   0.373  52.657  1.00  0.00    -0.389 OA
HETATM   22  C1  UNL     1      26.018  -0.867  53.059  1.00  0.00     0.202 C 
ENDBRANCH   1  21
TORSDOF 1
ENDMDL
MODEL 5
REMARK VINA RESULT:      -6.8      2.244      4.540
REMARK  1 active torsions:
REMARK  status: ('A' for Active; 'I' for Inactive)
REMARK    1  A    between atoms: O1_2  and  C2_3 
ROOT
HETATM    1  C2  UNL     1      23.832   2.727  51.990  1.00  0.00     0.055 C 
HETATM    2  C3  UNL     1      23.307   3.732  52.720  1.00  0.00     0.126 C 
HETATM    3  C4  UNL     1      22.686   5.042  52.393  1.00  0.00    -0.001 C 
HETATM    4  C5  UNL     1      22.282   5.983  51.508  1.00  0.00     0.089 C 
HETATM    5  N1  UNL     1      22.434   5.877  50.106  1.00  0.00    -0.338 N 
HETATM    6  C6  UNL     1      21.431   6.115  49.113  1.00  0.00     0.279 C 
HETATM    7  N2  UNL     1      22.020   6.018  47.802  1.00  0.00    -0.263 NA
HETATM    8  C7  UNL     1      22.550   4.991  47.265  1.00  0.00     0.228 C 
HETATM    9  N3  UNL     1      22.620   3.770  47.935  1.00  0.00    -0.255 NA
HETATM   10  C8  UNL     1      21.990   2.699  47.702  1.00  0.00     0.118 C 
HETATM   11  C9  UNL     1      22.784   2.321  48.831  1.00  0.00     0.027 C 
HETATM   12  C10 UNL     1      23.676   2.910  49.566  1.00  0.00    -0.042 C 
HETATM   13  C11 UNL     1      24.222   2.042  50.669  1.00  0.00     0.072 C 
HETATM   14  C12 UNL     1      24.248   4.237  49.496  1.00  0.00    -0.002 A 
HETATM   15  C13 UNL     1      25.570   4.120  49.121  1.00  0.00     0.021 A 
HETATM   16  C14 UNL     1      26.440   5.206  48.956  1.00  0.00    -0.061 A 
HETATM   17  C15 UNL     1      27.875   5.102  48.552  1.00  0.00     0.048 C 
HETATM   18  C16 UNL     1      25.929   6.469  49.185  1.00  0.00     0.009 A 
HETATM   19  C17 UNL     1      24.603   6.572  49.561  1.00  0.00     0.031 A 
HETATM   20  C18 UNL     1      23.752   5.502  49.723  1.00  0.00     0.046 A 
ENDROOT
BRANCH   1  21
HETATM   21  O1  UNL     1      24.135   2.005  53.142  1.00  0.00    -0.389 OA
HETATM   22  C1  UNL     1      24.208   0.586  53.149  1.00  0.00     0.202 C 
ENDBRANCH   1  21
TORSDOF 1
ENDMDL
MODEL 6
REMARK VINA RESULT:      -6.6      7.789     11.058
REMARK  1 active torsions:
REMARK  status: ('A' for Active; 'I' for Inactive)
REMARK    1  A    between atoms: O1_2  and  C2_3 
ROOT
HETATM    1  C2  UNL     1      33.751   8.891  46.183  1.00  0.00     0.055 C 
HETATM    2  C3  UNL     1      34.604   8.807  47.224  1.00  0.00     0.126 C 
HETATM    3  C4  UNL     1      35.058   7.705  48.113  1.00  0.00    -0.001 C 
HETATM    4  C5  UNL     1      35.039   6.413  48.516  1.00  0.00     0.089 C 
HETATM    5  N1  UNL     1      34.239   5.406  47.928  1.00  0.00    -0.338 N 
HETATM    6  C6  UNL     1      34.665   4.104  47.513  1.00  0.00     0.279 C 
HETATM    7  N2  UNL     1      33.523   3.341  47.077  1.00  0.00    -0.263 NA
HETATM    8  C7  UNL     1      32.756   3.590  46.091  1.00  0.00     0.228 C 
HETATM    9  N3  UNL     1      32.954   4.704  45.274  1.00  0.00    -0.255 NA
HETATM   10  C8  UNL     1      33.349   4.747  44.074  1.00  0.00     0.118 C 
HETATM   11  C9  UNL     1      33.166   6.137  44.363  1.00  0.00     0.027 C 
HETATM   12  C10 UNL     1      32.754   6.816  45.389  1.00  0.00    -0.042 C 
HETATM   13  C11 UNL     1      32.754   8.305  45.170  1.00  0.00     0.072 C 
HETATM   14  C12 UNL     1      32.278   6.391  46.688  1.00  0.00    -0.002 A 
HETATM   15  C13 UNL     1      30.932   6.678  46.771  1.00  0.00     0.021 A 
HETATM   16  C14 UNL     1      30.138   6.407  47.894  1.00  0.00    -0.061 A 
HETATM   17  C15 UNL     1      28.679   6.711  48.006  1.00  0.00     0.048 C 
HETATM   18  C16 UNL     1      30.755   5.814  48.978  1.00  0.00     0.009 A 
HETATM   19  C17 UNL     1      32.104   5.532  48.882  1.00  0.00     0.031 A 
HETATM   20  C18 UNL     1      32.881   5.801  47.778  1.00  0.00     0.046 A 
ENDROOT
BRANCH   1  21
HETATM   21  O1  UNL     1      33.994  10.256  46.052  1.00  0.00    -0.389 OA
HETATM   22  C1  UNL     1      33.127  11.236  46.606  1.00  0.00     0.202 C 
ENDBRANCH   1  21
TORSDOF 1
ENDMDL
MODEL 7
REMARK VINA RESULT:      -6.6      4.539      6.870
REMARK  1 active torsions:
REMARK  status: ('A' for Active; 'I' for Inactive)
REMARK    1  A    between atoms: O1_2  and  C2_3 
ROOT
HETATM    1  C2  UNL     1      26.738   5.333  48.859  1.00  0.00     0.055 C 
HETATM    2  C3  UNL     1      27.927   4.769  48.568  1.00  0.00     0.126 C 
HETATM    3  C4  UNL     1      29.264   5.294  48.186  1.00  0.00    -0.001 C 
HETATM    4  C5  UNL     1      30.108   6.313  47.902  1.00  0.00     0.089 C 
HETATM    5  N1  UNL     1      29.741   7.679  47.907  1.00  0.00    -0.338 N 
HETATM    6  C6  UNL     1      30.441   8.754  48.541  1.00  0.00     0.279 C 
HETATM    7  N2  UNL     1      29.806  10.003  48.208  1.00  0.00    -0.263 NA
HETATM    8  C7  UNL     1      28.624  10.374  48.503  1.00  0.00     0.228 C 
HETATM    9  N3  UNL     1      27.761   9.554  49.230  1.00  0.00    -0.255 NA
HETATM   10  C8  UNL     1      27.347   9.691  50.416  1.00  0.00     0.118 C 
HETATM   11  C9  UNL     1      26.698   8.476  50.027  1.00  0.00     0.027 C 
HETATM   12  C10 UNL     1      26.649   7.766  48.942  1.00  0.00    -0.042 C 
HETATM   13  C11 UNL     1      25.796   6.531  49.063  1.00  0.00     0.072 C 
HETATM   14  C12 UNL     1      27.251   7.965  47.642  1.00  0.00    -0.002 A 
HETATM   15  C13 UNL     1      26.247   8.240  46.737  1.00  0.00     0.021 A 
HETATM   16  C14 UNL     1      26.462   8.485  45.374  1.00  0.00    -0.061 A 
HETATM   17  C15 UNL     1      25.389   8.782  44.377  1.00  0.00     0.048 C 
HETATM   18  C16 UNL     1      27.766   8.447  44.921  1.00  0.00     0.009 A 
HETATM   19  C17 UNL     1      28.763   8.170  45.837  1.00  0.00     0.031 A 
HETATM   20  C18 UNL     1      28.547   7.929  47.175  1.00  0.00     0.046 A 
ENDROOT
BRANCH   1  21
HETATM   21  O1  UNL     1      26.158   4.084  49.065  1.00  0.00    -0.389 OA
HETATM   22  C1  UNL     1      25.124   3.876  50.017  1.00  0.00     0.202 C 
ENDBRANCH   1  21
TORSDOF 1
ENDMDL
MODEL 8
REMARK VINA RESULT:      -6.5      8.016     11.414
REMARK  1 active torsions:
REMARK  status: ('A' for Active; 'I' for Inactive)
REMARK    1  A    between atoms: O1_2  and  C2_3 
ROOT
HETATM    1  C2  UNL     1      33.225   7.574  44.379  1.00  0.00     0.055 C 
HETATM    2  C3  UNL     1      33.755   8.689  44.921  1.00  0.00     0.126 C 
HETATM    3  C4  UNL     1      34.419   9.005  46.213  1.00  0.00    -0.001 C 
HETATM    4  C5  UNL     1      34.870   8.654  47.439  1.00  0.00     0.089 C 
HETATM    5  N1  UNL     1      34.754   7.356  47.990  1.00  0.00    -0.338 N 
HETATM    6  C6  UNL     1      35.791   6.595  48.619  1.00  0.00     0.279 C 
HETATM    7  N2  UNL     1      35.236   5.377  49.152  1.00  0.00    -0.263 NA
HETATM    8  C7  UNL     1      34.695   4.423  48.503  1.00  0.00     0.228 C 
HETATM    9  N3  UNL     1      34.576   4.460  47.114  1.00  0.00    -0.255 NA
HETATM   10  C8  UNL     1      35.184   3.771  46.246  1.00  0.00     0.118 C 
HETATM   11  C9  UNL     1      34.350   4.593  45.423  1.00  0.00     0.027 C 
HETATM   12  C10 UNL     1      33.453   5.504  45.643  1.00  0.00    -0.042 C 
HETATM   13  C11 UNL     1      32.855   6.081  44.387  1.00  0.00     0.072 C 
HETATM   14  C12 UNL     1      32.917   6.041  46.875  1.00  0.00    -0.002 A 
HETATM   15  C13 UNL     1      31.604   5.636  46.988  1.00  0.00     0.021 A 
HETATM   16  C14 UNL     1      30.767   5.974  48.060  1.00  0.00    -0.061 A 
HETATM   17  C15 UNL     1      29.341   5.549  48.203  1.00  0.00     0.048 C 
HETATM   18  C16 UNL     1      31.303   6.762  49.060  1.00  0.00     0.009 A 
HETATM   19  C17 UNL     1      32.621   7.160  48.934  1.00  0.00     0.031 A 
HETATM   20  C18 UNL     1      33.439   6.827  47.879  1.00  0.00     0.046 A 
ENDROOT
BRANCH   1  21
HETATM   21  O1  UNL     1      32.872   8.264  43.223  1.00  0.00    -0.389 OA
HETATM   22  C1  UNL     1      33.814   9.019  42.473  1.00  0.00     0.202 C 
ENDBRANCH   1  21
TORSDOF 1
ENDMDL
MODEL 9
REMARK VINA RESULT:      -6.2      7.235     10.453
REMARK  1 active torsions:
REMARK  status: ('A' for Active; 'I' for Inactive)
REMARK    1  A    between atoms: O1_2  and  C2_3 
ROOT
HETATM    1  C2  UNL     1      32.827   4.221  46.421  1.00  0.00     0.055 C 
HETATM    2  C3  UNL     1      32.910   4.394  45.087  1.00  0.00     0.126 C 
HETATM    3  C4  UNL     1      32.874   5.575  44.185  1.00  0.00    -0.001 C 
HETATM    4  C5  UNL     1      32.766   6.906  43.967  1.00  0.00     0.089 C 
HETATM    5  N1  UNL     1      32.580   7.869  44.986  1.00  0.00    -0.338 N 
HETATM    6  C6  UNL     1      33.309   9.089  45.159  1.00  0.00     0.279 C 
HETATM    7  N2  UNL     1      32.733   9.844  46.242  1.00  0.00    -0.263 NA
HETATM    8  C7  UNL     1      32.668   9.510  47.470  1.00  0.00     0.228 C 
HETATM    9  N3  UNL     1      33.183   8.296  47.926  1.00  0.00    -0.255 NA
HETATM   10  C8  UNL     1      34.199   8.087  48.648  1.00  0.00     0.118 C 
HETATM   11  C9  UNL     1      33.729   6.753  48.425  1.00  0.00     0.027 C 
HETATM   12  C10 UNL     1      32.721   6.226  47.800  1.00  0.00    -0.042 C 
HETATM   13  C11 UNL     1      32.685   4.723  47.868  1.00  0.00     0.072 C 
HETATM   14  C12 UNL     1      31.625   6.829  47.074  1.00  0.00    -0.002 A 
HETATM   15  C13 UNL     1      30.464   6.618  47.788  1.00  0.00     0.021 A 
HETATM   16  C14 UNL     1      29.199   7.062  47.381  1.00  0.00    -0.061 A 
HETATM   17  C15 UNL     1      27.929   6.842  48.138  1.00  0.00     0.048 C 
HETATM   18  C16 UNL     1      29.123   7.756  46.189  1.00  0.00     0.009 A 
HETATM   19  C17 UNL     1      30.294   7.961  45.484  1.00  0.00     0.031 A 
HETATM   20  C18 UNL     1      31.535   7.522  45.886  1.00  0.00     0.046 A 
ENDROOT
BRANCH   1  21
HETATM   21  O1  UNL     1      32.947   2.841  46.283  1.00  0.00    -0.389 OA
HETATM   22  C1  UNL     1      32.806   1.954  47.385  1.00  0.00     0.202 C 
ENDBRANCH   1  21
TORSDOF 1
ENDMDL
