MODEL 1
REMARK VINA RESULT:      -9.6      0.000      0.000
REMARK  5 active torsions:
REMARK  status: ('A' for Active; 'I' for Inactive)
REMARK       I    between atoms: C2_2  and  N1_4 
REMARK    1  A    between atoms: C6_8  and  C7_9 
REMARK    2  A    between atoms: C8_10  and  C9_11 
REMARK    3  A    between atoms: C16_19  and  O2_20 
REMARK    4  A    between atoms: O2_20  and  C17_21 
REMARK    5  A    between atoms: C17_21  and  C18_22 
ROOT
HETATM    1  C9  UNL     1      26.074   3.240  50.577  1.00  0.00     0.056 C 
HETATM    2  C10 UNL     1      26.759   3.847  49.653  1.00  0.00     0.016 C 
HETATM    3  C11 UNL     1      26.132   5.005  49.025  1.00  0.00     0.084 C 
HETATM    4  C12 UNL     1      25.322   5.727  50.072  1.00  0.00     0.011 C 
HETATM    5  C13 UNL     1      25.281   6.990  50.362  1.00  0.00     0.099 C 
HETATM    6  N2  UNL     1      26.107   7.865  49.605  1.00  0.00    -0.386 N 
HETATM    7  C14 UNL     1      26.558   7.404  48.325  1.00  0.00     0.139 A 
HETATM    8  C15 UNL     1      27.693   8.204  47.814  1.00  0.00     0.041 A 
HETATM    9  C16 UNL     1      28.760   7.429  47.703  1.00  0.00     0.089 A 
HETATM   10  C24 UNL     1      28.353   6.099  48.139  1.00  0.00     0.072 A 
HETATM   11 CL1  UNL     1      29.458   4.743  48.155  1.00  0.00    -0.081 Cl
HETATM   12  C25 UNL     1      27.098   6.008  48.512  1.00  0.00    -0.017 A 
HETATM   13  S1  UNL     1      24.541   4.204  50.657  1.00  0.00    -0.084 SA
HETATM   14  H14 UNL     1      26.352   8.796  50.001  1.00  0.00     0.160 HD
ENDROOT
BRANCH   1  15
HETATM   15  C8  UNL     1      26.330   2.099  51.407  1.00  0.00    -0.058 C 
HETATM   16  C7  UNL     1      26.524   1.139  52.108  1.00  0.00    -0.075 C 
BRANCH  16  17
HETATM   17  C6  UNL     1      26.769  -0.020  52.984  1.00  0.00     0.167 C 
HETATM   18  N1  UNL     1      28.172  -0.115  53.232  1.00  0.00    -0.337 N 
HETATM   19  C2  UNL     1      29.165   0.817  53.657  1.00  0.00     0.216 C 
HETATM   20  C3  UNL     1      28.743  -1.432  53.014  1.00  0.00     0.127 C 
HETATM   21  C1  UNL     1      29.050   2.257  53.994  1.00  0.00     0.117 C 
HETATM   22  O1  UNL     1      30.209   0.144  53.691  1.00  0.00    -0.274 OA
HETATM   23  C4  UNL     1      27.524  -2.249  52.704  1.00  0.00     0.023 C 
HETATM   24  C5  UNL     1      26.406  -1.312  52.335  1.00  0.00     0.040 C 
ENDBRANCH  16  17
ENDBRANCH   1  15
BRANCH   9  25
HETATM   25  O2  UNL     1      30.013   7.822  47.257  1.00  0.00    -0.345 OA
BRANCH  25  26
HETATM   26  C17 UNL     1      31.118   8.007  48.098  1.00  0.00     0.214 C 
BRANCH  26  27
HETATM   27  C18 UNL     1      32.226   7.038  47.840  1.00  0.00    -0.031 A 
HETATM   28  C19 UNL     1      32.222   6.529  46.550  1.00  0.00     0.009 A 
HETATM   29  C20 UNL     1      33.174   5.616  46.126  1.00  0.00     0.004 A 
HETATM   30  C21 UNL     1      34.150   5.208  47.022  1.00  0.00     0.042 A 
HETATM   31  C22 UNL     1      34.143   5.716  48.289  1.00  0.00     0.117 A 
HETATM   32  F1  UNL     1      35.092   5.335  49.197  1.00  0.00    -0.206 F 
HETATM   33  C23 UNL     1      33.202   6.626  48.726  1.00  0.00     0.051 A 
ENDBRANCH  26  27
ENDBRANCH  25  26
ENDBRANCH   9  25
TORSDOF 5
ENDMDL
MODEL 2
REMARK VINA RESULT:      -9.3      1.780      2.384
REMARK  5 active torsions:
REMARK  status: ('A' for Active; 'I' for Inactive)
REMARK       I    between atoms: C2_2  and  N1_4 
REMARK    1  A    between atoms: C6_8  and  C7_9 
REMARK    2  A    between atoms: C8_10  and  C9_11 
REMARK    3  A    between atoms: C16_19  and  O2_20 
REMARK    4  A    between atoms: O2_20  and  C17_21 
REMARK    5  A    between atoms: C17_21  and  C18_22 
ROOT
HETATM    1  C9  UNL     1      26.328   4.005  49.923  1.00  0.00     0.056 C 
HETATM    2  C10 UNL     1      27.148   4.582  49.096  1.00  0.00     0.016 C 
HETATM    3  C11 UNL     1      26.755   5.893  48.588  1.00  0.00     0.084 C 
HETATM    4  C12 UNL     1      26.028   6.624  49.687  1.00  0.00     0.011 C 
HETATM    5  C13 UNL     1      26.184   7.836  50.120  1.00  0.00     0.099 C 
HETATM    6  N2  UNL     1      27.180   8.634  49.495  1.00  0.00    -0.386 N 
HETATM    7  C14 UNL     1      27.609   8.245  48.184  1.00  0.00     0.139 A 
HETATM    8  C15 UNL     1      28.886   8.889  47.802  1.00  0.00     0.041 A 
HETATM    9  C16 UNL     1      29.813   7.960  47.634  1.00  0.00     0.089 A 
HETATM   10  C24 UNL     1      29.169   6.679  47.900  1.00  0.00     0.072 A 
HETATM   11 CL1  UNL     1      30.030   5.161  47.792  1.00  0.00    -0.081 Cl
HETATM   12  C25 UNL     1      27.899   6.765  48.224  1.00  0.00    -0.017 A 
HETATM   13  S1  UNL     1      24.976   5.203  50.068  1.00  0.00    -0.084 SA
HETATM   14  H14 UNL     1      27.558   9.460  50.003  1.00  0.00     0.160 HD
ENDROOT
BRANCH   1  15
HETATM   15  C8  UNL     1      26.348   2.753  50.622  1.00  0.00    -0.058 C 
HETATM   16  C7  UNL     1      26.347   1.706  51.217  1.00  0.00    -0.075 C 
BRANCH  16  17
HETATM   17  C6  UNL     1      26.361   0.435  51.962  1.00  0.00     0.167 C 
HETATM   18  N1  UNL     1      25.244   0.417  52.852  1.00  0.00    -0.337 N 
HETATM   19  C2  UNL     1      23.851   0.675  52.693  1.00  0.00     0.216 C 
HETATM   20  C3  UNL     1      25.562   0.063  54.224  1.00  0.00     0.127 C 
HETATM   21  C1  UNL     1      23.077   1.064  51.488  1.00  0.00     0.117 C 
HETATM   22  O1  UNL     1      23.384   0.498  53.830  1.00  0.00    -0.274 OA
HETATM   23  C4  UNL     1      27.020  -0.275  54.125  1.00  0.00     0.023 C 
HETATM   24  C5  UNL     1      27.556   0.303  52.843  1.00  0.00     0.040 C 
ENDBRANCH  16  17
ENDBRANCH   1  15
BRANCH   9  25
HETATM   25  O2  UNL     1      31.134   8.178  47.274  1.00  0.00    -0.345 OA
BRANCH  25  26
HETATM   26  C17 UNL     1      32.220   7.994  48.140  1.00  0.00     0.214 C 
BRANCH  26  27
HETATM   27  C18 UNL     1      33.089   6.841  47.760  1.00  0.00    -0.031 A 
HETATM   28  C19 UNL     1      33.064   6.555  46.403  1.00  0.00     0.009 A 
HETATM   29  C20 UNL     1      33.807   5.518  45.863  1.00  0.00     0.004 A 
HETATM   30  C21 UNL     1      34.594   4.753  46.711  1.00  0.00     0.042 A 
HETATM   31  C22 UNL     1      34.611   5.043  48.045  1.00  0.00     0.117 A 
HETATM   32  F1  UNL     1      35.377   4.308  48.907  1.00  0.00    -0.206 F 
HETATM   33  C23 UNL     1      33.876   6.073  48.596  1.00  0.00     0.051 A 
ENDBRANCH  26  27
ENDBRANCH  25  26
ENDBRANCH   9  25
TORSDOF 5
ENDMDL
MODEL 3
REMARK VINA RESULT:      -9.2      1.521      1.809
REMARK  5 active torsions:
REMARK  status: ('A' for Active; 'I' for Inactive)
REMARK       I    between atoms: C2_2  and  N1_4 
REMARK    1  A    between atoms: C6_8  and  C7_9 
REMARK    2  A    between atoms: C8_10  and  C9_11 
REMARK    3  A    between atoms: C16_19  and  O2_20 
REMARK    4  A    between atoms: O2_20  and  C17_21 
REMARK    5  A    between atoms: C17_21  and  C18_22 
ROOT
HETATM    1  C9  UNL     1      25.571   2.696  50.949  1.00  0.00     0.056 C 
HETATM    2  C10 UNL     1      26.091   3.425  50.006  1.00  0.00     0.016 C 
HETATM    3  C11 UNL     1      25.246   4.474  49.445  1.00  0.00     0.084 C 
HETATM    4  C12 UNL     1      24.391   5.032  50.553  1.00  0.00     0.011 C 
HETATM    5  C13 UNL     1      24.158   6.265  50.880  1.00  0.00     0.099 C 
HETATM    6  N2  UNL     1      24.783   7.279  50.104  1.00  0.00    -0.386 N 
HETATM    7  C14 UNL     1      25.228   6.922  48.788  1.00  0.00     0.139 A 
HETATM    8  C15 UNL     1      26.185   7.909  48.238  1.00  0.00     0.041 A 
HETATM    9  C16 UNL     1      27.357   7.324  48.048  1.00  0.00     0.089 A 
HETATM   10  C24 UNL     1      27.201   5.937  48.469  1.00  0.00     0.072 A 
HETATM   11 CL1  UNL     1      28.514   4.785  48.388  1.00  0.00    -0.081 Cl
HETATM   12  C25 UNL     1      26.002   5.632  48.908  1.00  0.00    -0.017 A 
HETATM   13  S1  UNL     1      23.907   3.390  51.138  1.00  0.00    -0.084 SA
HETATM   14  H14 UNL     1      24.893   8.230  50.510  1.00  0.00     0.160 HD
ENDROOT
BRANCH   1  15
HETATM   15  C8  UNL     1      26.060   1.599  51.733  1.00  0.00    -0.058 C 
HETATM   16  C7  UNL     1      26.451   0.668  52.389  1.00  0.00    -0.075 C 
BRANCH  16  17
HETATM   17  C6  UNL     1      26.927  -0.458  53.211  1.00  0.00     0.167 C 
HETATM   18  N1  UNL     1      28.348  -0.371  53.325  1.00  0.00    -0.337 N 
HETATM   19  C2  UNL     1      29.248   0.678  53.675  1.00  0.00     0.216 C 
HETATM   20  C3  UNL     1      29.060  -1.600  53.025  1.00  0.00     0.127 C 
HETATM   21  C1  UNL     1      28.981   2.088  54.054  1.00  0.00     0.117 C 
HETATM   22  O1  UNL     1      30.368   0.147  53.596  1.00  0.00    -0.274 OA
HETATM   23  C4  UNL     1      27.933  -2.566  52.812  1.00  0.00     0.023 C 
HETATM   24  C5  UNL     1      26.673  -1.779  52.571  1.00  0.00     0.040 C 
ENDBRANCH  16  17
ENDBRANCH   1  15
BRANCH   9  25
HETATM   25  O2  UNL     1      28.499   7.928  47.546  1.00  0.00    -0.345 OA
BRANCH  25  26
HETATM   26  C17 UNL     1      29.256   8.875  48.249  1.00  0.00     0.214 C 
BRANCH  26  27
HETATM   27  C18 UNL     1      30.710   8.538  48.315  1.00  0.00    -0.031 A 
HETATM   28  C19 UNL     1      30.966   7.327  48.942  1.00  0.00     0.009 A 
HETATM   29  C20 UNL     1      32.256   6.848  49.098  1.00  0.00     0.004 A 
HETATM   30  C21 UNL     1      33.311   7.605  48.610  1.00  0.00     0.042 A 
HETATM   31  C22 UNL     1      33.046   8.795  47.995  1.00  0.00     0.117 A 
HETATM   32  F1  UNL     1      34.063   9.565  47.502  1.00  0.00    -0.206 F 
HETATM   33  C23 UNL     1      31.766   9.285  47.832  1.00  0.00     0.051 A 
ENDBRANCH  26  27
ENDBRANCH  25  26
ENDBRANCH   9  25
TORSDOF 5
ENDMDL
MODEL 4
REMARK VINA RESULT:      -9.1      3.216      4.374
REMARK  5 active torsions:
REMARK  status: ('A' for Active; 'I' for Inactive)
REMARK       I    between atoms: C2_2  and  N1_4 
REMARK    1  A    between atoms: C6_8  and  C7_9 
REMARK    2  A    between atoms: C8_10  and  C9_11 
REMARK    3  A    between atoms: C16_19  and  O2_20 
REMARK    4  A    between atoms: O2_20  and  C17_21 
REMARK    5  A    between atoms: C17_21  and  C18_22 
ROOT
HETATM    1  C9  UNL     1      26.186   5.955  49.157  1.00  0.00     0.056 C 
HETATM    2  C10 UNL     1      27.346   6.129  48.597  1.00  0.00     0.016 C 
HETATM    3  C11 UNL     1      27.735   7.504  48.302  1.00  0.00     0.084 C 
HETATM    4  C12 UNL     1      27.198   8.389  49.398  1.00  0.00     0.011 C 
HETATM    5  C13 UNL     1      27.793   9.317  50.080  1.00  0.00     0.099 C 
HETATM    6  N2  UNL     1      29.159   9.575  49.785  1.00  0.00    -0.386 N 
HETATM    7  C14 UNL     1      29.649   9.153  48.505  1.00  0.00     0.139 A 
HETATM    8  C15 UNL     1      31.128   9.116  48.460  1.00  0.00     0.041 A 
HETATM    9  C16 UNL     1      31.529   7.871  48.256  1.00  0.00     0.089 A 
HETATM   10  C24 UNL     1      30.323   7.058  48.163  1.00  0.00     0.072 A 
HETATM   11 CL1  UNL     1      30.381   5.331  47.892  1.00  0.00    -0.081 Cl
HETATM   12  C25 UNL     1      29.202   7.728  48.297  1.00  0.00    -0.017 A 
HETATM   13  S1  UNL     1      25.551   7.644  49.324  1.00  0.00    -0.084 SA
HETATM   14  H14 UNL     1      29.748  10.052  50.497  1.00  0.00     0.160 HD
ENDROOT
BRANCH   1  15
HETATM   15  C8  UNL     1      25.462   4.795  49.590  1.00  0.00    -0.058 C 
HETATM   16  C7  UNL     1      24.853   3.830  49.973  1.00  0.00    -0.075 C 
BRANCH  16  17
HETATM   17  C6  UNL     1      24.129   2.637  50.445  1.00  0.00     0.167 C 
HETATM   18  N1  UNL     1      22.938   3.060  51.109  1.00  0.00    -0.337 N 
HETATM   19  C2  UNL     1      21.882   3.955  50.767  1.00  0.00     0.216 C 
HETATM   20  C3  UNL     1      22.726   2.468  52.418  1.00  0.00     0.127 C 
HETATM   21  C1  UNL     1      21.673   4.775  49.548  1.00  0.00     0.117 C 
HETATM   22  O1  UNL     1      21.124   3.910  51.751  1.00  0.00    -0.274 OA
HETATM   23  C4  UNL     1      23.865   1.497  52.505  1.00  0.00     0.023 C 
HETATM   24  C5  UNL     1      24.893   1.876  51.474  1.00  0.00     0.040 C 
ENDBRANCH  16  17
ENDBRANCH   1  15
BRANCH   9  25
HETATM   25  O2  UNL     1      32.843   7.442  48.155  1.00  0.00    -0.345 OA
BRANCH  25  26
HETATM   26  C17 UNL     1      33.497   7.208  46.938  1.00  0.00     0.214 C 
BRANCH  26  27
HETATM   27  C18 UNL     1      33.995   5.807  46.795  1.00  0.00    -0.031 A 
HETATM   28  C19 UNL     1      34.239   5.442  45.479  1.00  0.00     0.009 A 
HETATM   29  C20 UNL     1      34.705   4.180  45.149  1.00  0.00     0.004 A 
HETATM   30  C21 UNL     1      34.931   3.267  46.168  1.00  0.00     0.042 A 
HETATM   31  C22 UNL     1      34.687   3.638  47.459  1.00  0.00     0.117 A 
HETATM   32  F1  UNL     1      34.900   2.762  48.487  1.00  0.00    -0.206 F 
HETATM   33  C23 UNL     1      34.223   4.891  47.802  1.00  0.00     0.051 A 
ENDBRANCH  26  27
ENDBRANCH  25  26
ENDBRANCH   9  25
TORSDOF 5
ENDMDL
MODEL 5
REMARK VINA RESULT:      -9.0      3.121      3.777
REMARK  5 active torsions:
REMARK  status: ('A' for Active; 'I' for Inactive)
REMARK       I    between atoms: C2_2  and  N1_4 
REMARK    1  A    between atoms: C6_8  and  C7_9 
REMARK    2  A    between atoms: C8_10  and  C9_11 
REMARK    3  A    between atoms: C16_19  and  O2_20 
REMARK    4  A    between atoms: O2_20  and  C17_21 
REMARK    5  A    between atoms: C17_21  and  C18_22 
ROOT
HETATM    1  C9  UNL     1      25.365   2.748  50.877  1.00  0.00     0.056 C 
HETATM    2  C10 UNL     1      25.920   3.497  49.970  1.00  0.00     0.016 C 
HETATM    3  C11 UNL     1      25.074   4.509  49.347  1.00  0.00     0.084 C 
HETATM    4  C12 UNL     1      24.121   5.033  50.390  1.00  0.00     0.011 C 
HETATM    5  C13 UNL     1      23.815   6.255  50.694  1.00  0.00     0.099 C 
HETATM    6  N2  UNL     1      24.450   7.293  49.960  1.00  0.00    -0.386 N 
HETATM    7  C14 UNL     1      25.002   6.954  48.681  1.00  0.00     0.139 A 
HETATM    8  C15 UNL     1      25.953   7.979  48.196  1.00  0.00     0.041 A 
HETATM    9  C16 UNL     1      27.159   7.444  48.091  1.00  0.00     0.089 A 
HETATM   10  C24 UNL     1      27.031   6.052  48.506  1.00  0.00     0.072 A 
HETATM   11 CL1  UNL     1      28.393   4.955  48.522  1.00  0.00    -0.081 Cl
HETATM   12  C25 UNL     1      25.818   5.698  48.860  1.00  0.00    -0.017 A 
HETATM   13  S1  UNL     1      23.665   3.373  50.945  1.00  0.00    -0.084 SA
HETATM   14  H14 UNL     1      24.493   8.249  50.370  1.00  0.00     0.160 HD
ENDROOT
BRANCH   1  15
HETATM   15  C8  UNL     1      25.842   1.672  51.697  1.00  0.00    -0.058 C 
HETATM   16  C7  UNL     1      26.254   0.783  52.396  1.00  0.00    -0.075 C 
BRANCH  16  17
HETATM   17  C6  UNL     1      26.774  -0.311  53.234  1.00  0.00     0.167 C 
HETATM   18  N1  UNL     1      28.196  -0.200  53.298  1.00  0.00    -0.337 N 
HETATM   19  C2  UNL     1      29.090   0.872  53.589  1.00  0.00     0.216 C 
HETATM   20  C3  UNL     1      28.919  -1.426  53.010  1.00  0.00     0.127 C 
HETATM   21  C1  UNL     1      28.812   2.288  53.937  1.00  0.00     0.117 C 
HETATM   22  O1  UNL     1      30.216   0.357  53.489  1.00  0.00    -0.274 OA
HETATM   23  C4  UNL     1      27.801  -2.414  52.861  1.00  0.00     0.023 C 
HETATM   24  C5  UNL     1      26.521  -1.655  52.639  1.00  0.00     0.040 C 
ENDBRANCH  16  17
ENDBRANCH   1  15
BRANCH   9  25
HETATM   25  O2  UNL     1      28.308   8.094  47.669  1.00  0.00    -0.345 OA
BRANCH  25  26
HETATM   26  C17 UNL     1      28.306   9.232  46.852  1.00  0.00     0.214 C 
BRANCH  26  27
HETATM   27  C18 UNL     1      28.527  10.502  47.608  1.00  0.00    -0.031 A 
HETATM   28  C19 UNL     1      27.435  11.357  47.577  1.00  0.00     0.009 A 
HETATM   29  C20 UNL     1      27.453  12.583  48.221  1.00  0.00     0.004 A 
HETATM   30  C21 UNL     1      28.596  12.954  48.914  1.00  0.00     0.042 A 
HETATM   31  C22 UNL     1      29.664  12.104  48.937  1.00  0.00     0.117 A 
HETATM   32  F1  UNL     1      30.806  12.439  49.611  1.00  0.00    -0.206 F 
HETATM   33  C23 UNL     1      29.660  10.880  48.300  1.00  0.00     0.051 A 
ENDBRANCH  26  27
ENDBRANCH  25  26
ENDBRANCH   9  25
TORSDOF 5
ENDMDL
MODEL 6
REMARK VINA RESULT:      -8.9      4.087      4.768
REMARK  5 active torsions:
REMARK  status: ('A' for Active; 'I' for Inactive)
REMARK       I    between atoms: C2_2  and  N1_4 
REMARK    1  A    between atoms: C6_8  and  C7_9 
REMARK    2  A    between atoms: C8_10  and  C9_11 
REMARK    3  A    between atoms: C16_19  and  O2_20 
REMARK    4  A    between atoms: O2_20  and  C17_21 
REMARK    5  A    between atoms: C17_21  and  C18_22 
ROOT
HETATM    1  C9  UNL     1      25.368   6.766  48.458  1.00  0.00     0.056 C 
HETATM    2  C10 UNL     1      26.633   6.664  48.177  1.00  0.00     0.016 C 
HETATM    3  C11 UNL     1      27.402   7.904  48.144  1.00  0.00     0.084 C 
HETATM    4  C12 UNL     1      26.856   8.822  49.207  1.00  0.00     0.011 C 
HETATM    5  C13 UNL     1      27.484   9.511  50.109  1.00  0.00     0.099 C 
HETATM    6  N2  UNL     1      28.901   9.417  50.139  1.00  0.00    -0.386 N 
HETATM    7  C14 UNL     1      29.558   8.969  48.945  1.00  0.00     0.139 A 
HETATM    8  C15 UNL     1      30.952   8.544  49.203  1.00  0.00     0.041 A 
HETATM    9  C16 UNL     1      31.074   7.254  48.933  1.00  0.00     0.089 A 
HETATM   10  C24 UNL     1      29.763   6.798  48.490  1.00  0.00     0.072 A 
HETATM   11 CL1  UNL     1      29.461   5.140  48.022  1.00  0.00    -0.081 Cl
HETATM   12  C25 UNL     1      28.839   7.730  48.472  1.00  0.00    -0.017 A 
HETATM   13  S1  UNL     1      25.141   8.548  48.701  1.00  0.00    -0.084 SA
HETATM   14  H14 UNL     1      29.406   9.671  51.012  1.00  0.00     0.160 HD
ENDROOT
BRANCH   1  15
HETATM   15  C8  UNL     1      24.304   5.813  48.582  1.00  0.00    -0.058 C 
HETATM   16  C7  UNL     1      23.413   5.013  48.708  1.00  0.00    -0.075 C 
BRANCH  16  17
HETATM   17  C6  UNL     1      22.339   4.016  48.855  1.00  0.00     0.167 C 
HETATM   18  N1  UNL     1      22.561   3.280  50.058  1.00  0.00    -0.337 N 
HETATM   19  C2  UNL     1      22.832   3.653  51.407  1.00  0.00     0.216 C 
HETATM   20  C3  UNL     1      22.507   1.836  49.910  1.00  0.00     0.127 C 
HETATM   21  C1  UNL     1      22.976   4.995  52.023  1.00  0.00     0.117 C 
HETATM   22  O1  UNL     1      22.930   2.566  52.002  1.00  0.00    -0.274 OA
HETATM   23  C4  UNL     1      22.098   1.689  48.475  1.00  0.00     0.023 C 
HETATM   24  C5  UNL     1      22.357   2.993  47.770  1.00  0.00     0.040 C 
ENDBRANCH  16  17
ENDBRANCH   1  15
BRANCH   9  25
HETATM   25  O2  UNL     1      32.231   6.500  49.052  1.00  0.00    -0.345 OA
BRANCH  25  26
HETATM   26  C17 UNL     1      33.261   6.493  48.102  1.00  0.00     0.214 C 
BRANCH  26  27
HETATM   27  C18 UNL     1      33.548   5.134  47.553  1.00  0.00    -0.031 A 
HETATM   28  C19 UNL     1      34.560   5.126  46.603  1.00  0.00     0.009 A 
HETATM   29  C20 UNL     1      34.965   3.957  45.981  1.00  0.00     0.004 A 
HETATM   30  C21 UNL     1      34.338   2.768  46.326  1.00  0.00     0.042 A 
HETATM   31  C22 UNL     1      33.344   2.788  47.261  1.00  0.00     0.117 A 
HETATM   32  F1  UNL     1      32.706   1.634  47.624  1.00  0.00    -0.206 F 
HETATM   33  C23 UNL     1      32.930   3.945  47.889  1.00  0.00     0.051 A 
ENDBRANCH  26  27
ENDBRANCH  25  26
ENDBRANCH   9  25
TORSDOF 5
ENDMDL
MODEL 7
REMARK VINA RESULT:      -8.7      3.863      8.477
REMARK  5 active torsions:
REMARK  status: ('A' for Active; 'I' for Inactive)
REMARK       I    between atoms: C2_2  and  N1_4 
REMARK    1  A    between atoms: C6_8  and  C7_9 
REMARK    2  A    between atoms: C8_10  and  C9_11 
REMARK    3  A    between atoms: C16_19  and  O2_20 
REMARK    4  A    between atoms: O2_20  and  C17_21 
REMARK    5  A    between atoms: C17_21  and  C18_22 
ROOT
HETATM    1  C9  UNL     1      28.928   6.828  48.004  1.00  0.00     0.056 C 
HETATM    2  C10 UNL     1      28.038   6.095  48.606  1.00  0.00     0.016 C 
HETATM    3  C11 UNL     1      26.745   6.717  48.873  1.00  0.00     0.084 C 
HETATM    4  C12 UNL     1      26.425   7.644  47.728  1.00  0.00     0.011 C 
HETATM    5  C13 UNL     1      25.332   7.767  47.042  1.00  0.00     0.099 C 
HETATM    6  N2  UNL     1      24.243   6.920  47.385  1.00  0.00    -0.386 N 
HETATM    7  C14 UNL     1      24.245   6.342  48.697  1.00  0.00     0.139 A 
HETATM    8  C15 UNL     1      23.304   5.203  48.804  1.00  0.00     0.041 A 
HETATM    9  C16 UNL     1      23.983   4.097  49.063  1.00  0.00     0.089 A 
HETATM   10  C24 UNL     1      25.388   4.480  49.132  1.00  0.00     0.072 A 
HETATM   11 CL1  UNL     1      26.655   3.320  49.459  1.00  0.00    -0.081 Cl
HETATM   12  C25 UNL     1      25.616   5.757  48.931  1.00  0.00    -0.017 A 
HETATM   13  S1  UNL     1      28.067   8.403  47.757  1.00  0.00    -0.084 SA
HETATM   14  H14 UNL     1      23.494   6.752  46.683  1.00  0.00     0.160 HD
ENDROOT
BRANCH   1  15
HETATM   15  C8  UNL     1      30.277   6.592  47.578  1.00  0.00    -0.058 C 
HETATM   16  C7  UNL     1      31.415   6.391  47.240  1.00  0.00    -0.075 C 
BRANCH  16  17
HETATM   17  C6  UNL     1      32.811   6.168  46.826  1.00  0.00     0.167 C 
HETATM   18  N1  UNL     1      33.235   4.898  47.320  1.00  0.00    -0.337 N 
HETATM   19  C2  UNL     1      32.680   3.585  47.274  1.00  0.00     0.216 C 
HETATM   20  C3  UNL     1      34.504   4.910  48.027  1.00  0.00     0.127 C 
HETATM   21  C1  UNL     1      31.418   3.096  46.666  1.00  0.00     0.117 C 
HETATM   22  O1  UNL     1      33.512   2.889  47.879  1.00  0.00    -0.274 OA
HETATM   23  C4  UNL     1      34.945   6.331  47.844  1.00  0.00     0.023 C 
HETATM   24  C5  UNL     1      33.750   7.151  47.438  1.00  0.00     0.040 C 
ENDBRANCH  16  17
ENDBRANCH   1  15
BRANCH   9  25
HETATM   25  O2  UNL     1      23.446   2.830  49.232  1.00  0.00    -0.345 OA
BRANCH  25  26
HETATM   26  C17 UNL     1      22.535   2.496  50.242  1.00  0.00     0.214 C 
BRANCH  26  27
HETATM   27  C18 UNL     1      23.117   1.606  51.292  1.00  0.00    -0.031 A 
HETATM   28  C19 UNL     1      22.190   0.743  51.858  1.00  0.00     0.009 A 
HETATM   29  C20 UNL     1      22.545  -0.157  52.849  1.00  0.00     0.004 A 
HETATM   30  C21 UNL     1      23.864  -0.188  53.278  1.00  0.00     0.042 A 
HETATM   31  C22 UNL     1      24.767   0.666  52.714  1.00  0.00     0.117 A 
HETATM   32  F1  UNL     1      26.074   0.660  53.114  1.00  0.00    -0.206 F 
HETATM   33  C23 UNL     1      24.428   1.568  51.726  1.00  0.00     0.051 A 
ENDBRANCH  26  27
ENDBRANCH  25  26
ENDBRANCH   9  25
TORSDOF 5
ENDMDL
MODEL 8
REMARK VINA RESULT:      -8.7      5.598      9.762
REMARK  5 active torsions:
REMARK  status: ('A' for Active; 'I' for Inactive)
REMARK       I    between atoms: C2_2  and  N1_4 
REMARK    1  A    between atoms: C6_8  and  C7_9 
REMARK    2  A    between atoms: C8_10  and  C9_11 
REMARK    3  A    between atoms: C16_19  and  O2_20 
REMARK    4  A    between atoms: O2_20  and  C17_21 
REMARK    5  A    between atoms: C17_21  and  C18_22 
ROOT
HETATM    1  C9  UNL     1      20.412   4.203  51.254  1.00  0.00     0.056 C 
HETATM    2  C10 UNL     1      21.232   3.568  52.038  1.00  0.00     0.016 C 
HETATM    3  C11 UNL     1      20.696   2.414  52.753  1.00  0.00     0.084 C 
HETATM    4  C12 UNL     1      19.700   1.726  51.855  1.00  0.00     0.011 C 
HETATM    5  C13 UNL     1      19.578   0.469  51.563  1.00  0.00     0.099 C 
HETATM    6  N2  UNL     1      20.501  -0.435  52.155  1.00  0.00    -0.386 N 
HETATM    7  C14 UNL     1      21.179  -0.003  53.342  1.00  0.00     0.139 A 
HETATM    8  C15 UNL     1      22.366  -0.836  53.639  1.00  0.00     0.041 A 
HETATM    9  C16 UNL     1      23.455  -0.086  53.571  1.00  0.00     0.089 A 
HETATM   10  C24 UNL     1      23.010   1.259  53.228  1.00  0.00     0.072 A 
HETATM   11 CL1  UNL     1      24.129   2.590  53.034  1.00  0.00    -0.081 Cl
HETATM   12  C25 UNL     1      21.712   1.383  53.079  1.00  0.00    -0.017 A 
HETATM   13  S1  UNL     1      18.866   3.274  51.432  1.00  0.00    -0.084 SA
HETATM   14  H14 UNL     1      20.651  -1.365  51.713  1.00  0.00     0.160 HD
ENDROOT
BRANCH   1  15
HETATM   15  C8  UNL     1      20.548   5.351  50.405  1.00  0.00    -0.058 C 
HETATM   16  C7  UNL     1      20.641   6.315  49.689  1.00  0.00    -0.075 C 
BRANCH  16  17
HETATM   17  C6  UNL     1      20.762   7.479  48.795  1.00  0.00     0.167 C 
HETATM   18  N1  UNL     1      22.135   7.865  48.731  1.00  0.00    -0.337 N 
HETATM   19  C2  UNL     1      23.349   7.156  48.492  1.00  0.00     0.216 C 
HETATM   20  C3  UNL     1      22.383   9.278  48.955  1.00  0.00     0.127 C 
HETATM   21  C1  UNL     1      23.584   5.717  48.217  1.00  0.00     0.117 C 
HETATM   22  O1  UNL     1      24.225   8.034  48.562  1.00  0.00    -0.274 OA
HETATM   23  C4  UNL     1      20.990   9.823  49.057  1.00  0.00     0.023 C 
HETATM   24  C5  UNL     1      20.050   8.679  49.322  1.00  0.00     0.040 C 
ENDBRANCH  16  17
ENDBRANCH   1  15
BRANCH   9  25
HETATM   25  O2  UNL     1      24.756  -0.513  53.788  1.00  0.00    -0.345 OA
BRANCH  25  26
HETATM   26  C17 UNL     1      25.689  -0.726  52.764  1.00  0.00     0.214 C 
BRANCH  26  27
HETATM   27  C18 UNL     1      27.049  -0.201  53.086  1.00  0.00    -0.031 A 
HETATM   28  C19 UNL     1      28.027  -1.185  53.112  1.00  0.00     0.009 A 
HETATM   29  C20 UNL     1      29.351  -0.888  53.393  1.00  0.00     0.004 A 
HETATM   30  C21 UNL     1      29.696   0.430  53.653  1.00  0.00     0.042 A 
HETATM   31  C22 UNL     1      28.725   1.389  53.625  1.00  0.00     0.117 A 
HETATM   32  F1  UNL     1      29.032   2.698  53.875  1.00  0.00    -0.206 F 
HETATM   33  C23 UNL     1      27.403   1.108  53.346  1.00  0.00     0.051 A 
ENDBRANCH  26  27
ENDBRANCH  25  26
ENDBRANCH   9  25
TORSDOF 5
ENDMDL
MODEL 9
REMARK VINA RESULT:      -8.6      7.939     10.503
REMARK  5 active torsions:
REMARK  status: ('A' for Active; 'I' for Inactive)
REMARK       I    between atoms: C2_2  and  N1_4 
REMARK    1  A    between atoms: C6_8  and  C7_9 
REMARK    2  A    between atoms: C8_10  and  C9_11 
REMARK    3  A    between atoms: C16_19  and  O2_20 
REMARK    4  A    between atoms: O2_20  and  C17_21 
REMARK    5  A    between atoms: C17_21  and  C18_22 
ROOT
HETATM    1  C9  UNL     1      18.702   1.384  50.450  1.00  0.00     0.056 C 
HETATM    2  C10 UNL     1      19.828   0.873  50.852  1.00  0.00     0.016 C 
HETATM    3  C11 UNL     1      21.038   1.340  50.184  1.00  0.00     0.084 C 
HETATM    4  C12 UNL     1      20.857   2.799  49.851  1.00  0.00     0.011 C 
HETATM    5  C13 UNL     1      21.660   3.799  50.046  1.00  0.00     0.099 C 
HETATM    6  N2  UNL     1      22.909   3.527  50.665  1.00  0.00    -0.386 N 
HETATM    7  C14 UNL     1      23.392   2.177  50.613  1.00  0.00     0.139 A 
HETATM    8  C15 UNL     1      24.472   1.934  51.596  1.00  0.00     0.041 A 
HETATM    9  C16 UNL     1      24.069   1.030  52.474  1.00  0.00     0.089 A 
HETATM   10  C24 UNL     1      22.714   0.655  52.091  1.00  0.00     0.072 A 
HETATM   11 CL1  UNL     1      21.786  -0.528  52.984  1.00  0.00    -0.081 Cl
HETATM   12  C25 UNL     1      22.256   1.275  51.029  1.00  0.00    -0.017 A 
HETATM   13  S1  UNL     1      19.213   2.534  49.146  1.00  0.00    -0.084 SA
HETATM   14  H14 UNL     1      23.424   4.304  51.128  1.00  0.00     0.160 HD
ENDROOT
BRANCH   1  15
HETATM   15  C8  UNL     1      17.335   1.193  50.840  1.00  0.00    -0.058 C 
HETATM   16  C7  UNL     1      16.191   1.011  51.167  1.00  0.00    -0.075 C 
BRANCH  16  17
HETATM   17  C6  UNL     1      14.784   0.791  51.545  1.00  0.00     0.167 C 
HETATM   18  N1  UNL     1      14.259   2.009  52.073  1.00  0.00    -0.337 N 
HETATM   19  C2  UNL     1      14.256   3.362  51.622  1.00  0.00     0.216 C 
HETATM   20  C3  UNL     1      13.572   1.876  53.346  1.00  0.00     0.127 C 
HETATM   21  C1  UNL     1      14.829   3.966  50.393  1.00  0.00     0.117 C 
HETATM   22  O1  UNL     1      13.643   3.972  52.513  1.00  0.00    -0.274 OA
HETATM   23  C4  UNL     1      13.592   0.391  53.554  1.00  0.00     0.023 C 
HETATM   24  C5  UNL     1      14.638  -0.201  52.648  1.00  0.00     0.040 C 
ENDBRANCH  16  17
ENDBRANCH   1  15
BRANCH   9  25
HETATM   25  O2  UNL     1      24.806   0.544  53.544  1.00  0.00    -0.345 OA
BRANCH  25  26
HETATM   26  C17 UNL     1      25.553  -0.641  53.504  1.00  0.00     0.214 C 
BRANCH  26  27
HETATM   27  C18 UNL     1      27.022  -0.418  53.651  1.00  0.00    -0.031 A 
HETATM   28  C19 UNL     1      27.790  -1.460  53.149  1.00  0.00     0.009 A 
HETATM   29  C20 UNL     1      29.174  -1.432  53.197  1.00  0.00     0.004 A 
HETATM   30  C21 UNL     1      29.798  -0.330  53.762  1.00  0.00     0.042 A 
HETATM   31  C22 UNL     1      29.033   0.689  54.253  1.00  0.00     0.117 A 
HETATM   32  F1  UNL     1      29.617   1.790  54.816  1.00  0.00    -0.206 F 
HETATM   33  C23 UNL     1      27.653   0.675  54.212  1.00  0.00     0.051 A 
ENDBRANCH  26  27
ENDBRANCH  25  26
ENDBRANCH   9  25
TORSDOF 5
ENDMDL
