MODEL 1
REMARK VINA RESULT:      -7.4      0.000      0.000
REMARK  8 active torsions:
REMARK  status: ('A' for Active; 'I' for Inactive)
REMARK    1  A    between atoms: C2_2  and  O1_3 
REMARK    2  A    between atoms: O1_3  and  C3_4 
REMARK    3  A    between atoms: C3_4  and  C4_5 
REMARK    4  A    between atoms: C5_6  and  O2_7 
REMARK    5  A    between atoms: N1_10  and  C8_11 
REMARK    6  A    between atoms: N2_12  and  C9_13 
REMARK    7  A    between atoms: C9_13  and  N3_14 
REMARK    8  A    between atoms: N3_14  and  C10_15 
ROOT
HETATM    1  O2  UNL     1      25.603   1.968  52.896  1.00  0.00     0.000 OA
HETATM    2  C6  UNL     1      26.052   2.375  51.656  1.00  0.00     0.056 A 
HETATM    3  C7  UNL     1      26.497   2.842  50.291  1.00  0.00     0.072 C 
HETATM    4  N1  UNL     1      24.862   2.609  52.100  1.00  0.00    -0.245 N 
ENDROOT
BRANCH   4   5
HETATM    5  C8  UNL     1      23.978   3.329  51.250  1.00  0.00     0.229 C 
HETATM    6  N2  UNL     1      24.010   4.229  52.173  1.00  0.00    -0.263 NA
BRANCH   6   7
HETATM    7  C9  UNL     1      23.275   5.488  52.106  1.00  0.00     0.272 C 
BRANCH   7   8
HETATM    8  N3  UNL     1      24.210   6.587  51.924  1.00  0.00    -0.372 N 
HETATM    9  H14 UNL     1      24.597   7.085  52.780  1.00  0.00     0.161 HD
BRANCH   8  10
HETATM   10  C10 UNL     1      24.603   6.993  50.636  1.00  0.00     0.030 A 
HETATM   11  C11 UNL     1      23.825   7.906  49.953  1.00  0.00     0.030 A 
HETATM   12  C12 UNL     1      24.240   8.277  48.700  1.00  0.00     0.011 A 
HETATM   13  C13 UNL     1      25.379   7.793  48.092  1.00  0.00    -0.040 A 
HETATM   14  C14 UNL     1      25.767   8.238  46.736  1.00  0.00     0.050 C 
HETATM   15  C15 UNL     1      26.130   6.884  48.806  1.00  0.00     0.042 A 
HETATM   16 CL1  UNL     1      27.598   6.209  48.117  1.00  0.00    -0.084 Cl
HETATM   17  C16 UNL     1      25.746   6.487  50.064  1.00  0.00     0.053 A 
ENDBRANCH   8  10
ENDBRANCH   7   8
ENDBRANCH   6   7
ENDBRANCH   4   5
BRANCH   1  18
HETATM   18  C5  UNL     1      26.554   1.377  53.757  1.00  0.00     0.136 C 
HETATM   19  C4  UNL     1      26.403   0.114  54.201  1.00  0.00     0.106 C 
HETATM   20  O4  UNL     1      27.467  -0.173  55.008  1.00  0.00    -0.348 OA
HETATM   21  C18 UNL     1      28.813   0.084  54.672  1.00  0.00     0.202 C 
HETATM   22  C17 UNL     1      28.947   1.499  54.201  1.00  0.00     0.202 C 
HETATM   23  O3  UNL     1      27.669   2.093  54.164  1.00  0.00    -0.344 OA
BRANCH  19  24
HETATM   24  C3  UNL     1      25.213  -0.592  53.743  1.00  0.00     0.235 C 
BRANCH  24  25
HETATM   25  O1  UNL     1      24.358  -0.895  54.782  1.00  0.00    -0.385 OA
BRANCH  25  26
HETATM   26  C2  UNL     1      23.047  -0.898  54.409  1.00  0.00     0.163 C 
HETATM   27  C1  UNL     1      22.826  -0.259  53.044  1.00  0.00     0.033 C 
ENDBRANCH  25  26
ENDBRANCH  24  25
ENDBRANCH  19  24
ENDBRANCH   1  18
TORSDOF 8
ENDMDL
MODEL 2
REMARK VINA RESULT:      -7.4      5.636      8.747
REMARK  8 active torsions:
REMARK  status: ('A' for Active; 'I' for Inactive)
REMARK    1  A    between atoms: C2_2  and  O1_3 
REMARK    2  A    between atoms: O1_3  and  C3_4 
REMARK    3  A    between atoms: C3_4  and  C4_5 
REMARK    4  A    between atoms: C5_6  and  O2_7 
REMARK    5  A    between atoms: N1_10  and  C8_11 
REMARK    6  A    between atoms: N2_12  and  C9_13 
REMARK    7  A    between atoms: C9_13  and  N3_14 
REMARK    8  A    between atoms: N3_14  and  C10_15 
ROOT
HETATM    1  O2  UNL     1      29.949   5.866  48.453  1.00  0.00     0.000 OA
HETATM    2  C6  UNL     1      29.118   6.753  47.801  1.00  0.00     0.056 A 
HETATM    3  C7  UNL     1      28.170   7.696  47.101  1.00  0.00     0.072 C 
HETATM    4  N1  UNL     1      28.696   5.716  48.441  1.00  0.00    -0.245 N 
ENDROOT
BRANCH   4   5
HETATM    5  C8  UNL     1      27.292   5.490  48.465  1.00  0.00     0.229 C 
HETATM    6  N2  UNL     1      27.598   4.385  49.057  1.00  0.00    -0.263 NA
BRANCH   6   7
HETATM    7  C9  UNL     1      26.615   3.402  49.500  1.00  0.00     0.272 C 
BRANCH   7   8
HETATM    8  N3  UNL     1      26.404   3.538  50.933  1.00  0.00    -0.372 N 
HETATM    9  H14 UNL     1      26.695   4.440  51.416  1.00  0.00     0.161 HD
BRANCH   8  10
HETATM   10  C10 UNL     1      25.824   2.496  51.678  1.00  0.00     0.030 A 
HETATM   11  C11 UNL     1      24.650   2.733  52.365  1.00  0.00     0.030 A 
HETATM   12  C12 UNL     1      24.116   1.693  53.080  1.00  0.00     0.011 A 
HETATM   13  C13 UNL     1      24.680   0.437  53.150  1.00  0.00    -0.040 A 
HETATM   14  C14 UNL     1      24.047  -0.640  53.942  1.00  0.00     0.050 C 
HETATM   15  C15 UNL     1      25.851   0.239  52.451  1.00  0.00     0.042 A 
HETATM   16 CL1  UNL     1      26.647  -1.327  52.477  1.00  0.00    -0.084 Cl
HETATM   17  C16 UNL     1      26.418   1.257  51.722  1.00  0.00     0.053 A 
ENDBRANCH   8  10
ENDBRANCH   7   8
ENDBRANCH   6   7
ENDBRANCH   4   5
BRANCH   1  18
HETATM   18  C5  UNL     1      31.320   6.203  48.517  1.00  0.00     0.136 C 
HETATM   19  C4  UNL     1      32.259   5.410  47.965  1.00  0.00     0.106 C 
HETATM   20  O4  UNL     1      33.476   5.990  48.189  1.00  0.00    -0.348 OA
HETATM   21  C18 UNL     1      33.764   7.351  47.953  1.00  0.00     0.202 C 
HETATM   22  C17 UNL     1      32.712   8.202  48.594  1.00  0.00     0.202 C 
HETATM   23  O3  UNL     1      31.725   7.366  49.155  1.00  0.00    -0.344 OA
BRANCH  19  24
HETATM   24  C3  UNL     1      31.778   4.202  47.309  1.00  0.00     0.235 C 
BRANCH  24  25
HETATM   25  O1  UNL     1      32.599   3.814  46.271  1.00  0.00    -0.385 OA
BRANCH  25  26
HETATM   26  C2  UNL     1      33.519   2.879  46.641  1.00  0.00     0.163 C 
HETATM   27  C1  UNL     1      34.946   3.299  46.308  1.00  0.00     0.033 C 
ENDBRANCH  25  26
ENDBRANCH  24  25
ENDBRANCH  19  24
ENDBRANCH   1  18
TORSDOF 8
ENDMDL
MODEL 3
REMARK VINA RESULT:      -7.3      3.775      6.354
REMARK  8 active torsions:
REMARK  status: ('A' for Active; 'I' for Inactive)
REMARK    1  A    between atoms: C2_2  and  O1_3 
REMARK    2  A    between atoms: O1_3  and  C3_4 
REMARK    3  A    between atoms: C3_4  and  C4_5 
REMARK    4  A    between atoms: C5_6  and  O2_7 
REMARK    5  A    between atoms: N1_10  and  C8_11 
REMARK    6  A    between atoms: N2_12  and  C9_13 
REMARK    7  A    between atoms: C9_13  and  N3_14 
REMARK    8  A    between atoms: N3_14  and  C10_15 
ROOT
HETATM    1  O2  UNL     1      25.639   1.925  52.977  1.00  0.00     0.000 OA
HETATM    2  C6  UNL     1      26.021   2.436  51.753  1.00  0.00     0.056 A 
HETATM    3  C7  UNL     1      26.392   3.012  50.408  1.00  0.00     0.072 C 
HETATM    4  N1  UNL     1      24.828   2.542  52.232  1.00  0.00    -0.245 N 
ENDROOT
BRANCH   4   5
HETATM    5  C8  UNL     1      23.865   3.227  51.441  1.00  0.00     0.229 C 
HETATM    6  N2  UNL     1      22.998   2.608  52.169  1.00  0.00    -0.263 NA
BRANCH   6   7
HETATM    7  C9  UNL     1      21.555   2.752  52.011  1.00  0.00     0.272 C 
BRANCH   7   8
HETATM    8  N3  UNL     1      21.058   1.717  51.118  1.00  0.00    -0.372 N 
HETATM    9  H14 UNL     1      21.513   1.594  50.164  1.00  0.00     0.161 HD
BRANCH   8  10
HETATM   10  C10 UNL     1      19.990   0.885  51.501  1.00  0.00     0.030 A 
HETATM   11  C11 UNL     1      20.018   0.287  52.745  1.00  0.00     0.030 A 
HETATM   12  C12 UNL     1      18.960  -0.517  53.082  1.00  0.00     0.011 A 
HETATM   13  C13 UNL     1      17.883  -0.757  52.256  1.00  0.00    -0.040 A 
HETATM   14  C14 UNL     1      16.774  -1.637  52.687  1.00  0.00     0.050 C 
HETATM   15  C15 UNL     1      17.891  -0.142  51.023  1.00  0.00     0.042 A 
HETATM   16 CL1  UNL     1      16.563  -0.386  49.900  1.00  0.00    -0.084 Cl
HETATM   17  C16 UNL     1      18.934   0.671  50.648  1.00  0.00     0.053 A 
ENDBRANCH   8  10
ENDBRANCH   7   8
ENDBRANCH   6   7
ENDBRANCH   4   5
BRANCH   1  18
HETATM   18  C5  UNL     1      26.658   1.373  53.785  1.00  0.00     0.136 C 
HETATM   19  C4  UNL     1      26.625   0.079  54.161  1.00  0.00     0.106 C 
HETATM   20  O4  UNL     1      27.730  -0.157  54.930  1.00  0.00    -0.348 OA
HETATM   21  C18 UNL     1      29.040   0.232  54.582  1.00  0.00     0.202 C 
HETATM   22  C17 UNL     1      29.042   1.677  54.187  1.00  0.00     0.202 C 
HETATM   23  O3  UNL     1      27.718   2.160  54.209  1.00  0.00    -0.344 OA
BRANCH  19  24
HETATM   24  C3  UNL     1      25.490  -0.701  53.688  1.00  0.00     0.235 C 
BRANCH  24  25
HETATM   25  O1  UNL     1      24.521  -0.847  54.660  1.00  0.00    -0.385 OA
BRANCH  25  26
HETATM   26  C2  UNL     1      23.266  -0.570  54.206  1.00  0.00     0.163 C 
HETATM   27  C1  UNL     1      22.254  -1.640  54.598  1.00  0.00     0.033 C 
ENDBRANCH  25  26
ENDBRANCH  24  25
ENDBRANCH  19  24
ENDBRANCH   1  18
TORSDOF 8
ENDMDL
MODEL 4
REMARK VINA RESULT:      -7.1      1.970      3.827
REMARK  8 active torsions:
REMARK  status: ('A' for Active; 'I' for Inactive)
REMARK    1  A    between atoms: C2_2  and  O1_3 
REMARK    2  A    between atoms: O1_3  and  C3_4 
REMARK    3  A    between atoms: C3_4  and  C4_5 
REMARK    4  A    between atoms: C5_6  and  O2_7 
REMARK    5  A    between atoms: N1_10  and  C8_11 
REMARK    6  A    between atoms: N2_12  and  C9_13 
REMARK    7  A    between atoms: C9_13  and  N3_14 
REMARK    8  A    between atoms: N3_14  and  C10_15 
ROOT
HETATM    1  O2  UNL     1      24.528   1.043  52.469  1.00  0.00     0.000 OA
HETATM    2  C6  UNL     1      23.562   2.027  52.461  1.00  0.00     0.056 A 
HETATM    3  C7  UNL     1      22.526   3.124  52.410  1.00  0.00     0.072 C 
HETATM    4  N1  UNL     1      24.512   1.949  51.591  1.00  0.00    -0.245 N 
ENDROOT
BRANCH   4   5
HETATM    5  C8  UNL     1      24.548   2.941  50.572  1.00  0.00     0.229 C 
HETATM    6  N2  UNL     1      25.819   2.719  50.564  1.00  0.00    -0.263 NA
BRANCH   6   7
HETATM    7  C9  UNL     1      26.758   3.410  49.687  1.00  0.00     0.272 C 
BRANCH   7   8
HETATM    8  N3  UNL     1      26.365   4.805  49.557  1.00  0.00    -0.372 N 
HETATM    9  H14 UNL     1      25.504   5.150  50.077  1.00  0.00     0.161 HD
BRANCH   8  10
HETATM   10  C10 UNL     1      27.107   5.691  48.755  1.00  0.00     0.030 A 
HETATM   11  C11 UNL     1      26.484   6.808  48.236  1.00  0.00     0.030 A 
HETATM   12  C12 UNL     1      27.240   7.648  47.459  1.00  0.00     0.011 A 
HETATM   13  C13 UNL     1      28.572   7.439  47.172  1.00  0.00    -0.040 A 
HETATM   14  C14 UNL     1      29.328   8.388  46.325  1.00  0.00     0.050 C 
HETATM   15  C15 UNL     1      29.159   6.313  47.709  1.00  0.00     0.042 A 
HETATM   16 CL1  UNL     1      30.851   5.959  47.401  1.00  0.00    -0.084 Cl
HETATM   17  C16 UNL     1      28.434   5.447  48.492  1.00  0.00     0.053 A 
ENDBRANCH   8  10
ENDBRANCH   7   8
ENDBRANCH   6   7
ENDBRANCH   4   5
BRANCH   1  18
HETATM   18  C5  UNL     1      24.374   0.004  53.415  1.00  0.00     0.136 C 
HETATM   19  C4  UNL     1      25.347  -0.281  54.302  1.00  0.00     0.106 C 
HETATM   20  O4  UNL     1      24.914  -1.322  55.073  1.00  0.00    -0.348 OA
HETATM   21  C18 UNL     1      23.643  -1.387  55.682  1.00  0.00     0.202 C 
HETATM   22  C17 UNL     1      22.587  -1.084  54.665  1.00  0.00     0.202 C 
HETATM   23  O3  UNL     1      23.209  -0.747  53.445  1.00  0.00    -0.344 OA
BRANCH  19  24
HETATM   24  C3  UNL     1      26.549   0.538  54.225  1.00  0.00     0.235 C 
BRANCH  24  25
HETATM   25  O1  UNL     1      27.692  -0.192  54.478  1.00  0.00    -0.385 OA
BRANCH  25  26
HETATM   26  C2  UNL     1      28.372  -0.527  53.345  1.00  0.00     0.163 C 
HETATM   27  C1  UNL     1      29.756  -1.092  53.639  1.00  0.00     0.033 C 
ENDBRANCH  25  26
ENDBRANCH  24  25
ENDBRANCH  19  24
ENDBRANCH   1  18
TORSDOF 8
ENDMDL
MODEL 5
REMARK VINA RESULT:      -7.1      4.587      8.031
REMARK  8 active torsions:
REMARK  status: ('A' for Active; 'I' for Inactive)
REMARK    1  A    between atoms: C2_2  and  O1_3 
REMARK    2  A    between atoms: O1_3  and  C3_4 
REMARK    3  A    between atoms: C3_4  and  C4_5 
REMARK    4  A    between atoms: C5_6  and  O2_7 
REMARK    5  A    between atoms: N1_10  and  C8_11 
REMARK    6  A    between atoms: N2_12  and  C9_13 
REMARK    7  A    between atoms: C9_13  and  N3_14 
REMARK    8  A    between atoms: N3_14  and  C10_15 
ROOT
HETATM    1  O2  UNL     1      25.358  -0.147  53.264  1.00  0.00     0.000 OA
HETATM    2  C6  UNL     1      24.789  -0.671  54.406  1.00  0.00     0.056 A 
HETATM    3  C7  UNL     1      24.123  -1.251  55.630  1.00  0.00     0.072 C 
HETATM    4  N1  UNL     1      24.166  -0.561  53.281  1.00  0.00    -0.245 N 
ENDROOT
BRANCH   4   5
HETATM    5  C8  UNL     1      22.818  -1.011  53.235  1.00  0.00     0.229 C 
HETATM    6  N2  UNL     1      22.589   0.105  52.630  1.00  0.00    -0.263 NA
BRANCH   6   7
HETATM    7  C9  UNL     1      21.271   0.518  52.159  1.00  0.00     0.272 C 
BRANCH   7   8
HETATM    8  N3  UNL     1      20.283   0.266  53.197  1.00  0.00    -0.372 N 
HETATM    9  H14 UNL     1      20.497   0.559  54.197  1.00  0.00     0.161 HD
BRANCH   8  10
HETATM   10  C10 UNL     1      19.060  -0.357  52.892  1.00  0.00     0.030 A 
HETATM   11  C11 UNL     1      18.184   0.269  52.028  1.00  0.00     0.030 A 
HETATM   12  C12 UNL     1      17.002  -0.369  51.755  1.00  0.00     0.011 A 
HETATM   13  C13 UNL     1      16.644  -1.588  52.291  1.00  0.00    -0.040 A 
HETATM   14  C14 UNL     1      15.350  -2.220  51.952  1.00  0.00     0.050 C 
HETATM   15  C15 UNL     1      17.545  -2.182  53.149  1.00  0.00     0.042 A 
HETATM   16 CL1  UNL     1      17.181  -3.736  53.883  1.00  0.00    -0.084 Cl
HETATM   17  C16 UNL     1      18.741  -1.573  53.447  1.00  0.00     0.053 A 
ENDBRANCH   8  10
ENDBRANCH   7   8
ENDBRANCH   6   7
ENDBRANCH   4   5
BRANCH   1  18
HETATM   18  C5  UNL     1      26.736   0.161  53.320  1.00  0.00     0.136 C 
HETATM   19  C4  UNL     1      27.261   1.149  52.569  1.00  0.00     0.106 C 
HETATM   20  O4  UNL     1      28.600   1.206  52.835  1.00  0.00    -0.348 OA
HETATM   21  C18 UNL     1      29.155   1.210  54.132  1.00  0.00     0.202 C 
HETATM   22  C17 UNL     1      28.564   0.090  54.931  1.00  0.00     0.202 C 
HETATM   23  O3  UNL     1      27.579  -0.556  54.155  1.00  0.00    -0.344 OA
BRANCH  19  24
HETATM   24  C3  UNL     1      26.331   1.869  51.710  1.00  0.00     0.235 C 
BRANCH  24  25
HETATM   25  O1  UNL     1      26.983   2.623  50.757  1.00  0.00    -0.385 OA
BRANCH  25  26
HETATM   26  C2  UNL     1      26.146   3.446  50.064  1.00  0.00     0.163 C 
HETATM   27  C1  UNL     1      26.895   4.400  49.142  1.00  0.00     0.033 C 
ENDBRANCH  25  26
ENDBRANCH  24  25
ENDBRANCH  19  24
ENDBRANCH   1  18
TORSDOF 8
ENDMDL
MODEL 6
REMARK VINA RESULT:      -7.1      2.803      4.762
REMARK  8 active torsions:
REMARK  status: ('A' for Active; 'I' for Inactive)
REMARK    1  A    between atoms: C2_2  and  O1_3 
REMARK    2  A    between atoms: O1_3  and  C3_4 
REMARK    3  A    between atoms: C3_4  and  C4_5 
REMARK    4  A    between atoms: C5_6  and  O2_7 
REMARK    5  A    between atoms: N1_10  and  C8_11 
REMARK    6  A    between atoms: N2_12  and  C9_13 
REMARK    7  A    between atoms: C9_13  and  N3_14 
REMARK    8  A    between atoms: N3_14  and  C10_15 
ROOT
HETATM    1  O2  UNL     1      25.420   0.066  53.287  1.00  0.00     0.000 OA
HETATM    2  C6  UNL     1      24.850  -0.570  54.371  1.00  0.00     0.056 A 
HETATM    3  C7  UNL     1      24.182  -1.268  55.530  1.00  0.00     0.072 C 
HETATM    4  N1  UNL     1      24.220  -0.323  53.272  1.00  0.00    -0.245 N 
ENDROOT
BRANCH   4   5
HETATM    5  C8  UNL     1      22.861  -0.737  53.191  1.00  0.00     0.229 C 
HETATM    6  N2  UNL     1      22.620   0.504  52.938  1.00  0.00    -0.263 NA
BRANCH   6   7
HETATM    7  C9  UNL     1      21.285   1.037  52.689  1.00  0.00     0.272 C 
BRANCH   7   8
HETATM    8  N3  UNL     1      21.066   1.149  51.255  1.00  0.00    -0.372 N 
HETATM    9  H14 UNL     1      20.460   0.424  50.766  1.00  0.00     0.161 HD
BRANCH   8  10
HETATM   10  C10 UNL     1      21.644   2.197  50.517  1.00  0.00     0.030 A 
HETATM   11  C11 UNL     1      22.316   1.904  49.348  1.00  0.00     0.030 A 
HETATM   12  C12 UNL     1      22.867   2.953  48.657  1.00  0.00     0.011 A 
HETATM   13  C13 UNL     1      22.786   4.268  49.062  1.00  0.00    -0.040 A 
HETATM   14  C14 UNL     1      23.405   5.350  48.265  1.00  0.00     0.050 C 
HETATM   15  C15 UNL     1      22.106   4.521  50.234  1.00  0.00     0.042 A 
HETATM   16 CL1  UNL     1      21.949   6.164  50.834  1.00  0.00    -0.084 Cl
HETATM   17  C16 UNL     1      21.541   3.496  50.955  1.00  0.00     0.053 A 
ENDBRANCH   8  10
ENDBRANCH   7   8
ENDBRANCH   6   7
ENDBRANCH   4   5
BRANCH   1  18
HETATM   18  C5  UNL     1      26.805   0.337  53.362  1.00  0.00     0.136 C 
HETATM   19  C4  UNL     1      27.350   1.371  52.691  1.00  0.00     0.106 C 
HETATM   20  O4  UNL     1      28.691   1.375  52.954  1.00  0.00    -0.348 OA
HETATM   21  C18 UNL     1      29.250   1.262  54.245  1.00  0.00     0.202 C 
HETATM   22  C17 UNL     1      28.635   0.094  54.953  1.00  0.00     0.202 C 
HETATM   23  O3  UNL     1      27.634  -0.465  54.132  1.00  0.00    -0.344 OA
BRANCH  19  24
HETATM   24  C3  UNL     1      26.434   2.178  51.897  1.00  0.00     0.235 C 
BRANCH  24  25
HETATM   25  O1  UNL     1      27.101   2.994  51.007  1.00  0.00    -0.385 OA
BRANCH  25  26
HETATM   26  C2  UNL     1      26.297   3.467  50.013  1.00  0.00     0.163 C 
HETATM   27  C1  UNL     1      27.038   4.384  49.049  1.00  0.00     0.033 C 
ENDBRANCH  25  26
ENDBRANCH  24  25
ENDBRANCH  19  24
ENDBRANCH   1  18
TORSDOF 8
ENDMDL
MODEL 7
REMARK VINA RESULT:      -6.8      2.090      2.654
REMARK  8 active torsions:
REMARK  status: ('A' for Active; 'I' for Inactive)
REMARK    1  A    between atoms: C2_2  and  O1_3 
REMARK    2  A    between atoms: O1_3  and  C3_4 
REMARK    3  A    between atoms: C3_4  and  C4_5 
REMARK    4  A    between atoms: C5_6  and  O2_7 
REMARK    5  A    between atoms: N1_10  and  C8_11 
REMARK    6  A    between atoms: N2_12  and  C9_13 
REMARK    7  A    between atoms: C9_13  and  N3_14 
REMARK    8  A    between atoms: N3_14  and  C10_15 
ROOT
HETATM    1  O2  UNL     1      26.025   2.003  52.368  1.00  0.00     0.000 OA
HETATM    2  C6  UNL     1      24.983   2.834  52.725  1.00  0.00     0.056 A 
HETATM    3  C7  UNL     1      23.832   3.749  53.067  1.00  0.00     0.072 C 
HETATM    4  N1  UNL     1      25.254   2.509  51.506  1.00  0.00    -0.245 N 
ENDROOT
BRANCH   4   5
HETATM    5  C8  UNL     1      24.421   3.046  50.486  1.00  0.00     0.229 C 
HETATM    6  N2  UNL     1      25.457   3.748  50.172  1.00  0.00    -0.263 NA
BRANCH   6   7
HETATM    7  C9  UNL     1      25.484   4.710  49.075  1.00  0.00     0.272 C 
BRANCH   7   8
HETATM    8  N3  UNL     1      26.291   5.859  49.456  1.00  0.00    -0.372 N 
HETATM    9  H14 UNL     1      26.079   6.359  50.370  1.00  0.00     0.161 HD
BRANCH   8  10
HETATM   10  C10 UNL     1      27.337   6.310  48.632  1.00  0.00     0.030 A 
HETATM   11  C11 UNL     1      27.171   7.475  47.911  1.00  0.00     0.030 A 
HETATM   12  C12 UNL     1      28.213   7.881  47.119  1.00  0.00     0.011 A 
HETATM   13  C13 UNL     1      29.405   7.197  47.004  1.00  0.00    -0.040 A 
HETATM   14  C14 UNL     1      30.489   7.695  46.129  1.00  0.00     0.050 C 
HETATM   15  C15 UNL     1      29.534   6.039  47.740  1.00  0.00     0.042 A 
HETATM   16 CL1  UNL     1      31.014   5.097  47.662  1.00  0.00    -0.084 Cl
HETATM   17  C16 UNL     1      28.511   5.599  48.546  1.00  0.00     0.053 A 
ENDBRANCH   8  10
ENDBRANCH   7   8
ENDBRANCH   6   7
ENDBRANCH   4   5
BRANCH   1  18
HETATM   18  C5  UNL     1      26.740   1.387  53.419  1.00  0.00     0.136 C 
HETATM   19  C4  UNL     1      26.391   0.170  53.880  1.00  0.00     0.106 C 
HETATM   20  O4  UNL     1      27.255  -0.157  54.887  1.00  0.00    -0.348 OA
HETATM   21  C18 UNL     1      28.658  -0.033  54.804  1.00  0.00     0.202 C 
HETATM   22  C17 UNL     1      29.009   1.336  54.307  1.00  0.00     0.202 C 
HETATM   23  O3  UNL     1      27.821   2.031  54.001  1.00  0.00    -0.344 OA
BRANCH  19  24
HETATM   24  C3  UNL     1      25.248  -0.461  53.233  1.00  0.00     0.235 C 
BRANCH  24  25
HETATM   25  O1  UNL     1      24.062  -0.163  53.872  1.00  0.00    -0.385 OA
BRANCH  25  26
HETATM   26  C2  UNL     1      23.011  -0.899  53.413  1.00  0.00     0.163 C 
HETATM   27  C1  UNL     1      22.127  -1.420  54.540  1.00  0.00     0.033 C 
ENDBRANCH  25  26
ENDBRANCH  24  25
ENDBRANCH  19  24
ENDBRANCH   1  18
TORSDOF 8
ENDMDL
MODEL 8
REMARK VINA RESULT:      -6.7      2.368      4.176
REMARK  8 active torsions:
REMARK  status: ('A' for Active; 'I' for Inactive)
REMARK    1  A    between atoms: C2_2  and  O1_3 
REMARK    2  A    between atoms: O1_3  and  C3_4 
REMARK    3  A    between atoms: C3_4  and  C4_5 
REMARK    4  A    between atoms: C5_6  and  O2_7 
REMARK    5  A    between atoms: N1_10  and  C8_11 
REMARK    6  A    between atoms: N2_12  and  C9_13 
REMARK    7  A    between atoms: C9_13  and  N3_14 
REMARK    8  A    between atoms: N3_14  and  C10_15 
ROOT
HETATM    1  O2  UNL     1      22.944   1.443  51.699  1.00  0.00     0.000 OA
HETATM    2  C6  UNL     1      22.311   1.290  50.484  1.00  0.00     0.056 A 
HETATM    3  C7  UNL     1      21.639   1.165  49.138  1.00  0.00     0.072 C 
HETATM    4  N1  UNL     1      23.092   2.278  50.765  1.00  0.00    -0.245 N 
ENDROOT
BRANCH   4   5
HETATM    5  C8  UNL     1      23.300   3.255  49.752  1.00  0.00     0.229 C 
HETATM    6  N2  UNL     1      24.055   3.830  50.625  1.00  0.00    -0.263 NA
BRANCH   6   7
HETATM    7  C9  UNL     1      24.771   5.078  50.383  1.00  0.00     0.272 C 
BRANCH   7   8
HETATM    8  N3  UNL     1      25.183   5.138  48.989  1.00  0.00    -0.372 N 
HETATM    9  H14 UNL     1      24.504   4.821  48.234  1.00  0.00     0.161 HD
BRANCH   8  10
HETATM   10  C10 UNL     1      26.460   5.609  48.634  1.00  0.00     0.030 A 
HETATM   11  C11 UNL     1      27.538   4.750  48.714  1.00  0.00     0.030 A 
HETATM   12  C12 UNL     1      28.767   5.245  48.360  1.00  0.00     0.011 A 
HETATM   13  C13 UNL     1      28.982   6.539  47.936  1.00  0.00    -0.040 A 
HETATM   14  C14 UNL     1      30.337   7.006  47.570  1.00  0.00     0.050 C 
HETATM   15  C15 UNL     1      27.881   7.366  47.869  1.00  0.00     0.042 A 
HETATM   16 CL1  UNL     1      28.052   9.032  47.340  1.00  0.00    -0.084 Cl
HETATM   17  C16 UNL     1      26.633   6.906  48.215  1.00  0.00     0.053 A 
ENDBRANCH   8  10
ENDBRANCH   7   8
ENDBRANCH   6   7
ENDBRANCH   4   5
BRANCH   1  18
HETATM   18  C5  UNL     1      22.816   0.383  52.625  1.00  0.00     0.136 C 
HETATM   19  C4  UNL     1      23.852   0.004  53.399  1.00  0.00     0.106 C 
HETATM   20  O4  UNL     1      23.430  -1.035  54.179  1.00  0.00    -0.348 OA
HETATM   21  C18 UNL     1      22.224  -1.041  54.912  1.00  0.00     0.202 C 
HETATM   22  C17 UNL     1      21.094  -0.634  54.018  1.00  0.00     0.202 C 
HETATM   23  O3  UNL     1      21.612  -0.293  52.751  1.00  0.00    -0.344 OA
BRANCH  19  24
HETATM   24  C3  UNL     1      25.093   0.748  53.224  1.00  0.00     0.235 C 
BRANCH  24  25
HETATM   25  O1  UNL     1      26.120  -0.056  52.775  1.00  0.00    -0.385 OA
BRANCH  25  26
HETATM   26  C2  UNL     1      26.963  -0.449  53.771  1.00  0.00     0.163 C 
HETATM   27  C1  UNL     1      28.398  -0.621  53.288  1.00  0.00     0.033 C 
ENDBRANCH  25  26
ENDBRANCH  24  25
ENDBRANCH  19  24
ENDBRANCH   1  18
TORSDOF 8
ENDMDL
MODEL 9
REMARK VINA RESULT:      -6.6      3.974      7.244
REMARK  8 active torsions:
REMARK  status: ('A' for Active; 'I' for Inactive)
REMARK    1  A    between atoms: C2_2  and  O1_3 
REMARK    2  A    between atoms: O1_3  and  C3_4 
REMARK    3  A    between atoms: C3_4  and  C4_5 
REMARK    4  A    between atoms: C5_6  and  O2_7 
REMARK    5  A    between atoms: N1_10  and  C8_11 
REMARK    6  A    between atoms: N2_12  and  C9_13 
REMARK    7  A    between atoms: C9_13  and  N3_14 
REMARK    8  A    between atoms: N3_14  and  C10_15 
ROOT
HETATM    1  O2  UNL     1      21.477   2.072  50.293  1.00  0.00     0.000 OA
HETATM    2  C6  UNL     1      21.864   2.066  48.969  1.00  0.00     0.056 A 
HETATM    3  C7  UNL     1      22.331   2.083  47.534  1.00  0.00     0.072 C 
HETATM    4  N1  UNL     1      22.581   2.556  49.923  1.00  0.00    -0.245 N 
ENDROOT
BRANCH   4   5
HETATM    5  C8  UNL     1      23.840   3.118  49.571  1.00  0.00     0.229 C 
HETATM    6  N2  UNL     1      24.167   2.855  50.791  1.00  0.00    -0.263 NA
BRANCH   6   7
HETATM    7  C9  UNL     1      25.477   3.148  51.362  1.00  0.00     0.272 C 
BRANCH   7   8
HETATM    8  N3  UNL     1      25.606   2.485  52.651  1.00  0.00    -0.372 N 
HETATM    9  H14 UNL     1      24.879   2.674  53.404  1.00  0.00     0.161 HD
BRANCH   8  10
HETATM   10  C10 UNL     1      26.673   1.605  52.906  1.00  0.00     0.030 A 
HETATM   11  C11 UNL     1      27.857   2.112  53.402  1.00  0.00     0.030 A 
HETATM   12  C12 UNL     1      28.874   1.223  53.638  1.00  0.00     0.011 A 
HETATM   13  C13 UNL     1      28.779  -0.133  53.407  1.00  0.00    -0.040 A 
HETATM   14  C14 UNL     1      29.919  -1.035  53.685  1.00  0.00     0.050 C 
HETATM   15  C15 UNL     1      27.581  -0.601  52.912  1.00  0.00     0.042 A 
HETATM   16 CL1  UNL     1      27.362  -2.313  52.586  1.00  0.00    -0.084 Cl
HETATM   17  C16 UNL     1      26.538   0.259  52.663  1.00  0.00     0.053 A 
ENDBRANCH   8  10
ENDBRANCH   7   8
ENDBRANCH   6   7
ENDBRANCH   4   5
BRANCH   1  18
HETATM   18  C5  UNL     1      20.284   1.384  50.613  1.00  0.00     0.136 C 
HETATM   19  C4  UNL     1      20.099   0.837  51.831  1.00  0.00     0.106 C 
HETATM   20  O4  UNL     1      18.868   0.246  51.838  1.00  0.00    -0.348 OA
HETATM   21  C18 UNL     1      17.685   0.863  51.379  1.00  0.00     0.202 C 
HETATM   22  C17 UNL     1      17.922   1.443  50.018  1.00  0.00     0.202 C 
HETATM   23  O3  UNL     1      19.275   1.259  49.670  1.00  0.00    -0.344 OA
BRANCH  19  24
HETATM   24  C3  UNL     1      21.191   0.999  52.781  1.00  0.00     0.235 C 
BRANCH  24  25
HETATM   25  O1  UNL     1      21.703  -0.214  53.193  1.00  0.00    -0.385 OA
BRANCH  25  26
HETATM   26  C2  UNL     1      23.064  -0.219  53.269  1.00  0.00     0.163 C 
HETATM   27  C1  UNL     1      23.575  -0.836  54.564  1.00  0.00     0.033 C 
ENDBRANCH  25  26
ENDBRANCH  24  25
ENDBRANCH  19  24
ENDBRANCH   1  18
TORSDOF 8
ENDMDL
