MODEL 1
REMARK VINA RESULT:      -7.3      0.000      0.000
REMARK  7 active torsions:
REMARK  status: ('A' for Active; 'I' for Inactive)
REMARK    1  A    between atoms: S1_2  and  C2_3 
REMARK    2  A    between atoms: C2_3  and  C3_4 
REMARK    3  A    between atoms: C3_4  and  C4_5 
REMARK    4  A    between atoms: C4_5  and  O1_6 
REMARK    5  A    between atoms: C5_7  and  C6_8 
REMARK    6  A    between atoms: C5_7  and  C16_20 
REMARK    7  A    between atoms: C16_20  and  S2_21 
ROOT
HETATM    1  C6  UNL     1      24.961   1.793  52.320  1.00  0.00     0.013 C 
HETATM    2  C7  UNL     1      26.154   1.280  52.478  1.00  0.00    -0.071 C 
HETATM    3  C8  UNL     1      26.635  -0.091  52.574  1.00  0.00     0.028 C 
HETATM    4  C9  UNL     1      26.869  -1.383  52.618  1.00  0.00     0.009 C 
HETATM    5  C10 UNL     1      28.100  -2.065  52.931  1.00  0.00     0.031 A 
HETATM    6  C11 UNL     1      29.357  -2.356  53.297  1.00  0.00     0.035 A 
HETATM    7  C12 UNL     1      29.371  -0.995  53.515  1.00  0.00    -0.030 A 
HETATM    8  C13 UNL     1      29.369   0.129  53.711  1.00  0.00     0.207 A 
HETATM    9  N1  UNL     1      29.341   1.492  53.953  1.00  0.00     0.137 N 
HETATM   10  C14 UNL     1      28.313   2.305  53.280  1.00  0.00     0.245 A 
HETATM   11  O2  UNL     1      28.366   1.071  53.097  1.00  0.00     0.000 OA
HETATM   12  C15 UNL     1      27.183   2.329  52.368  1.00  0.00     0.082 C 
HETATM   13  H14 UNL     1      30.010   1.970  54.587  1.00  0.00     0.325 HD
ENDROOT
BRANCH   1  14
HETATM   14  C5  UNL     1      23.527   1.460  52.155  1.00  0.00    -0.020 C 
HETATM   15  C4  UNL     1      22.871   1.700  51.014  1.00  0.00     0.051 C 
BRANCH  15  16
HETATM   16  C3  UNL     1      21.698   1.684  50.184  1.00  0.00     0.075 C 
BRANCH  16  17
HETATM   17  C2  UNL     1      20.653   2.717  50.548  1.00  0.00     0.080 C 
BRANCH  17  18
HETATM   18  S1  UNL     1      19.571   2.137  51.876  1.00  0.00    -0.173 SA
HETATM   19  C1  UNL     1      19.323   0.358  51.828  1.00  0.00     0.089 C 
ENDBRANCH  17  18
ENDBRANCH  16  17
ENDBRANCH  15  16
BRANCH  15  20
HETATM   20  O1  UNL     1      23.760   2.288  50.072  1.00  0.00    -0.364 OA
HETATM   21  H8  UNL     1      23.399   2.434  49.137  1.00  0.00     0.217 HD
ENDBRANCH  15  20
BRANCH  14  22
HETATM   22  C16 UNL     1      22.820   0.852  53.297  1.00  0.00     0.114 C 
BRANCH  22  23
HETATM   23  S2  UNL     1      22.705  -0.960  53.207  1.00  0.00    -0.169 SA
HETATM   24  C17 UNL     1      21.454  -1.458  54.452  1.00  0.00     0.090 C 
ENDBRANCH  22  23
ENDBRANCH  14  22
ENDBRANCH   1  14
TORSDOF 7
ENDMDL
MODEL 2
REMARK VINA RESULT:      -7.2      3.699      5.921
REMARK  7 active torsions:
REMARK  status: ('A' for Active; 'I' for Inactive)
REMARK    1  A    between atoms: S1_2  and  C2_3 
REMARK    2  A    between atoms: C2_3  and  C3_4 
REMARK    3  A    between atoms: C3_4  and  C4_5 
REMARK    4  A    between atoms: C4_5  and  O1_6 
REMARK    5  A    between atoms: C5_7  and  C6_8 
REMARK    6  A    between atoms: C5_7  and  C16_20 
REMARK    7  A    between atoms: C16_20  and  S2_21 
ROOT
HETATM    1  C6  UNL     1      25.372   2.040  51.551  1.00  0.00     0.013 C 
HETATM    2  C7  UNL     1      24.909   1.073  52.300  1.00  0.00    -0.071 C 
HETATM    3  C8  UNL     1      23.559   0.676  52.677  1.00  0.00     0.028 C 
HETATM    4  C9  UNL     1      22.279   0.466  52.881  1.00  0.00     0.009 C 
HETATM    5  C10 UNL     1      21.651  -0.460  53.791  1.00  0.00     0.031 A 
HETATM    6  C11 UNL     1      21.417  -1.374  54.744  1.00  0.00     0.035 A 
HETATM    7  C12 UNL     1      22.783  -1.248  54.887  1.00  0.00    -0.030 A 
HETATM    8  C13 UNL     1      23.910  -1.125  55.012  1.00  0.00     0.207 A 
HETATM    9  N1  UNL     1      25.276  -0.950  55.155  1.00  0.00     0.137 N 
HETATM   10  C14 UNL     1      26.033  -0.377  54.028  1.00  0.00     0.245 A 
HETATM   11  O2  UNL     1      24.798  -0.540  53.944  1.00  0.00     0.000 OA
HETATM   12  C15 UNL     1      25.994   0.149  52.675  1.00  0.00     0.082 C 
HETATM   13  H14 UNL     1      25.794  -1.205  56.018  1.00  0.00     0.325 HD
ENDROOT
BRANCH   1  14
HETATM   14  C5  UNL     1      24.981   3.195  50.708  1.00  0.00    -0.020 C 
HETATM   15  C4  UNL     1      25.889   3.985  50.124  1.00  0.00     0.051 C 
BRANCH  15  16
HETATM   16  C3  UNL     1      26.279   5.099  49.305  1.00  0.00     0.075 C 
BRANCH  16  17
HETATM   17  C2  UNL     1      27.616   4.937  48.614  1.00  0.00     0.080 C 
BRANCH  17  18
HETATM   18  S1  UNL     1      28.331   6.533  48.154  1.00  0.00    -0.173 SA
HETATM   19  C1  UNL     1      30.092   6.420  47.811  1.00  0.00     0.089 C 
ENDBRANCH  17  18
ENDBRANCH  16  17
ENDBRANCH  15  16
BRANCH  15  20
HETATM   20  O1  UNL     1      27.196   3.523  50.449  1.00  0.00    -0.364 OA
HETATM   21  H8  UNL     1      27.491   2.656  50.018  1.00  0.00     0.217 HD
ENDBRANCH  15  20
BRANCH  14  22
HETATM   22  C16 UNL     1      23.543   3.466  50.526  1.00  0.00     0.114 C 
BRANCH  22  23
HETATM   23  S2  UNL     1      22.795   4.404  51.891  1.00  0.00    -0.169 SA
HETATM   24  C17 UNL     1      21.040   3.880  51.975  1.00  0.00     0.090 C 
ENDBRANCH  22  23
ENDBRANCH  14  22
ENDBRANCH   1  14
TORSDOF 7
ENDMDL
MODEL 3
REMARK VINA RESULT:      -7.1      1.717      2.160
REMARK  7 active torsions:
REMARK  status: ('A' for Active; 'I' for Inactive)
REMARK    1  A    between atoms: S1_2  and  C2_3 
REMARK    2  A    between atoms: C2_3  and  C3_4 
REMARK    3  A    between atoms: C3_4  and  C4_5 
REMARK    4  A    between atoms: C4_5  and  O1_6 
REMARK    5  A    between atoms: C5_7  and  C6_8 
REMARK    6  A    between atoms: C5_7  and  C16_20 
REMARK    7  A    between atoms: C16_20  and  S2_21 
ROOT
HETATM    1  C6  UNL     1      25.367   2.377  52.454  1.00  0.00     0.013 C 
HETATM    2  C7  UNL     1      26.427   1.621  52.582  1.00  0.00    -0.071 C 
HETATM    3  C8  UNL     1      26.619   0.177  52.549  1.00  0.00     0.028 C 
HETATM    4  C9  UNL     1      26.589  -1.133  52.466  1.00  0.00     0.009 C 
HETATM    5  C10 UNL     1      27.645  -2.078  52.731  1.00  0.00     0.031 A 
HETATM    6  C11 UNL     1      28.803  -2.651  53.089  1.00  0.00     0.035 A 
HETATM    7  C12 UNL     1      29.081  -1.348  53.445  1.00  0.00    -0.030 A 
HETATM    8  C13 UNL     1      29.296  -0.271  53.753  1.00  0.00     0.207 A 
HETATM    9  N1  UNL     1      29.531   1.039  54.132  1.00  0.00     0.137 N 
HETATM   10  C14 UNL     1      28.714   2.104  53.525  1.00  0.00     0.245 A 
HETATM   11  O2  UNL     1      28.526   0.909  53.219  1.00  0.00     0.000 OA
HETATM   12  C15 UNL     1      27.648   2.445  52.599  1.00  0.00     0.082 C 
HETATM   13  H14 UNL     1      30.257   1.309  54.824  1.00  0.00     0.325 HD
ENDROOT
BRANCH   1  14
HETATM   14  C5  UNL     1      23.903   2.360  52.230  1.00  0.00    -0.020 C 
HETATM   15  C4  UNL     1      23.151   3.457  52.378  1.00  0.00     0.051 C 
BRANCH  15  16
HETATM   16  C3  UNL     1      21.900   4.163  52.357  1.00  0.00     0.075 C 
BRANCH  16  17
HETATM   17  C2  UNL     1      21.720   5.093  51.176  1.00  0.00     0.080 C 
BRANCH  17  18
HETATM   18  S1  UNL     1      21.739   4.195  49.607  1.00  0.00    -0.173 SA
HETATM   19  C1  UNL     1      23.321   4.325  48.764  1.00  0.00     0.089 C 
ENDBRANCH  17  18
ENDBRANCH  16  17
ENDBRANCH  15  16
BRANCH  15  20
HETATM   20  O1  UNL     1      23.979   4.549  52.760  1.00  0.00    -0.364 OA
HETATM   21  H8  UNL     1      23.978   4.798  53.742  1.00  0.00     0.217 HD
ENDBRANCH  15  20
BRANCH  14  22
HETATM   22  C16 UNL     1      23.276   1.085  51.837  1.00  0.00     0.114 C 
BRANCH  22  23
HETATM   23  S2  UNL     1      22.792   0.042  53.244  1.00  0.00    -0.169 SA
HETATM   24  C17 UNL     1      21.079   0.529  53.681  1.00  0.00     0.090 C 
ENDBRANCH  22  23
ENDBRANCH  14  22
ENDBRANCH   1  14
TORSDOF 7
ENDMDL
MODEL 4
REMARK VINA RESULT:      -7.1      1.483      2.429
REMARK  7 active torsions:
REMARK  status: ('A' for Active; 'I' for Inactive)
REMARK    1  A    between atoms: S1_2  and  C2_3 
REMARK    2  A    between atoms: C2_3  and  C3_4 
REMARK    3  A    between atoms: C3_4  and  C4_5 
REMARK    4  A    between atoms: C4_5  and  O1_6 
REMARK    5  A    between atoms: C5_7  and  C6_8 
REMARK    6  A    between atoms: C5_7  and  C16_20 
REMARK    7  A    between atoms: C16_20  and  S2_21 
ROOT
HETATM    1  C6  UNL     1      24.991   1.632  52.132  1.00  0.00     0.013 C 
HETATM    2  C7  UNL     1      26.195   1.172  52.356  1.00  0.00    -0.071 C 
HETATM    3  C8  UNL     1      26.731  -0.177  52.470  1.00  0.00     0.028 C 
HETATM    4  C9  UNL     1      27.022  -1.457  52.516  1.00  0.00     0.009 C 
HETATM    5  C10 UNL     1      28.262  -2.087  52.895  1.00  0.00     0.031 A 
HETATM    6  C11 UNL     1      29.507  -2.325  53.333  1.00  0.00     0.035 A 
HETATM    7  C12 UNL     1      29.446  -0.966  53.563  1.00  0.00    -0.030 A 
HETATM    8  C13 UNL     1      29.381   0.154  53.768  1.00  0.00     0.207 A 
HETATM    9  N1  UNL     1      29.277   1.511  54.020  1.00  0.00     0.137 N 
HETATM   10  C14 UNL     1      28.254   2.284  53.293  1.00  0.00     0.245 A 
HETATM   11  O2  UNL     1      28.373   1.056  53.103  1.00  0.00     0.000 OA
HETATM   12  C15 UNL     1      27.179   2.268  52.316  1.00  0.00     0.082 C 
HETATM   13  H14 UNL     1      29.884   2.012  54.696  1.00  0.00     0.325 HD
ENDROOT
BRANCH   1  14
HETATM   14  C5  UNL     1      23.585   1.237  51.880  1.00  0.00    -0.020 C 
HETATM   15  C4  UNL     1      22.905   0.461  52.732  1.00  0.00     0.051 C 
BRANCH  15  16
HETATM   16  C3  UNL     1      21.730  -0.250  53.157  1.00  0.00     0.075 C 
BRANCH  16  17
HETATM   17  C2  UNL     1      20.493   0.610  53.308  1.00  0.00     0.080 C 
BRANCH  17  18
HETATM   18  S1  UNL     1      19.111  -0.026  52.330  1.00  0.00    -0.173 SA
HETATM   19  C1  UNL     1      18.155  -1.260  53.219  1.00  0.00     0.089 C 
ENDBRANCH  17  18
ENDBRANCH  16  17
ENDBRANCH  15  16
BRANCH  15  20
HETATM   20  O1  UNL     1      23.738   0.126  53.836  1.00  0.00    -0.364 OA
HETATM   21  H8  UNL     1      23.512   0.559  54.723  1.00  0.00     0.217 HD
ENDBRANCH  15  20
BRANCH  14  22
HETATM   22  C16 UNL     1      22.939   1.719  50.646  1.00  0.00     0.114 C 
BRANCH  22  23
HETATM   23  S2  UNL     1      21.995   3.256  50.866  1.00  0.00    -0.169 SA
HETATM   24  C17 UNL     1      20.325   2.937  50.179  1.00  0.00     0.090 C 
ENDBRANCH  22  23
ENDBRANCH  14  22
ENDBRANCH   1  14
TORSDOF 7
ENDMDL
MODEL 5
REMARK VINA RESULT:      -7.1      3.670      5.691
REMARK  7 active torsions:
REMARK  status: ('A' for Active; 'I' for Inactive)
REMARK    1  A    between atoms: S1_2  and  C2_3 
REMARK    2  A    between atoms: C2_3  and  C3_4 
REMARK    3  A    between atoms: C3_4  and  C4_5 
REMARK    4  A    between atoms: C4_5  and  O1_6 
REMARK    5  A    between atoms: C5_7  and  C6_8 
REMARK    6  A    between atoms: C5_7  and  C16_20 
REMARK    7  A    between atoms: C16_20  and  S2_21 
ROOT
HETATM    1  C6  UNL     1      25.407   2.110  51.475  1.00  0.00     0.013 C 
HETATM    2  C7  UNL     1      24.944   1.141  52.221  1.00  0.00    -0.071 C 
HETATM    3  C8  UNL     1      23.594   0.748  52.603  1.00  0.00     0.028 C 
HETATM    4  C9  UNL     1      22.314   0.545  52.815  1.00  0.00     0.009 C 
HETATM    5  C10 UNL     1      21.687  -0.384  53.722  1.00  0.00     0.031 A 
HETATM    6  C11 UNL     1      21.454  -1.303  54.671  1.00  0.00     0.035 A 
HETATM    7  C12 UNL     1      22.821  -1.186  54.806  1.00  0.00    -0.030 A 
HETATM    8  C13 UNL     1      23.950  -1.069  54.924  1.00  0.00     0.207 A 
HETATM    9  N1  UNL     1      25.317  -0.904  55.060  1.00  0.00     0.137 N 
HETATM   10  C14 UNL     1      26.071  -0.327  53.932  1.00  0.00     0.245 A 
HETATM   11  O2  UNL     1      24.834  -0.483  53.855  1.00  0.00     0.000 OA
HETATM   12  C15 UNL     1      26.026   0.208  52.583  1.00  0.00     0.082 C 
HETATM   13  H14 UNL     1      25.839  -1.166  55.918  1.00  0.00     0.325 HD
ENDROOT
BRANCH   1  14
HETATM   14  C5  UNL     1      25.018   3.273  50.643  1.00  0.00    -0.020 C 
HETATM   15  C4  UNL     1      25.927   4.074  50.076  1.00  0.00     0.051 C 
BRANCH  15  16
HETATM   16  C3  UNL     1      26.318   5.200  49.273  1.00  0.00     0.075 C 
BRANCH  16  17
HETATM   17  C2  UNL     1      25.708   6.520  49.699  1.00  0.00     0.080 C 
BRANCH  17  18
HETATM   18  S1  UNL     1      26.551   7.925  48.934  1.00  0.00    -0.173 SA
HETATM   19  C1  UNL     1      27.224   9.064  50.150  1.00  0.00     0.089 C 
ENDBRANCH  17  18
ENDBRANCH  16  17
ENDBRANCH  15  16
BRANCH  15  20
HETATM   20  O1  UNL     1      27.233   3.616  50.407  1.00  0.00    -0.364 OA
HETATM   21  H8  UNL     1      27.290   2.792  50.993  1.00  0.00     0.217 HD
ENDBRANCH  15  20
BRANCH  14  22
HETATM   22  C16 UNL     1      23.580   3.538  50.451  1.00  0.00     0.114 C 
BRANCH  22  23
HETATM   23  S2  UNL     1      22.937   2.970  48.849  1.00  0.00    -0.169 SA
HETATM   24  C17 UNL     1      21.890   1.507  49.205  1.00  0.00     0.090 C 
ENDBRANCH  22  23
ENDBRANCH  14  22
ENDBRANCH   1  14
TORSDOF 7
ENDMDL
MODEL 6
REMARK VINA RESULT:      -7.0      3.310      7.686
REMARK  7 active torsions:
REMARK  status: ('A' for Active; 'I' for Inactive)
REMARK    1  A    between atoms: S1_2  and  C2_3 
REMARK    2  A    between atoms: C2_3  and  C3_4 
REMARK    3  A    between atoms: C3_4  and  C4_5 
REMARK    4  A    between atoms: C4_5  and  O1_6 
REMARK    5  A    between atoms: C5_7  and  C6_8 
REMARK    6  A    between atoms: C5_7  and  C16_20 
REMARK    7  A    between atoms: C16_20  and  S2_21 
ROOT
HETATM    1  C6  UNL     1      23.832   0.280  53.650  1.00  0.00     0.013 C 
HETATM    2  C7  UNL     1      22.636  -0.039  53.227  1.00  0.00    -0.071 C 
HETATM    3  C8  UNL     1      21.799   0.475  52.151  1.00  0.00     0.028 C 
HETATM    4  C9  UNL     1      21.211   1.055  51.131  1.00  0.00     0.009 C 
HETATM    5  C10 UNL     1      19.856   0.900  50.662  1.00  0.00     0.031 A 
HETATM    6  C11 UNL     1      18.567   0.554  50.534  1.00  0.00     0.035 A 
HETATM    7  C12 UNL     1      18.840  -0.047  51.745  1.00  0.00    -0.030 A 
HETATM    8  C13 UNL     1      19.069  -0.525  52.756  1.00  0.00     0.207 A 
HETATM    9  N1  UNL     1      19.364  -1.087  53.986  1.00  0.00     0.137 N 
HETATM   10  C14 UNL     1      20.776  -1.341  54.322  1.00  0.00     0.245 A 
HETATM   11  O2  UNL     1      20.468  -0.826  53.227  1.00  0.00     0.000 OA
HETATM   12  C15 UNL     1      22.163  -1.263  53.898  1.00  0.00     0.082 C 
HETATM   13  H14 UNL     1      18.638  -1.339  54.684  1.00  0.00     0.325 HD
ENDROOT
BRANCH   1  14
HETATM   14  C5  UNL     1      24.981   1.186  53.420  1.00  0.00    -0.020 C 
HETATM   15  C4  UNL     1      26.236   0.827  53.712  1.00  0.00     0.051 C 
BRANCH  15  16
HETATM   16  C3  UNL     1      27.652   1.063  53.784  1.00  0.00     0.075 C 
BRANCH  16  17
HETATM   17  C2  UNL     1      28.419   0.052  54.610  1.00  0.00     0.080 C 
BRANCH  17  18
HETATM   18  S1  UNL     1      29.639  -0.839  53.616  1.00  0.00    -0.173 SA
HETATM   19  C1  UNL     1      29.107  -2.507  53.213  1.00  0.00     0.089 C 
ENDBRANCH  17  18
ENDBRANCH  16  17
ENDBRANCH  15  16
BRANCH  15  20
HETATM   20  O1  UNL     1      26.238  -0.494  54.242  1.00  0.00    -0.364 OA
HETATM   21  H8  UNL     1      27.111  -0.824  54.636  1.00  0.00     0.217 HD
ENDBRANCH  15  20
BRANCH  14  22
HETATM   22  C16 UNL     1      24.710   2.521  52.855  1.00  0.00     0.114 C 
BRANCH  22  23
HETATM   23  S2  UNL     1      24.829   2.589  51.043  1.00  0.00    -0.169 SA
HETATM   24  C17 UNL     1      26.574   2.997  50.656  1.00  0.00     0.090 C 
ENDBRANCH  22  23
ENDBRANCH  14  22
ENDBRANCH   1  14
TORSDOF 7
ENDMDL
MODEL 7
REMARK VINA RESULT:      -6.4      5.333      7.964
REMARK  7 active torsions:
REMARK  status: ('A' for Active; 'I' for Inactive)
REMARK    1  A    between atoms: S1_2  and  C2_3 
REMARK    2  A    between atoms: C2_3  and  C3_4 
REMARK    3  A    between atoms: C3_4  and  C4_5 
REMARK    4  A    between atoms: C4_5  and  O1_6 
REMARK    5  A    between atoms: C5_7  and  C6_8 
REMARK    6  A    between atoms: C5_7  and  C16_20 
REMARK    7  A    between atoms: C16_20  and  S2_21 
ROOT
HETATM    1  C6  UNL     1      26.650   4.515  49.622  1.00  0.00     0.013 C 
HETATM    2  C7  UNL     1      25.809   3.568  49.952  1.00  0.00    -0.071 C 
HETATM    3  C8  UNL     1      24.485   3.209  49.464  1.00  0.00     0.028 C 
HETATM    4  C9  UNL     1      23.323   3.034  48.878  1.00  0.00     0.009 C 
HETATM    5  C10 UNL     1      22.257   2.134  49.241  1.00  0.00     0.031 A 
HETATM    6  C11 UNL     1      21.484   1.236  49.870  1.00  0.00     0.035 A 
HETATM    7  C12 UNL     1      22.510   1.329  50.787  1.00  0.00    -0.030 A 
HETATM    8  C13 UNL     1      23.353   1.425  51.550  1.00  0.00     0.207 A 
HETATM    9  N1  UNL     1      24.379   1.566  52.468  1.00  0.00     0.137 N 
HETATM   10  C14 UNL     1      25.668   2.109  52.003  1.00  0.00     0.245 A 
HETATM   11  O2  UNL     1      24.713   1.976  51.209  1.00  0.00     0.000 OA
HETATM   12  C15 UNL     1      26.443   2.621  50.887  1.00  0.00     0.082 C 
HETATM   13  H14 UNL     1      24.286   1.308  53.469  1.00  0.00     0.325 HD
ENDROOT
BRANCH   1  14
HETATM   14  C5  UNL     1      26.858   5.670  48.718  1.00  0.00    -0.020 C 
HETATM   15  C4  UNL     1      28.079   6.054  48.330  1.00  0.00     0.051 C 
BRANCH  15  16
HETATM   16  C3  UNL     1      28.984   6.904  47.607  1.00  0.00     0.075 C 
BRANCH  16  17
HETATM   17  C2  UNL     1      28.803   8.385  47.867  1.00  0.00     0.080 C 
BRANCH  17  18
HETATM   18  S1  UNL     1      29.985   9.000  49.090  1.00  0.00    -0.173 SA
HETATM   19  C1  UNL     1      31.370   7.879  49.326  1.00  0.00     0.089 C 
ENDBRANCH  17  18
ENDBRANCH  16  17
ENDBRANCH  15  16
BRANCH  15  20
HETATM   20  O1  UNL     1      29.053   5.195  48.913  1.00  0.00    -0.364 OA
HETATM   21  H8  UNL     1      29.674   4.714  48.275  1.00  0.00     0.217 HD
ENDBRANCH  15  20
BRANCH  14  22
HETATM   22  C16 UNL     1      25.671   6.406  48.248  1.00  0.00     0.114 C 
BRANCH  22  23
HETATM   23  S2  UNL     1      24.841   7.368  49.548  1.00  0.00    -0.169 SA
HETATM   24  C17 UNL     1      26.130   8.429  50.305  1.00  0.00     0.090 C 
ENDBRANCH  22  23
ENDBRANCH  14  22
ENDBRANCH   1  14
TORSDOF 7
ENDMDL
MODEL 8
REMARK VINA RESULT:      -6.4      3.550      5.867
REMARK  7 active torsions:
REMARK  status: ('A' for Active; 'I' for Inactive)
REMARK    1  A    between atoms: S1_2  and  C2_3 
REMARK    2  A    between atoms: C2_3  and  C3_4 
REMARK    3  A    between atoms: C3_4  and  C4_5 
REMARK    4  A    between atoms: C4_5  and  O1_6 
REMARK    5  A    between atoms: C5_7  and  C6_8 
REMARK    6  A    between atoms: C5_7  and  C16_20 
REMARK    7  A    between atoms: C16_20  and  S2_21 
ROOT
HETATM    1  C6  UNL     1      19.874  -0.476  53.406  1.00  0.00     0.013 C 
HETATM    2  C7  UNL     1      21.146  -0.210  53.559  1.00  0.00    -0.071 C 
HETATM    3  C8  UNL     1      22.120   0.468  52.715  1.00  0.00     0.028 C 
HETATM    4  C9  UNL     1      22.836   1.121  51.829  1.00  0.00     0.009 C 
HETATM    5  C10 UNL     1      24.260   1.347  51.809  1.00  0.00     0.031 A 
HETATM    6  C11 UNL     1      25.573   1.330  52.081  1.00  0.00     0.035 A 
HETATM    7  C12 UNL     1      25.134   0.447  53.045  1.00  0.00    -0.030 A 
HETATM    8  C13 UNL     1      24.765  -0.298  53.827  1.00  0.00     0.207 A 
HETATM    9  N1  UNL     1      24.298  -1.207  54.761  1.00  0.00     0.137 N 
HETATM   10  C14 UNL     1      22.871  -1.170  55.125  1.00  0.00     0.245 A 
HETATM   11  O2  UNL     1      23.330  -0.374  54.279  1.00  0.00     0.000 OA
HETATM   12  C15 UNL     1      21.579  -0.537  54.928  1.00  0.00     0.082 C 
HETATM   13  H14 UNL     1      24.905  -1.915  55.217  1.00  0.00     0.325 HD
ENDROOT
BRANCH   1  14
HETATM   14  C5  UNL     1      18.721  -0.330  52.487  1.00  0.00    -0.020 C 
HETATM   15  C4  UNL     1      17.513  -0.821  52.783  1.00  0.00     0.051 C 
BRANCH  15  16
HETATM   16  C3  UNL     1      16.125  -1.065  52.499  1.00  0.00     0.075 C 
BRANCH  16  17
HETATM   17  C2  UNL     1      15.255   0.174  52.495  1.00  0.00     0.080 C 
BRANCH  17  18
HETATM   18  S1  UNL     1      13.544  -0.208  52.940  1.00  0.00    -0.173 SA
HETATM   19  C1  UNL     1      12.806   1.063  53.974  1.00  0.00     0.089 C 
ENDBRANCH  17  18
ENDBRANCH  16  17
ENDBRANCH  15  16
BRANCH  15  20
HETATM   20  O1  UNL     1      17.559  -1.455  54.056  1.00  0.00    -0.364 OA
HETATM   21  H8  UNL     1      18.475  -1.721  54.398  1.00  0.00     0.217 HD
ENDBRANCH  15  20
BRANCH  14  22
HETATM   22  C16 UNL     1      18.936   0.377  51.211  1.00  0.00     0.114 C 
BRANCH  22  23
HETATM   23  S2  UNL     1      18.807   2.184  51.343  1.00  0.00    -0.169 SA
HETATM   24  C17 UNL     1      19.327   2.858  49.718  1.00  0.00     0.090 C 
ENDBRANCH  22  23
ENDBRANCH  14  22
ENDBRANCH   1  14
TORSDOF 7
ENDMDL
MODEL 9
REMARK VINA RESULT:      -6.2      5.526      7.283
REMARK  7 active torsions:
REMARK  status: ('A' for Active; 'I' for Inactive)
REMARK    1  A    between atoms: S1_2  and  C2_3 
REMARK    2  A    between atoms: C2_3  and  C3_4 
REMARK    3  A    between atoms: C3_4  and  C4_5 
REMARK    4  A    between atoms: C4_5  and  O1_6 
REMARK    5  A    between atoms: C5_7  and  C6_8 
REMARK    6  A    between atoms: C5_7  and  C16_20 
REMARK    7  A    between atoms: C16_20  and  S2_21 
ROOT
HETATM    1  C6  UNL     1      25.068   6.491  50.291  1.00  0.00     0.013 C 
HETATM    2  C7  UNL     1      26.118   7.067  49.765  1.00  0.00    -0.071 C 
HETATM    3  C8  UNL     1      27.206   6.567  48.935  1.00  0.00     0.028 C 
HETATM    4  C9  UNL     1      28.080   5.937  48.185  1.00  0.00     0.009 C 
HETATM    5  C10 UNL     1      29.341   6.414  47.673  1.00  0.00     0.031 A 
HETATM    6  C11 UNL     1      30.432   7.148  47.411  1.00  0.00     0.035 A 
HETATM    7  C12 UNL     1      29.820   7.978  48.328  1.00  0.00    -0.030 A 
HETATM    8  C13 UNL     1      29.317   8.649  49.101  1.00  0.00     0.207 A 
HETATM    9  N1  UNL     1      28.697   9.443  50.050  1.00  0.00     0.137 N 
HETATM   10  C14 UNL     1      27.256   9.254  50.291  1.00  0.00     0.245 A 
HETATM   11  O2  UNL     1      27.855   8.550  49.452  1.00  0.00     0.000 OA
HETATM   12  C15 UNL     1      26.047   8.528  49.944  1.00  0.00     0.082 C 
HETATM   13  H14 UNL     1      29.197  10.167  50.600  1.00  0.00     0.325 HD
ENDROOT
BRANCH   1  14
HETATM   14  C5  UNL     1      24.346   5.203  50.419  1.00  0.00    -0.020 C 
HETATM   15  C4  UNL     1      23.775   4.823  51.567  1.00  0.00     0.051 C 
BRANCH  15  16
HETATM   16  C3  UNL     1      23.027   3.906  52.383  1.00  0.00     0.075 C 
BRANCH  16  17
HETATM   17  C2  UNL     1      23.522   2.476  52.342  1.00  0.00     0.080 C 
BRANCH  17  18
HETATM   18  S1  UNL     1      25.186   2.323  53.035  1.00  0.00    -0.173 SA
HETATM   19  C1  UNL     1      26.455   2.280  51.763  1.00  0.00     0.089 C 
ENDBRANCH  17  18
ENDBRANCH  16  17
ENDBRANCH  15  16
BRANCH  15  20
HETATM   20  O1  UNL     1      23.983   5.827  52.554  1.00  0.00    -0.364 OA
HETATM   21  H8  UNL     1      23.170   6.122  53.080  1.00  0.00     0.217 HD
ENDBRANCH  15  20
BRANCH  14  22
HETATM   22  C16 UNL     1      24.272   4.328  49.235  1.00  0.00     0.114 C 
BRANCH  22  23
HETATM   23  S2  UNL     1      22.582   4.061  48.624  1.00  0.00    -0.169 SA
HETATM   24  C17 UNL     1      22.399   2.252  48.388  1.00  0.00     0.090 C 
ENDBRANCH  22  23
ENDBRANCH  14  22
ENDBRANCH   1  14
TORSDOF 7
ENDMDL
