MODEL 1
REMARK VINA RESULT:      -8.0      0.000      0.000
REMARK  5 active torsions:
REMARK  status: ('A' for Active; 'I' for Inactive)
REMARK    1  A    between atoms: C2_2  and  C3_3 
REMARK    2  A    between atoms: C3_3  and  N1_4 
REMARK    3  A    between atoms: N1_4  and  C4_5 
REMARK    4  A    between atoms: C11_14  and  N4_15 
REMARK    5  A    between atoms: N4_15  and  C12_16 
ROOT
HETATM    1  C4  UNL     1      26.550   0.868  53.959  1.00  0.00     0.028 A 
HETATM    2  C5  UNL     1      25.954  -0.080  54.790  1.00  0.00     0.030 A 
HETATM    3  C6  UNL     1      24.662  -0.509  54.568  1.00  0.00     0.016 A 
HETATM    4  C7  UNL     1      23.951   0.004  53.513  1.00  0.00     0.000 A 
HETATM    5  C8  UNL     1      22.654  -0.377  53.240  1.00  0.00     0.073 A 
HETATM    6  C9  UNL     1      22.030  -1.359  54.094  1.00  0.00     0.102 C 
HETATM    7  N2  UNL     1      21.538  -2.149  54.781  1.00  0.00    -0.191 NA
HETATM    8  C10 UNL     1      21.956   0.163  52.172  1.00  0.00     0.142 A 
HETATM    9  N3  UNL     1      22.594   1.083  51.399  1.00  0.00    -0.241 NA
HETATM   10  C11 UNL     1      23.869   1.454  51.672  1.00  0.00     0.139 A 
HETATM   11  C18 UNL     1      24.591   0.934  52.730  1.00  0.00     0.024 A 
HETATM   12  C19 UNL     1      25.862   1.419  52.873  1.00  0.00     0.045 A 
ENDROOT
BRANCH  10  13
HETATM   13  N4  UNL     1      24.290   2.423  50.717  1.00  0.00    -0.340 N 
HETATM   14  H12 UNL     1      25.079   2.424  50.034  1.00  0.00     0.167 HD
BRANCH  13  15
HETATM   15  C12 UNL     1      23.468   3.594  50.710  1.00  0.00     0.035 A 
HETATM   16  C13 UNL     1      23.168   4.300  51.871  1.00  0.00     0.029 A 
HETATM   17  C14 UNL     1      22.381   5.439  51.870  1.00  0.00     0.004 A 
HETATM   18  C15 UNL     1      21.864   5.912  50.685  1.00  0.00     0.019 A 
HETATM   19  C16 UNL     1      22.131   5.249  49.507  1.00  0.00     0.013 A 
HETATM   20 BR1  UNL     1      21.396   5.945  47.893  1.00  0.00    -0.051 Br
HETATM   21  C17 UNL     1      22.915   4.124  49.554  1.00  0.00     0.048 A 
ENDBRANCH  13  15
ENDBRANCH  10  13
BRANCH   1  22
HETATM   22  N1  UNL     1      27.876   1.300  54.227  1.00  0.00    -0.390 N 
HETATM   23  H8  UNL     1      28.135   2.299  54.086  1.00  0.00     0.159 HD
BRANCH  22  24
HETATM   24  C3  UNL     1      28.935   0.433  54.700  1.00  0.00     0.119 C 
BRANCH  24  25
HETATM   25  C2  UNL     1      29.716  -0.203  53.573  1.00  0.00     0.015 C 
HETATM   26  C1  UNL     1      29.343  -1.647  53.373  1.00  0.00     0.006 C 
ENDBRANCH  24  25
ENDBRANCH  22  24
ENDBRANCH   1  22
TORSDOF 5
ENDMDL
MODEL 2
REMARK VINA RESULT:      -7.9      3.032      6.277
REMARK  5 active torsions:
REMARK  status: ('A' for Active; 'I' for Inactive)
REMARK    1  A    between atoms: C2_2  and  C3_3 
REMARK    2  A    between atoms: C3_3  and  N1_4 
REMARK    3  A    between atoms: N1_4  and  C4_5 
REMARK    4  A    between atoms: C11_14  and  N4_15 
REMARK    5  A    between atoms: N4_15  and  C12_16 
ROOT
HETATM    1  C4  UNL     1      21.501   0.595  52.539  1.00  0.00     0.028 A 
HETATM    2  C5  UNL     1      20.933   0.610  51.266  1.00  0.00     0.030 A 
HETATM    3  C6  UNL     1      21.535   1.288  50.226  1.00  0.00     0.016 A 
HETATM    4  C7  UNL     1      22.712   1.957  50.447  1.00  0.00     0.000 A 
HETATM    5  C8  UNL     1      23.362   2.659  49.454  1.00  0.00     0.073 A 
HETATM    6  C9  UNL     1      22.782   2.680  48.133  1.00  0.00     0.102 C 
HETATM    7  N2  UNL     1      22.313   2.690  47.076  1.00  0.00    -0.191 NA
HETATM    8  C10 UNL     1      24.546   3.333  49.706  1.00  0.00     0.142 A 
HETATM    9  N3  UNL     1      25.049   3.278  50.969  1.00  0.00    -0.241 NA
HETATM   10  C11 UNL     1      24.406   2.586  51.942  1.00  0.00     0.139 A 
HETATM   11  C18 UNL     1      23.224   1.905  51.721  1.00  0.00     0.024 A 
HETATM   12  C19 UNL     1      22.699   1.263  52.810  1.00  0.00     0.045 A 
ENDROOT
BRANCH  10  13
HETATM   13  N4  UNL     1      25.141   2.694  53.158  1.00  0.00    -0.340 N 
HETATM   14  H12 UNL     1      24.983   3.270  54.013  1.00  0.00     0.167 HD
BRANCH  13  15
HETATM   15  C12 UNL     1      26.297   1.851  53.188  1.00  0.00     0.035 A 
HETATM   16  C13 UNL     1      27.564   2.335  53.499  1.00  0.00     0.029 A 
HETATM   17  C14 UNL     1      28.684   1.524  53.538  1.00  0.00     0.004 A 
HETATM   18  C15 UNL     1      28.565   0.180  53.264  1.00  0.00     0.019 A 
HETATM   19  C16 UNL     1      27.333  -0.350  52.950  1.00  0.00     0.013 A 
HETATM   20 BR1  UNL     1      27.219  -2.215  52.581  1.00  0.00    -0.051 Br
HETATM   21  C17 UNL     1      26.249   0.491  52.921  1.00  0.00     0.048 A 
ENDBRANCH  13  15
ENDBRANCH  10  13
BRANCH   1  22
HETATM   22  N1  UNL     1      20.845  -0.099  53.590  1.00  0.00    -0.390 N 
HETATM   23  H8  UNL     1      19.880  -0.465  53.447  1.00  0.00     0.159 HD
BRANCH  22  24
HETATM   24  C3  UNL     1      21.430  -0.350  54.891  1.00  0.00     0.119 C 
BRANCH  24  25
HETATM   25  C2  UNL     1      22.283  -1.598  54.917  1.00  0.00     0.015 C 
HETATM   26  C1  UNL     1      23.695  -1.307  55.350  1.00  0.00     0.006 C 
ENDBRANCH  24  25
ENDBRANCH  22  24
ENDBRANCH   1  22
TORSDOF 5
ENDMDL
MODEL 3
REMARK VINA RESULT:      -7.9      2.147      5.396
REMARK  5 active torsions:
REMARK  status: ('A' for Active; 'I' for Inactive)
REMARK    1  A    between atoms: C2_2  and  C3_3 
REMARK    2  A    between atoms: C3_3  and  N1_4 
REMARK    3  A    between atoms: N1_4  and  C4_5 
REMARK    4  A    between atoms: C11_14  and  N4_15 
REMARK    5  A    between atoms: N4_15  and  C12_16 
ROOT
HETATM    1  C4  UNL     1      21.121  -0.612  53.832  1.00  0.00     0.028 A 
HETATM    2  C5  UNL     1      22.173  -1.340  54.385  1.00  0.00     0.030 A 
HETATM    3  C6  UNL     1      23.478  -0.909  54.264  1.00  0.00     0.016 A 
HETATM    4  C7  UNL     1      23.745   0.256  53.591  1.00  0.00     0.000 A 
HETATM    5  C8  UNL     1      25.026   0.740  53.428  1.00  0.00     0.073 A 
HETATM    6  C9  UNL     1      26.122  -0.007  53.998  1.00  0.00     0.102 C 
HETATM    7  N2  UNL     1      26.995  -0.609  54.461  1.00  0.00    -0.191 NA
HETATM    8  C10 UNL     1      25.270   1.915  52.736  1.00  0.00     0.142 A 
HETATM    9  N3  UNL     1      24.199   2.579  52.222  1.00  0.00    -0.241 NA
HETATM   10  C11 UNL     1      22.941   2.099  52.384  1.00  0.00     0.139 A 
HETATM   11  C18 UNL     1      22.668   0.930  53.068  1.00  0.00     0.024 A 
HETATM   12  C19 UNL     1      21.347   0.580  53.137  1.00  0.00     0.045 A 
ENDROOT
BRANCH  10  13
HETATM   13  N4  UNL     1      22.018   2.980  51.750  1.00  0.00    -0.340 N 
HETATM   14  H12 UNL     1      21.326   3.654  52.142  1.00  0.00     0.167 HD
BRANCH  13  15
HETATM   15  C12 UNL     1      22.070   2.910  50.322  1.00  0.00     0.035 A 
HETATM   16  C13 UNL     1      21.938   1.710  49.630  1.00  0.00     0.029 A 
HETATM   17  C14 UNL     1      21.978   1.637  48.249  1.00  0.00     0.004 A 
HETATM   18  C15 UNL     1      22.154   2.784  47.508  1.00  0.00     0.019 A 
HETATM   19  C16 UNL     1      22.290   3.998  48.144  1.00  0.00     0.013 A 
HETATM   20 BR1  UNL     1      22.527   5.556  47.076  1.00  0.00    -0.051 Br
HETATM   21  C17 UNL     1      22.245   4.024  49.516  1.00  0.00     0.048 A 
ENDBRANCH  13  15
ENDBRANCH  10  13
BRANCH   1  22
HETATM   22  N1  UNL     1      19.791  -1.095  53.961  1.00  0.00    -0.390 N 
HETATM   23  H8  UNL     1      19.543  -1.725  54.752  1.00  0.00     0.159 HD
BRANCH  22  24
HETATM   24  C3  UNL     1      18.715  -0.768  53.050  1.00  0.00     0.119 C 
BRANCH  24  25
HETATM   25  C2  UNL     1      17.449  -1.543  53.338  1.00  0.00     0.015 C 
HETATM   26  C1  UNL     1      17.733  -2.987  53.655  1.00  0.00     0.006 C 
ENDBRANCH  24  25
ENDBRANCH  22  24
ENDBRANCH   1  22
TORSDOF 5
ENDMDL
MODEL 4
REMARK VINA RESULT:      -7.7      3.188      5.051
REMARK  5 active torsions:
REMARK  status: ('A' for Active; 'I' for Inactive)
REMARK    1  A    between atoms: C2_2  and  C3_3 
REMARK    2  A    between atoms: C3_3  and  N1_4 
REMARK    3  A    between atoms: N1_4  and  C4_5 
REMARK    4  A    between atoms: C11_14  and  N4_15 
REMARK    5  A    between atoms: N4_15  and  C12_16 
ROOT
HETATM    1  C4  UNL     1      25.647   3.327  51.024  1.00  0.00     0.028 A 
HETATM    2  C5  UNL     1      26.731   2.453  51.103  1.00  0.00     0.030 A 
HETATM    3  C6  UNL     1      26.617   1.234  51.738  1.00  0.00     0.016 A 
HETATM    4  C7  UNL     1      25.419   0.874  52.302  1.00  0.00     0.000 A 
HETATM    5  C8  UNL     1      25.240  -0.325  52.958  1.00  0.00     0.073 A 
HETATM    6  C9  UNL     1      26.355  -1.237  53.043  1.00  0.00     0.102 C 
HETATM    7  N2  UNL     1      27.253  -1.964  53.104  1.00  0.00    -0.191 NA
HETATM    8  C10 UNL     1      24.021  -0.661  53.525  1.00  0.00     0.142 A 
HETATM    9  N3  UNL     1      23.004   0.236  53.413  1.00  0.00    -0.241 NA
HETATM   10  C11 UNL     1      23.185   1.414  52.768  1.00  0.00     0.139 A 
HETATM   11  C18 UNL     1      24.388   1.776  52.193  1.00  0.00     0.024 A 
HETATM   12  C19 UNL     1      24.408   3.002  51.585  1.00  0.00     0.045 A 
ENDROOT
BRANCH  10  13
HETATM   13  N4  UNL     1      21.970   2.157  52.799  1.00  0.00    -0.340 N 
HETATM   14  H12 UNL     1      21.691   3.004  53.340  1.00  0.00     0.167 HD
BRANCH  13  15
HETATM   15  C12 UNL     1      20.971   1.631  51.920  1.00  0.00     0.035 A 
HETATM   16  C13 UNL     1      21.032   1.794  50.539  1.00  0.00     0.029 A 
HETATM   17  C14 UNL     1      20.074   1.280  49.683  1.00  0.00     0.004 A 
HETATM   18  C15 UNL     1      19.009   0.574  50.195  1.00  0.00     0.019 A 
HETATM   19  C16 UNL     1      18.900   0.384  51.555  1.00  0.00     0.013 A 
HETATM   20 BR1  UNL     1      17.411  -0.603  52.214  1.00  0.00    -0.051 Br
HETATM   21  C17 UNL     1      19.873   0.912  52.367  1.00  0.00     0.048 A 
ENDBRANCH  13  15
ENDBRANCH  10  13
BRANCH   1  22
HETATM   22  N1  UNL     1      25.805   4.581  50.377  1.00  0.00    -0.390 N 
HETATM   23  H8  UNL     1      25.649   5.463  50.909  1.00  0.00     0.159 HD
BRANCH  22  24
HETATM   24  C3  UNL     1      26.179   4.739  48.987  1.00  0.00     0.119 C 
BRANCH  24  25
HETATM   25  C2  UNL     1      27.105   5.912  48.760  1.00  0.00     0.015 C 
HETATM   26  C1  UNL     1      28.483   5.470  48.347  1.00  0.00     0.006 C 
ENDBRANCH  24  25
ENDBRANCH  22  24
ENDBRANCH   1  22
TORSDOF 5
ENDMDL
MODEL 5
REMARK VINA RESULT:      -7.6      1.658      2.312
REMARK  5 active torsions:
REMARK  status: ('A' for Active; 'I' for Inactive)
REMARK    1  A    between atoms: C2_2  and  C3_3 
REMARK    2  A    between atoms: C3_3  and  N1_4 
REMARK    3  A    between atoms: N1_4  and  C4_5 
REMARK    4  A    between atoms: C11_14  and  N4_15 
REMARK    5  A    between atoms: N4_15  and  C12_16 
ROOT
HETATM    1  C4  UNL     1      23.996  -0.671  54.326  1.00  0.00     0.028 A 
HETATM    2  C5  UNL     1      22.844  -1.241  54.865  1.00  0.00     0.030 A 
HETATM    3  C6  UNL     1      21.611  -1.047  54.276  1.00  0.00     0.016 A 
HETATM    4  C7  UNL     1      21.517  -0.283  53.141  1.00  0.00     0.000 A 
HETATM    5  C8  UNL     1      20.317  -0.043  52.506  1.00  0.00     0.073 A 
HETATM    6  C9  UNL     1      19.119  -0.631  53.057  1.00  0.00     0.102 C 
HETATM    7  N2  UNL     1      18.163  -1.107  53.501  1.00  0.00    -0.191 NA
HETATM    8  C10 UNL     1      20.248   0.739  51.365  1.00  0.00     0.142 A 
HETATM    9  N3  UNL     1      21.409   1.266  50.890  1.00  0.00    -0.241 NA
HETATM   10  C11 UNL     1      22.588   1.029  51.517  1.00  0.00     0.139 A 
HETATM   11  C18 UNL     1      22.687   0.253  52.656  1.00  0.00     0.024 A 
HETATM   12  C19 UNL     1      23.947   0.116  53.171  1.00  0.00     0.045 A 
ENDROOT
BRANCH  10  13
HETATM   13  N4  UNL     1      23.634   1.694  50.816  1.00  0.00    -0.340 N 
HETATM   14  H12 UNL     1      24.414   1.328  50.227  1.00  0.00     0.167 HD
BRANCH  13  15
HETATM   15  C12 UNL     1      23.586   3.117  50.959  1.00  0.00     0.035 A 
HETATM   16  C13 UNL     1      23.478   3.737  52.201  1.00  0.00     0.029 A 
HETATM   17  C14 UNL     1      23.439   5.113  52.347  1.00  0.00     0.004 A 
HETATM   18  C15 UNL     1      23.510   5.920  51.234  1.00  0.00     0.019 A 
HETATM   19  C16 UNL     1      23.616   5.357  49.982  1.00  0.00     0.013 A 
HETATM   20 BR1  UNL     1      23.714   6.517  48.475  1.00  0.00    -0.051 Br
HETATM   21  C17 UNL     1      23.651   3.988  49.883  1.00  0.00     0.048 A 
ENDBRANCH  13  15
ENDBRANCH  10  13
BRANCH   1  22
HETATM   22  N1  UNL     1      25.246  -0.877  54.968  1.00  0.00    -0.390 N 
HETATM   23  H8  UNL     1      25.441  -1.784  55.443  1.00  0.00     0.159 HD
BRANCH  22  24
HETATM   24  C3  UNL     1      26.309   0.105  55.017  1.00  0.00     0.119 C 
BRANCH  24  25
HETATM   25  C2  UNL     1      27.433  -0.202  54.054  1.00  0.00     0.015 C 
HETATM   26  C1  UNL     1      28.784   0.059  54.664  1.00  0.00     0.006 C 
ENDBRANCH  24  25
ENDBRANCH  22  24
ENDBRANCH   1  22
TORSDOF 5
ENDMDL
MODEL 6
REMARK VINA RESULT:      -7.5      2.333      3.186
REMARK  5 active torsions:
REMARK  status: ('A' for Active; 'I' for Inactive)
REMARK    1  A    between atoms: C2_2  and  C3_3 
REMARK    2  A    between atoms: C3_3  and  N1_4 
REMARK    3  A    between atoms: N1_4  and  C4_5 
REMARK    4  A    between atoms: C11_14  and  N4_15 
REMARK    5  A    between atoms: N4_15  and  C12_16 
ROOT
HETATM    1  C4  UNL     1      24.266  -0.044  53.539  1.00  0.00     0.028 A 
HETATM    2  C5  UNL     1      23.157  -0.836  53.248  1.00  0.00     0.030 A 
HETATM    3  C6  UNL     1      22.066  -0.317  52.582  1.00  0.00     0.016 A 
HETATM    4  C7  UNL     1      22.072   1.000  52.199  1.00  0.00     0.000 A 
HETATM    5  C8  UNL     1      21.012   1.584  51.537  1.00  0.00     0.073 A 
HETATM    6  C9  UNL     1      19.860   0.771  51.230  1.00  0.00     0.102 C 
HETATM    7  N2  UNL     1      18.941   0.112  50.985  1.00  0.00    -0.191 NA
HETATM    8  C10 UNL     1      21.041   2.919  51.168  1.00  0.00     0.142 A 
HETATM    9  N3  UNL     1      22.153   3.638  51.481  1.00  0.00    -0.241 NA
HETATM   10  C11 UNL     1      23.192   3.060  52.132  1.00  0.00     0.139 A 
HETATM   11  C18 UNL     1      23.192   1.731  52.513  1.00  0.00     0.024 A 
HETATM   12  C19 UNL     1      24.315   1.304  53.168  1.00  0.00     0.045 A 
ENDROOT
BRANCH  10  13
HETATM   13  N4  UNL     1      24.216   4.029  52.334  1.00  0.00    -0.340 N 
HETATM   14  H12 UNL     1      24.485   4.586  53.174  1.00  0.00     0.167 HD
BRANCH  13  15
HETATM   15  C12 UNL     1      25.005   4.260  51.163  1.00  0.00     0.035 A 
HETATM   16  C13 UNL     1      25.914   3.323  50.680  1.00  0.00     0.029 A 
HETATM   17  C14 UNL     1      26.673   3.537  49.543  1.00  0.00     0.004 A 
HETATM   18  C15 UNL     1      26.540   4.716  48.844  1.00  0.00     0.019 A 
HETATM   19  C16 UNL     1      25.655   5.677  49.280  1.00  0.00     0.013 A 
HETATM   20 BR1  UNL     1      25.505   7.289  48.277  1.00  0.00    -0.051 Br
HETATM   21  C17 UNL     1      24.923   5.424  50.413  1.00  0.00     0.048 A 
ENDBRANCH  13  15
ENDBRANCH  10  13
BRANCH   1  22
HETATM   22  N1  UNL     1      25.364  -0.607  54.241  1.00  0.00    -0.390 N 
HETATM   23  H8  UNL     1      25.251  -1.515  54.740  1.00  0.00     0.159 HD
BRANCH  22  24
HETATM   24  C3  UNL     1      26.677  -0.001  54.321  1.00  0.00     0.119 C 
BRANCH  24  25
HETATM   25  C2  UNL     1      27.651  -0.583  53.322  1.00  0.00     0.015 C 
HETATM   26  C1  UNL     1      29.081  -0.311  53.706  1.00  0.00     0.006 C 
ENDBRANCH  24  25
ENDBRANCH  22  24
ENDBRANCH   1  22
TORSDOF 5
ENDMDL
MODEL 7
REMARK VINA RESULT:      -7.5      2.259      2.810
REMARK  5 active torsions:
REMARK  status: ('A' for Active; 'I' for Inactive)
REMARK    1  A    between atoms: C2_2  and  C3_3 
REMARK    2  A    between atoms: C3_3  and  N1_4 
REMARK    3  A    between atoms: N1_4  and  C4_5 
REMARK    4  A    between atoms: C11_14  and  N4_15 
REMARK    5  A    between atoms: N4_15  and  C12_16 
ROOT
HETATM    1  C4  UNL     1      25.932  -0.047  53.722  1.00  0.00     0.028 A 
HETATM    2  C5  UNL     1      24.644  -0.419  54.101  1.00  0.00     0.030 A 
HETATM    3  C6  UNL     1      23.539   0.045  53.418  1.00  0.00     0.016 A 
HETATM    4  C7  UNL     1      23.710   0.885  52.347  1.00  0.00     0.000 A 
HETATM    5  C8  UNL     1      22.649   1.390  51.625  1.00  0.00     0.073 A 
HETATM    6  C9  UNL     1      21.311   1.009  52.009  1.00  0.00     0.102 C 
HETATM    7  N2  UNL     1      20.242   0.697  52.321  1.00  0.00    -0.191 NA
HETATM    8  C10 UNL     1      22.850   2.243  50.552  1.00  0.00     0.142 A 
HETATM    9  N3  UNL     1      24.132   2.567  50.233  1.00  0.00    -0.241 NA
HETATM   10  C11 UNL     1      25.172   2.069  50.946  1.00  0.00     0.139 A 
HETATM   11  C18 UNL     1      25.003   1.216  52.021  1.00  0.00     0.024 A 
HETATM   12  C19 UNL     1      26.154   0.808  52.638  1.00  0.00     0.045 A 
ENDROOT
BRANCH  10  13
HETATM   13  N4  UNL     1      26.393   2.565  50.404  1.00  0.00    -0.340 N 
HETATM   14  H12 UNL     1      27.323   2.113  50.269  1.00  0.00     0.167 HD
BRANCH  13  15
HETATM   15  C12 UNL     1      26.301   3.927  49.976  1.00  0.00     0.035 A 
HETATM   16  C13 UNL     1      27.131   4.455  48.992  1.00  0.00     0.029 A 
HETATM   17  C14 UNL     1      27.041   5.769  48.566  1.00  0.00     0.004 A 
HETATM   18  C15 UNL     1      26.100   6.605  49.124  1.00  0.00     0.019 A 
HETATM   19  C16 UNL     1      25.255   6.132  50.103  1.00  0.00     0.013 A 
HETATM   20 BR1  UNL     1      23.968   7.327  50.840  1.00  0.00    -0.051 Br
HETATM   21  C17 UNL     1      25.379   4.823  50.495  1.00  0.00     0.048 A 
ENDBRANCH  13  15
ENDBRANCH  10  13
BRANCH   1  22
HETATM   22  N1  UNL     1      27.046  -0.530  54.459  1.00  0.00    -0.390 N 
HETATM   23  H8  UNL     1      27.045  -1.508  54.819  1.00  0.00     0.159 HD
BRANCH  22  24
HETATM   24  C3  UNL     1      28.225   0.254  54.761  1.00  0.00     0.119 C 
BRANCH  24  25
HETATM   25  C2  UNL     1      29.425  -0.153  53.935  1.00  0.00     0.015 C 
HETATM   26  C1  UNL     1      29.269  -1.533  53.357  1.00  0.00     0.006 C 
ENDBRANCH  24  25
ENDBRANCH  22  24
ENDBRANCH   1  22
TORSDOF 5
ENDMDL
MODEL 8
REMARK VINA RESULT:      -7.5      2.494      5.325
REMARK  5 active torsions:
REMARK  status: ('A' for Active; 'I' for Inactive)
REMARK    1  A    between atoms: C2_2  and  C3_3 
REMARK    2  A    between atoms: C3_3  and  N1_4 
REMARK    3  A    between atoms: N1_4  and  C4_5 
REMARK    4  A    between atoms: C11_14  and  N4_15 
REMARK    5  A    between atoms: N4_15  and  C12_16 
ROOT
HETATM    1  C4  UNL     1      22.255   0.823  52.031  1.00  0.00     0.028 A 
HETATM    2  C5  UNL     1      22.785   0.120  53.111  1.00  0.00     0.030 A 
HETATM    3  C6  UNL     1      24.124   0.212  53.432  1.00  0.00     0.016 A 
HETATM    4  C7  UNL     1      24.947   1.008  52.677  1.00  0.00     0.000 A 
HETATM    5  C8  UNL     1      26.295   1.138  52.939  1.00  0.00     0.073 A 
HETATM    6  C9  UNL     1      26.852   0.415  54.056  1.00  0.00     0.102 C 
HETATM    7  N2  UNL     1      27.292  -0.165  54.956  1.00  0.00    -0.191 NA
HETATM    8  C10 UNL     1      27.106   1.943  52.155  1.00  0.00     0.142 A 
HETATM    9  N3  UNL     1      26.526   2.603  51.116  1.00  0.00    -0.241 NA
HETATM   10  C11 UNL     1      25.201   2.472  50.862  1.00  0.00     0.139 A 
HETATM   11  C18 UNL     1      24.368   1.676  51.625  1.00  0.00     0.024 A 
HETATM   12  C19 UNL     1      23.057   1.646  51.233  1.00  0.00     0.045 A 
ENDROOT
BRANCH  10  13
HETATM   13  N4  UNL     1      24.860   3.262  49.727  1.00  0.00    -0.340 N 
HETATM   14  H12 UNL     1      24.521   2.997  48.777  1.00  0.00     0.167 HD
BRANCH  13  15
HETATM   15  C12 UNL     1      25.015   4.665  49.957  1.00  0.00     0.035 A 
HETATM   16  C13 UNL     1      24.246   5.357  50.889  1.00  0.00     0.029 A 
HETATM   17  C14 UNL     1      24.397   6.712  51.123  1.00  0.00     0.004 A 
HETATM   18  C15 UNL     1      25.340   7.427  50.419  1.00  0.00     0.019 A 
HETATM   19  C16 UNL     1      26.127   6.790  49.484  1.00  0.00     0.013 A 
HETATM   20 BR1  UNL     1      27.419   7.821  48.538  1.00  0.00    -0.051 Br
HETATM   21  C17 UNL     1      25.943   5.445  49.284  1.00  0.00     0.048 A 
ENDBRANCH  13  15
ENDBRANCH  10  13
BRANCH   1  22
HETATM   22  N1  UNL     1      20.876   0.692  51.719  1.00  0.00    -0.390 N 
HETATM   23  H8  UNL     1      20.508   1.073  50.821  1.00  0.00     0.159 HD
BRANCH  22  24
HETATM   24  C3  UNL     1      19.904   0.047  52.577  1.00  0.00     0.119 C 
BRANCH  24  25
HETATM   25  C2  UNL     1      18.589  -0.212  51.880  1.00  0.00     0.015 C 
HETATM   26  C1  UNL     1      18.504   0.496  50.554  1.00  0.00     0.006 C 
ENDBRANCH  24  25
ENDBRANCH  22  24
ENDBRANCH   1  22
TORSDOF 5
ENDMDL
MODEL 9
REMARK VINA RESULT:      -7.5      2.735      4.614
REMARK  5 active torsions:
REMARK  status: ('A' for Active; 'I' for Inactive)
REMARK    1  A    between atoms: C2_2  and  C3_3 
REMARK    2  A    between atoms: C3_3  and  N1_4 
REMARK    3  A    between atoms: N1_4  and  C4_5 
REMARK    4  A    between atoms: C11_14  and  N4_15 
REMARK    5  A    between atoms: N4_15  and  C12_16 
ROOT
HETATM    1  C4  UNL     1      25.690   3.317  51.122  1.00  0.00     0.028 A 
HETATM    2  C5  UNL     1      26.764   2.428  51.162  1.00  0.00     0.030 A 
HETATM    3  C6  UNL     1      26.641   1.191  51.761  1.00  0.00     0.016 A 
HETATM    4  C7  UNL     1      25.443   0.828  52.323  1.00  0.00     0.000 A 
HETATM    5  C8  UNL     1      25.255  -0.389  52.943  1.00  0.00     0.073 A 
HETATM    6  C9  UNL     1      26.360  -1.316  52.989  1.00  0.00     0.102 C 
HETATM    7  N2  UNL     1      27.250  -2.056  53.019  1.00  0.00    -0.191 NA
HETATM    8  C10 UNL     1      24.038  -0.728  53.511  1.00  0.00     0.142 A 
HETATM    9  N3  UNL     1      23.030   0.184  53.436  1.00  0.00    -0.241 NA
HETATM   10  C11 UNL     1      23.220   1.380  52.827  1.00  0.00     0.139 A 
HETATM   11  C18 UNL     1      24.423   1.746  52.252  1.00  0.00     0.024 A 
HETATM   12  C19 UNL     1      24.452   2.990  51.683  1.00  0.00     0.045 A 
ENDROOT
BRANCH  10  13
HETATM   13  N4  UNL     1      22.015   2.136  52.892  1.00  0.00    -0.340 N 
HETATM   14  H12 UNL     1      21.714   2.903  53.532  1.00  0.00     0.167 HD
BRANCH  13  15
HETATM   15  C12 UNL     1      21.065   1.761  51.891  1.00  0.00     0.035 A 
HETATM   16  C13 UNL     1      20.064   0.823  52.128  1.00  0.00     0.029 A 
HETATM   17  C14 UNL     1      19.136   0.462  51.166  1.00  0.00     0.004 A 
HETATM   18  C15 UNL     1      19.186   1.041  49.918  1.00  0.00     0.019 A 
HETATM   19  C16 UNL     1      20.157   1.974  49.631  1.00  0.00     0.013 A 
HETATM   20 BR1  UNL     1      20.181   2.748  47.891  1.00  0.00    -0.051 Br
HETATM   21  C17 UNL     1      21.057   2.302  50.614  1.00  0.00     0.048 A 
ENDBRANCH  13  15
ENDBRANCH  10  13
BRANCH   1  22
HETATM   22  N1  UNL     1      25.858   4.589  50.513  1.00  0.00    -0.390 N 
HETATM   23  H8  UNL     1      25.840   5.451  51.098  1.00  0.00     0.159 HD
BRANCH  22  24
HETATM   24  C3  UNL     1      26.059   4.793  49.093  1.00  0.00     0.119 C 
BRANCH  24  25
HETATM   25  C2  UNL     1      27.520   4.805  48.707  1.00  0.00     0.015 C 
HETATM   26  C1  UNL     1      27.973   6.169  48.259  1.00  0.00     0.006 C 
ENDBRANCH  24  25
ENDBRANCH  22  24
ENDBRANCH   1  22
TORSDOF 5
ENDMDL
