MODEL 1
REMARK VINA RESULT:     -10.1      0.000      0.000
REMARK  2 active torsions:
REMARK  status: ('A' for Active; 'I' for Inactive)
REMARK    1  A    between atoms: O1_2  and  C2_3 
REMARK    2  A    between atoms: C13_16  and  O2_17 
ROOT
HETATM    1  C2  UNL     1      26.613  -0.163  53.807  1.00  0.00     0.098 C 
HETATM    2  C3  UNL     1      27.353   0.246  52.757  1.00  0.00     0.017 C 
HETATM    3  C4  UNL     1      26.449   0.629  51.691  1.00  0.00     0.069 C 
HETATM    4  C5  UNL     1      26.254   1.898  51.268  1.00  0.00     0.001 A 
HETATM    5  C6  UNL     1      26.733   3.067  50.809  1.00  0.00     0.032 A 
HETATM    6  C7  UNL     1      25.424   3.577  50.511  1.00  0.00     0.276 A 
HETATM    7  C8  UNL     1      24.293   4.227  50.169  1.00  0.00     0.076 A 
HETATM    8  C9  UNL     1      24.290   2.951  50.693  1.00  0.00     0.437 A 
HETATM    9  C10 UNL     1      24.850   1.540  51.336  1.00  0.00     0.489 A 
HETATM   10  N1  UNL     1      24.557   2.466  50.923  1.00  0.00     0.237 N 
HETATM   11  N2  UNL     1      23.336   1.720  51.498  1.00  0.00     0.349 N 
HETATM   12  C11 UNL     1      23.241   0.917  52.419  1.00  0.00     0.221 C 
HETATM   13  C12 UNL     1      24.182   0.317  53.330  1.00  0.00     0.083 C 
HETATM   14  C13 UNL     1      25.190  -0.194  54.083  1.00  0.00     0.103 C 
HETATM   15  C15 UNL     1      21.800   0.457  52.570  1.00  0.00     0.025 A 
HETATM   16  C16 UNL     1      21.479  -0.087  53.738  1.00  0.00     0.016 A 
HETATM   17  C17 UNL     1      20.237  -0.602  53.950  1.00  0.00     0.001 A 
HETATM   18  C18 UNL     1      19.171  -0.672  53.117  1.00  0.00     0.002 A 
HETATM   19  C19 UNL     1      19.398  -0.137  51.889  1.00  0.00     0.025 A 
HETATM   20  C20 UNL     1      20.623   0.354  51.748  1.00  0.00     0.029 A 
HETATM   21  N3  UNL     1      21.358   1.157  50.900  1.00  0.00    -0.201 NA
HETATM   22  C21 UNL     1      21.611   1.859  49.634  1.00  0.00     0.433 C 
HETATM   23  O3  UNL     1      20.940   1.866  48.704  1.00  0.00    -0.243 OA
HETATM   24  N4  UNL     1      22.902   2.384  50.147  1.00  0.00     0.241 N 
HETATM   25  H17 UNL     1      20.591   0.996  50.221  1.00  0.00     0.138 HD
HETATM   26  H18 UNL     1      22.642   2.558  49.089  1.00  0.00     0.335 HD
ENDROOT
BRANCH   1  27
HETATM   27  O1  UNL     1      27.586  -0.507  54.621  1.00  0.00    -0.353 OA
HETATM   28  C1  UNL     1      28.906  -0.122  54.656  1.00  0.00     0.210 C 
ENDBRANCH   1  27
BRANCH  14  29
HETATM   29  O2  UNL     1      25.162  -0.874  55.345  1.00  0.00    -0.353 OA
HETATM   30  C14 UNL     1      23.884  -1.425  55.742  1.00  0.00     0.210 C 
ENDBRANCH  14  29
TORSDOF 2
ENDMDL
MODEL 2
REMARK VINA RESULT:     -10.0      1.883      4.809
REMARK  2 active torsions:
REMARK  status: ('A' for Active; 'I' for Inactive)
REMARK    1  A    between atoms: O1_2  and  C2_3 
REMARK    2  A    between atoms: C13_16  and  O2_17 
ROOT
HETATM    1  C2  UNL     1      24.107   3.768  49.989  1.00  0.00     0.098 C 
HETATM    2  C3  UNL     1      25.226   3.890  50.730  1.00  0.00     0.017 C 
HETATM    3  C4  UNL     1      25.111   3.001  51.869  1.00  0.00     0.069 C 
HETATM    4  C5  UNL     1      25.846   1.881  52.048  1.00  0.00     0.001 A 
HETATM    5  C6  UNL     1      27.035   1.261  52.127  1.00  0.00     0.032 A 
HETATM    6  C7  UNL     1      26.455   0.036  52.602  1.00  0.00     0.276 A 
HETATM    7  C8  UNL     1      26.103  -1.186  53.049  1.00  0.00     0.076 A 
HETATM    8  C9  UNL     1      25.184  -0.183  52.822  1.00  0.00     0.437 A 
HETATM    9  C10 UNL     1      24.569   1.281  52.380  1.00  0.00     0.489 A 
HETATM   10  N1  UNL     1      25.025   0.368  52.644  1.00  0.00     0.237 N 
HETATM   11  N2  UNL     1      23.496   0.196  52.535  1.00  0.00     0.349 N 
HETATM   12  C11 UNL     1      22.665   0.781  51.851  1.00  0.00     0.221 C 
HETATM   13  C12 UNL     1      22.728   1.859  50.898  1.00  0.00     0.083 C 
HETATM   14  C13 UNL     1      22.944   2.906  50.058  1.00  0.00     0.103 C 
HETATM   15  C15 UNL     1      21.274   0.240  52.135  1.00  0.00     0.025 A 
HETATM   16  C16 UNL     1      20.351   0.488  51.214  1.00  0.00     0.016 A 
HETATM   17  C17 UNL     1      19.056   0.115  51.405  1.00  0.00     0.001 A 
HETATM   18  C18 UNL     1      18.479  -0.518  52.456  1.00  0.00     0.002 A 
HETATM   19  C19 UNL     1      19.346  -0.819  53.458  1.00  0.00     0.025 A 
HETATM   20  C20 UNL     1      20.592  -0.436  53.208  1.00  0.00     0.029 A 
HETATM   21  N3  UNL     1      21.877  -0.619  53.675  1.00  0.00    -0.201 NA
HETATM   22  C21 UNL     1      22.874  -1.035  54.672  1.00  0.00     0.433 C 
HETATM   23  O3  UNL     1      22.667  -1.482  55.707  1.00  0.00    -0.243 OA
HETATM   24  N4  UNL     1      23.985  -0.623  53.778  1.00  0.00     0.241 N 
HETATM   25  H17 UNL     1      21.422  -0.990  54.530  1.00  0.00     0.138 HD
HETATM   26  H18 UNL     1      24.223  -0.945  54.806  1.00  0.00     0.335 HD
ENDROOT
BRANCH   1  27
HETATM   27  O1  UNL     1      24.375   4.664  49.065  1.00  0.00    -0.353 OA
HETATM   28  C1  UNL     1      25.404   5.570  48.965  1.00  0.00     0.210 C 
ENDBRANCH   1  27
BRANCH  14  29
HETATM   29  O2  UNL     1      22.128   3.445  49.010  1.00  0.00    -0.353 OA
HETATM   30  C14 UNL     1      21.428   2.482  48.188  1.00  0.00     0.210 C 
ENDBRANCH  14  29
TORSDOF 2
ENDMDL
MODEL 3
REMARK VINA RESULT:      -9.5      1.891      5.273
REMARK  2 active torsions:
REMARK  status: ('A' for Active; 'I' for Inactive)
REMARK    1  A    between atoms: O1_2  and  C2_3 
REMARK    2  A    between atoms: C13_16  and  O2_17 
ROOT
HETATM    1  C2  UNL     1      25.282   0.513  53.057  1.00  0.00     0.098 C 
HETATM    2  C3  UNL     1      23.990   0.323  53.390  1.00  0.00     0.017 C 
HETATM    3  C4  UNL     1      23.187   1.261  52.629  1.00  0.00     0.069 C 
HETATM    4  C5  UNL     1      22.346   0.917  51.629  1.00  0.00     0.001 A 
HETATM    5  C6  UNL     1      21.315   0.192  51.162  1.00  0.00     0.032 A 
HETATM    6  C7  UNL     1      21.236   0.944  49.941  1.00  0.00     0.276 A 
HETATM    7  C8  UNL     1      21.007   1.524  48.745  1.00  0.00     0.076 A 
HETATM    8  C9  UNL     1      21.997   1.954  49.604  1.00  0.00     0.437 A 
HETATM    9  C10 UNL     1      22.976   2.019  50.928  1.00  0.00     0.489 A 
HETATM   10  N1  UNL     1      22.319   1.922  50.109  1.00  0.00     0.237 N 
HETATM   11  N2  UNL     1      23.493   2.856  49.752  1.00  0.00     0.349 N 
HETATM   12  C11 UNL     1      24.649   2.891  50.157  1.00  0.00     0.221 C 
HETATM   13  C12 UNL     1      25.400   2.125  51.119  1.00  0.00     0.083 C 
HETATM   14  C13 UNL     1      25.958   1.345  52.081  1.00  0.00     0.103 C 
HETATM   15  C15 UNL     1      25.405   4.031  49.495  1.00  0.00     0.025 A 
HETATM   16  C16 UNL     1      26.729   3.952  49.530  1.00  0.00     0.016 A 
HETATM   17  C17 UNL     1      27.502   4.959  49.035  1.00  0.00     0.001 A 
HETATM   18  C18 UNL     1      27.139   6.133  48.465  1.00  0.00     0.002 A 
HETATM   19  C19 UNL     1      25.795   6.310  48.381  1.00  0.00     0.025 A 
HETATM   20  C20 UNL     1      25.098   5.292  48.873  1.00  0.00     0.029 A 
HETATM   21  N3  UNL     1      23.813   4.791  48.892  1.00  0.00    -0.201 NA
HETATM   22  C21 UNL     1      22.357   4.879  48.709  1.00  0.00     0.433 C 
HETATM   23  O3  UNL     1      21.762   5.795  48.362  1.00  0.00    -0.243 OA
HETATM   24  N4  UNL     1      22.187   3.469  49.141  1.00  0.00     0.241 N 
HETATM   25  H17 UNL     1      23.531   5.736  48.572  1.00  0.00     0.138 HD
HETATM   26  H18 UNL     1      21.287   4.083  48.968  1.00  0.00     0.335 HD
ENDROOT
BRANCH   1  27
HETATM   27  O1  UNL     1      25.832  -0.365  53.867  1.00  0.00    -0.353 OA
HETATM   28  C1  UNL     1      25.885  -0.410  55.240  1.00  0.00     0.210 C 
ENDBRANCH   1  27
BRANCH  14  29
HETATM   29  O2  UNL     1      27.333   1.097  52.401  1.00  0.00    -0.353 OA
HETATM   30  C14 UNL     1      28.030   2.163  53.086  1.00  0.00     0.210 C 
ENDBRANCH  14  29
TORSDOF 2
ENDMDL
MODEL 4
REMARK VINA RESULT:      -9.5      2.535      6.024
REMARK  2 active torsions:
REMARK  status: ('A' for Active; 'I' for Inactive)
REMARK    1  A    between atoms: O1_2  and  C2_3 
REMARK    2  A    between atoms: C13_16  and  O2_17 
ROOT
HETATM    1  C2  UNL     1      21.522   6.122  50.507  1.00  0.00     0.098 C 
HETATM    2  C3  UNL     1      22.465   7.078  50.387  1.00  0.00     0.017 C 
HETATM    3  C4  UNL     1      23.741   6.502  50.765  1.00  0.00     0.069 C 
HETATM    4  C5  UNL     1      24.754   6.251  49.907  1.00  0.00     0.001 A 
HETATM    5  C6  UNL     1      25.614   6.659  48.959  1.00  0.00     0.032 A 
HETATM    6  C7  UNL     1      26.379   5.444  49.017  1.00  0.00     0.276 A 
HETATM    7  C8  UNL     1      27.212   4.388  48.924  1.00  0.00     0.076 A 
HETATM    8  C9  UNL     1      26.149   4.423  49.802  1.00  0.00     0.437 A 
HETATM    9  C10 UNL     1      24.806   4.971  50.585  1.00  0.00     0.489 A 
HETATM   10  N1  UNL     1      25.664   4.679  50.046  1.00  0.00     0.237 N 
HETATM   11  N2  UNL     1      25.059   3.472  50.793  1.00  0.00     0.349 N 
HETATM   12  C11 UNL     1      23.906   3.223  51.122  1.00  0.00     0.221 C 
HETATM   13  C12 UNL     1      22.650   3.917  50.987  1.00  0.00     0.083 C 
HETATM   14  C13 UNL     1      21.559   4.708  50.821  1.00  0.00     0.103 C 
HETATM   15  C15 UNL     1      23.844   1.898  51.864  1.00  0.00     0.025 A 
HETATM   16  C16 UNL     1      22.651   1.320  51.930  1.00  0.00     0.016 A 
HETATM   17  C17 UNL     1      22.471   0.171  52.637  1.00  0.00     0.001 A 
HETATM   18  C18 UNL     1      23.361  -0.559  53.352  1.00  0.00     0.002 A 
HETATM   19  C19 UNL     1      24.620  -0.049  53.346  1.00  0.00     0.025 A 
HETATM   20  C20 UNL     1      24.732   1.067  52.634  1.00  0.00     0.029 A 
HETATM   21  N3  UNL     1      25.694   1.893  52.092  1.00  0.00    -0.201 NA
HETATM   22  C21 UNL     1      27.061   2.413  51.950  1.00  0.00     0.433 C 
HETATM   23  O3  UNL     1      27.991   2.072  52.528  1.00  0.00    -0.243 OA
HETATM   24  N4  UNL     1      26.618   3.381  50.915  1.00  0.00     0.241 N 
HETATM   25  H17 UNL     1      26.349   1.410  52.735  1.00  0.00     0.138 HD
HETATM   26  H18 UNL     1      27.656   3.439  51.286  1.00  0.00     0.335 HD
ENDROOT
BRANCH   1  27
HETATM   27  O1  UNL     1      20.467   6.836  50.183  1.00  0.00    -0.353 OA
HETATM   28  C1  UNL     1      20.325   8.188  49.977  1.00  0.00     0.210 C 
ENDBRANCH   1  27
BRANCH  14  29
HETATM   29  O2  UNL     1      20.161   4.396  50.883  1.00  0.00    -0.353 OA
HETATM   30  C14 UNL     1      19.718   3.291  50.060  1.00  0.00     0.210 C 
ENDBRANCH  14  29
TORSDOF 2
ENDMDL
MODEL 5
REMARK VINA RESULT:      -9.4      1.717      6.626
REMARK  2 active torsions:
REMARK  status: ('A' for Active; 'I' for Inactive)
REMARK    1  A    between atoms: O1_2  and  C2_3 
REMARK    2  A    between atoms: C13_16  and  O2_17 
ROOT
HETATM    1  C2  UNL     1      22.158   2.018  49.158  1.00  0.00     0.098 C 
HETATM    2  C3  UNL     1      21.177   1.111  49.337  1.00  0.00     0.017 C 
HETATM    3  C4  UNL     1      21.537   0.277  50.467  1.00  0.00     0.069 C 
HETATM    4  C5  UNL     1      20.907   0.291  51.662  1.00  0.00     0.001 A 
HETATM    5  C6  UNL     1      19.786   0.199  52.397  1.00  0.00     0.032 A 
HETATM    6  C7  UNL     1      20.507   0.157  53.639  1.00  0.00     0.276 A 
HETATM    7  C8  UNL     1      20.999   0.108  54.893  1.00  0.00     0.076 A 
HETATM    8  C9  UNL     1      21.807   0.198  53.779  1.00  0.00     0.437 A 
HETATM    9  C10 UNL     1      22.254   0.326  52.198  1.00  0.00     0.489 A 
HETATM   10  N1  UNL     1      21.902   0.246  53.189  1.00  0.00     0.237 N 
HETATM   11  N2  UNL     1      23.397   0.627  53.176  1.00  0.00     0.349 N 
HETATM   12  C11 UNL     1      24.064   1.250  52.358  1.00  0.00     0.221 C 
HETATM   13  C12 UNL     1      23.777   1.864  51.087  1.00  0.00     0.083 C 
HETATM   14  C13 UNL     1      23.362   2.355  49.890  1.00  0.00     0.103 C 
HETATM   15  C15 UNL     1      25.511   1.333  52.813  1.00  0.00     0.025 A 
HETATM   16  C16 UNL     1      26.247   2.285  52.252  1.00  0.00     0.016 A 
HETATM   17  C17 UNL     1      27.575   2.397  52.531  1.00  0.00     0.001 A 
HETATM   18  C18 UNL     1      28.358   1.650  53.347  1.00  0.00     0.002 A 
HETATM   19  C19 UNL     1      27.694   0.644  53.974  1.00  0.00     0.025 A 
HETATM   20  C20 UNL     1      26.404   0.592  53.666  1.00  0.00     0.029 A 
HETATM   21  N3  UNL     1      25.231   0.001  54.087  1.00  0.00    -0.201 NA
HETATM   22  C21 UNL     1      24.445  -0.990  54.836  1.00  0.00     0.433 C 
HETATM   23  O3  UNL     1      24.852  -1.827  55.506  1.00  0.00    -0.243 OA
HETATM   24  N4  UNL     1      23.175  -0.414  54.325  1.00  0.00     0.241 N 
HETATM   25  H17 UNL     1      25.846  -0.647  54.613  1.00  0.00     0.138 HD
HETATM   26  H18 UNL     1      23.136  -1.345  54.916  1.00  0.00     0.335 HD
ENDROOT
BRANCH   1  27
HETATM   27  O1  UNL     1      21.685   2.621  48.089  1.00  0.00    -0.353 OA
HETATM   28  C1  UNL     1      20.393   2.918  47.724  1.00  0.00     0.210 C 
ENDBRANCH   1  27
BRANCH  14  29
HETATM   29  O2  UNL     1      23.954   3.335  49.027  1.00  0.00    -0.353 OA
HETATM   30  C14 UNL     1      24.228   4.625  49.621  1.00  0.00     0.210 C 
ENDBRANCH  14  29
TORSDOF 2
ENDMDL
MODEL 6
REMARK VINA RESULT:      -9.1      2.601      5.868
REMARK  2 active torsions:
REMARK  status: ('A' for Active; 'I' for Inactive)
REMARK    1  A    between atoms: O1_2  and  C2_3 
REMARK    2  A    between atoms: C13_16  and  O2_17 
ROOT
HETATM    1  C2  UNL     1      21.131   1.313  52.737  1.00  0.00     0.098 C 
HETATM    2  C3  UNL     1      21.887   0.205  52.601  1.00  0.00     0.017 C 
HETATM    3  C4  UNL     1      23.109   0.574  51.914  1.00  0.00     0.069 C 
HETATM    4  C5  UNL     1      24.333   0.601  52.485  1.00  0.00     0.001 A 
HETATM    5  C6  UNL     1      25.316   0.000  53.177  1.00  0.00     0.032 A 
HETATM    6  C7  UNL     1      26.247   1.067  52.936  1.00  0.00     0.276 A 
HETATM    7  C8  UNL     1      27.252   1.958  52.822  1.00  0.00     0.076 A 
HETATM    8  C9  UNL     1      26.015   2.154  52.246  1.00  0.00     0.437 A 
HETATM    9  C10 UNL     1      24.442   1.889  51.829  1.00  0.00     0.489 A 
HETATM   10  N1  UNL     1      25.446   2.000  52.132  1.00  0.00     0.237 N 
HETATM   11  N2  UNL     1      24.900   3.331  51.577  1.00  0.00     0.349 N 
HETATM   12  C11 UNL     1      23.765   3.792  51.559  1.00  0.00     0.221 C 
HETATM   13  C12 UNL     1      22.480   3.317  52.005  1.00  0.00     0.083 C 
HETATM   14  C13 UNL     1      21.341   2.716  52.437  1.00  0.00     0.103 C 
HETATM   15  C15 UNL     1      23.758   5.147  50.870  1.00  0.00     0.025 A 
HETATM   16  C16 UNL     1      22.710   5.923  51.118  1.00  0.00     0.016 A 
HETATM   17  C17 UNL     1      22.567   7.124  50.493  1.00  0.00     0.001 A 
HETATM   18  C18 UNL     1      23.365   7.729  49.580  1.00  0.00     0.002 A 
HETATM   19  C19 UNL     1      24.473   7.011  49.258  1.00  0.00     0.025 A 
HETATM   20  C20 UNL     1      24.558   5.856  49.906  1.00  0.00     0.029 A 
HETATM   21  N3  UNL     1      25.461   4.848  50.175  1.00  0.00    -0.201 NA
HETATM   22  C21 UNL     1      26.704   4.095  49.955  1.00  0.00     0.433 C 
HETATM   23  O3  UNL     1      27.504   4.304  49.162  1.00  0.00    -0.243 OA
HETATM   24  N4  UNL     1      26.368   3.161  51.060  1.00  0.00     0.241 N 
HETATM   25  H17 UNL     1      26.009   5.247  49.389  1.00  0.00     0.138 HD
HETATM   26  H18 UNL     1      27.252   2.947  50.435  1.00  0.00     0.335 HD
ENDROOT
BRANCH   1  27
HETATM   27  O1  UNL     1      20.081   0.774  53.314  1.00  0.00    -0.353 OA
HETATM   28  C1  UNL     1      19.720  -0.543  53.472  1.00  0.00     0.210 C 
ENDBRANCH   1  27
BRANCH  14  29
HETATM   29  O2  UNL     1      20.052   3.265  52.741  1.00  0.00    -0.353 OA
HETATM   30  C14 UNL     1      19.272   3.721  51.610  1.00  0.00     0.210 C 
ENDBRANCH  14  29
TORSDOF 2
ENDMDL
MODEL 7
REMARK VINA RESULT:      -8.8      1.478      1.937
REMARK  2 active torsions:
REMARK  status: ('A' for Active; 'I' for Inactive)
REMARK    1  A    between atoms: O1_2  and  C2_3 
REMARK    2  A    between atoms: C13_16  and  O2_17 
ROOT
HETATM    1  C2  UNL     1      26.580   1.717  52.476  1.00  0.00     0.098 C 
HETATM    2  C3  UNL     1      26.845   2.485  51.401  1.00  0.00     0.017 C 
HETATM    3  C4  UNL     1      25.594   2.751  50.718  1.00  0.00     0.069 C 
HETATM    4  C5  UNL     1      24.986   3.957  50.669  1.00  0.00     0.001 A 
HETATM    5  C6  UNL     1      25.013   5.271  50.392  1.00  0.00     0.032 A 
HETATM    6  C7  UNL     1      23.594   5.418  50.563  1.00  0.00     0.276 A 
HETATM    7  C8  UNL     1      22.294   5.754  50.680  1.00  0.00     0.076 A 
HETATM    8  C9  UNL     1      22.751   4.467  50.872  1.00  0.00     0.437 A 
HETATM    9  C10 UNL     1      23.796   3.199  51.002  1.00  0.00     0.489 A 
HETATM   10  N1  UNL     1      23.182   4.051  50.907  1.00  0.00     0.237 N 
HETATM   11  N2  UNL     1      22.407   2.899  51.579  1.00  0.00     0.349 N 
HETATM   12  C11 UNL     1      22.790   1.969  52.279  1.00  0.00     0.221 C 
HETATM   13  C12 UNL     1      24.079   1.534  52.755  1.00  0.00     0.083 C 
HETATM   14  C13 UNL     1      25.360   1.229  53.087  1.00  0.00     0.103 C 
HETATM   15  C15 UNL     1      21.616   1.091  52.676  1.00  0.00     0.025 A 
HETATM   16  C16 UNL     1      21.805   0.300  53.725  1.00  0.00     0.016 A 
HETATM   17  C17 UNL     1      20.846  -0.583  54.117  1.00  0.00     0.001 A 
HETATM   18  C18 UNL     1      19.623  -0.829  53.588  1.00  0.00     0.002 A 
HETATM   19  C19 UNL     1      19.330  -0.065  52.504  1.00  0.00     0.025 A 
HETATM   20  C20 UNL     1      20.302   0.779  52.177  1.00  0.00     0.029 A 
HETATM   21  N3  UNL     1      20.531   1.885  51.385  1.00  0.00    -0.201 NA
HETATM   22  C21 UNL     1      20.211   2.821  50.297  1.00  0.00     0.433 C 
HETATM   23  O3  UNL     1      19.305   2.778  49.596  1.00  0.00    -0.243 OA
HETATM   24  N4  UNL     1      21.436   3.612  50.577  1.00  0.00     0.241 N 
HETATM   25  H17 UNL     1      19.653   1.616  50.903  1.00  0.00     0.138 HD
HETATM   26  H18 UNL     1      20.831   3.867  49.691  1.00  0.00     0.335 HD
ENDROOT
BRANCH   1  27
HETATM   27  O1  UNL     1      27.808   1.549  52.914  1.00  0.00    -0.353 OA
HETATM   28  C1  UNL     1      28.658   2.415  53.560  1.00  0.00     0.210 C 
ENDBRANCH   1  27
BRANCH  14  29
HETATM   29  O2  UNL     1      25.880   0.380  54.119  1.00  0.00    -0.353 OA
HETATM   30  C14 UNL     1      25.099  -0.798  54.428  1.00  0.00     0.210 C 
ENDBRANCH  14  29
TORSDOF 2
ENDMDL
MODEL 8
REMARK VINA RESULT:      -8.8      2.132      5.386
REMARK  2 active torsions:
REMARK  status: ('A' for Active; 'I' for Inactive)
REMARK    1  A    between atoms: O1_2  and  C2_3 
REMARK    2  A    between atoms: C13_16  and  O2_17 
ROOT
HETATM    1  C2  UNL     1      20.924   4.928  51.000  1.00  0.00     0.098 C 
HETATM    2  C3  UNL     1      21.993   5.750  50.996  1.00  0.00     0.017 C 
HETATM    3  C4  UNL     1      23.093   5.061  51.641  1.00  0.00     0.069 C 
HETATM    4  C5  UNL     1      24.199   4.616  51.005  1.00  0.00     0.001 A 
HETATM    5  C6  UNL     1      25.260   4.832  50.209  1.00  0.00     0.032 A 
HETATM    6  C7  UNL     1      25.833   3.545  50.488  1.00  0.00     0.276 A 
HETATM    7  C8  UNL     1      26.521   2.393  50.621  1.00  0.00     0.076 A 
HETATM    8  C9  UNL     1      25.334   2.632  51.281  1.00  0.00     0.437 A 
HETATM    9  C10 UNL     1      23.959   3.404  51.763  1.00  0.00     0.489 A 
HETATM   10  N1  UNL     1      24.852   2.965  51.414  1.00  0.00     0.237 N 
HETATM   11  N2  UNL     1      23.969   1.910  52.112  1.00  0.00     0.349 N 
HETATM   12  C11 UNL     1      22.753   1.831  52.236  1.00  0.00     0.221 C 
HETATM   13  C12 UNL     1      21.645   2.655  51.825  1.00  0.00     0.083 C 
HETATM   14  C13 UNL     1      20.715   3.553  51.407  1.00  0.00     0.103 C 
HETATM   15  C15 UNL     1      22.385   0.593  53.038  1.00  0.00     0.025 A 
HETATM   16  C16 UNL     1      21.133   0.170  52.919  1.00  0.00     0.016 A 
HETATM   17  C17 UNL     1      20.678  -0.882  53.654  1.00  0.00     0.001 A 
HETATM   18  C18 UNL     1      21.323  -1.647  54.568  1.00  0.00     0.002 A 
HETATM   19  C19 UNL     1      22.620  -1.293  54.763  1.00  0.00     0.025 A 
HETATM   20  C20 UNL     1      23.004  -0.266  54.013  1.00  0.00     0.029 A 
HETATM   21  N3  UNL     1      24.148   0.387  53.607  1.00  0.00    -0.201 NA
HETATM   22  C21 UNL     1      25.576   0.726  53.689  1.00  0.00     0.433 C 
HETATM   23  O3  UNL     1      26.336   0.328  54.450  1.00  0.00    -0.243 OA
HETATM   24  N4  UNL     1      25.456   1.644  52.528  1.00  0.00     0.241 N 
HETATM   25  H17 UNL     1      24.609  -0.111  54.391  1.00  0.00     0.138 HD
HETATM   26  H18 UNL     1      26.410   1.610  53.081  1.00  0.00     0.335 HD
ENDROOT
BRANCH   1  27
HETATM   27  O1  UNL     1      20.048   5.731  50.439  1.00  0.00    -0.353 OA
HETATM   28  C1  UNL     1      19.991   6.251  49.168  1.00  0.00     0.210 C 
ENDBRANCH   1  27
BRANCH  14  29
HETATM   29  O2  UNL     1      19.300   3.417  51.227  1.00  0.00    -0.353 OA
HETATM   30  C14 UNL     1      18.839   2.132  50.748  1.00  0.00     0.210 C 
ENDBRANCH  14  29
TORSDOF 2
ENDMDL
MODEL 9
REMARK VINA RESULT:      -8.6      1.678      2.287
REMARK  2 active torsions:
REMARK  status: ('A' for Active; 'I' for Inactive)
REMARK    1  A    between atoms: O1_2  and  C2_3 
REMARK    2  A    between atoms: C13_16  and  O2_17 
ROOT
HETATM    1  C2  UNL     1      24.968   0.470  53.063  1.00  0.00     0.098 C 
HETATM    2  C3  UNL     1      25.460   1.344  52.162  1.00  0.00     0.017 C 
HETATM    3  C4  UNL     1      24.354   1.839  51.365  1.00  0.00     0.069 C 
HETATM    4  C5  UNL     1      23.873   3.100  51.418  1.00  0.00     0.001 A 
HETATM    5  C6  UNL     1      24.061   4.429  51.350  1.00  0.00     0.032 A 
HETATM    6  C7  UNL     1      22.652   4.708  51.347  1.00  0.00     0.276 A 
HETATM    7  C8  UNL     1      21.384   5.168  51.338  1.00  0.00     0.076 A 
HETATM    8  C9  UNL     1      21.688   3.824  51.392  1.00  0.00     0.437 A 
HETATM    9  C10 UNL     1      22.583   2.441  51.469  1.00  0.00     0.489 A 
HETATM   10  N1  UNL     1      22.070   3.362  51.421  1.00  0.00     0.237 N 
HETATM   11  N2  UNL     1      21.101   2.223  51.800  1.00  0.00     0.349 N 
HETATM   12  C11 UNL     1      21.289   1.169  52.397  1.00  0.00     0.221 C 
HETATM   13  C12 UNL     1      22.447   0.532  52.970  1.00  0.00     0.083 C 
HETATM   14  C13 UNL     1      23.631   0.043  53.423  1.00  0.00     0.103 C 
HETATM   15  C15 UNL     1      19.993   0.381  52.494  1.00  0.00     0.025 A 
HETATM   16  C16 UNL     1      19.951  -0.562  53.427  1.00  0.00     0.016 A 
HETATM   17  C17 UNL     1      18.868  -1.378  53.547  1.00  0.00     0.001 A 
HETATM   18  C18 UNL     1      17.720  -1.411  52.826  1.00  0.00     0.002 A 
HETATM   19  C19 UNL     1      17.664  -0.477  51.841  1.00  0.00     0.025 A 
HETATM   20  C20 UNL     1      18.746   0.290  51.780  1.00  0.00     0.029 A 
HETATM   21  N3  UNL     1      19.191   1.461  51.203  1.00  0.00    -0.201 NA
HETATM   22  C21 UNL     1      19.125   2.567  50.237  1.00  0.00     0.433 C 
HETATM   23  O3  UNL     1      18.334   2.722  49.422  1.00  0.00    -0.243 OA
HETATM   24  N4  UNL     1      20.361   3.170  50.796  1.00  0.00     0.241 N 
HETATM   25  H17 UNL     1      18.375   1.361  50.572  1.00  0.00     0.138 HD
HETATM   26  H18 UNL     1      19.921   3.611  49.885  1.00  0.00     0.335 HD
ENDROOT
BRANCH   1  27
HETATM   27  O1  UNL     1      26.096   0.107  53.631  1.00  0.00    -0.353 OA
HETATM   28  C1  UNL     1      27.168  -0.594  53.133  1.00  0.00     0.210 C 
ENDBRANCH   1  27
BRANCH  14  29
HETATM   29  O2  UNL     1      23.911  -0.992  54.374  1.00  0.00    -0.353 OA
HETATM   30  C14 UNL     1      22.851  -1.302  55.310  1.00  0.00     0.210 C 
ENDBRANCH  14  29
TORSDOF 2
ENDMDL
