MODEL 1
REMARK VINA RESULT:      -7.0      0.000      0.000
REMARK  5 active torsions:
REMARK  status: ('A' for Active; 'I' for Inactive)
REMARK    1  A    between atoms: C2_2  and  P1_3 
REMARK    2  A    between atoms: C5_6  and  N1_7 
REMARK    3  A    between atoms: N1_7  and  C6_8 
REMARK    4  A    between atoms: C10_14  and  O1_15 
REMARK    5  A    between atoms: C12_17  and  O2_18 
ROOT
HETATM    1  C6  UNL     1      24.458   2.590  52.139  1.00  0.00     0.142 A 
HETATM    2  N2  UNL     1      24.791   3.457  51.127  1.00  0.00    -0.224 NA
HETATM    3  C7  UNL     1      26.069   3.414  50.651  1.00  0.00     0.236 A 
HETATM    4  N3  UNL     1      27.006   2.573  51.121  1.00  0.00    -0.241 NA
HETATM    5  C8  UNL     1      26.760   1.682  52.125  1.00  0.00     0.075 A 
HETATM    6  C9  UNL     1      27.682   0.811  52.644  1.00  0.00     0.072 A 
HETATM    7  C10 UNL     1      27.278  -0.030  53.675  1.00  0.00     0.103 A 
HETATM    8  C12 UNL     1      25.980   0.046  54.128  1.00  0.00     0.102 A 
HETATM    9  C14 UNL     1      25.045   0.928  53.600  1.00  0.00     0.057 A 
HETATM   10  C15 UNL     1      25.469   1.770  52.559  1.00  0.00     0.042 A 
ENDROOT
BRANCH   1  11
HETATM   11  N1  UNL     1      23.117   2.738  52.535  1.00  0.00    -0.340 N 
HETATM   12  H6  UNL     1      22.872   3.393  53.287  1.00  0.00     0.167 HD
BRANCH  11  13
HETATM   13  C5  UNL     1      22.116   1.989  51.898  1.00  0.00     0.035 A 
HETATM   14  C4  UNL     1      22.207   1.244  50.787  1.00  0.00     0.031 A 
HETATM   15  C3  UNL     1      21.055   0.521  50.277  1.00  0.00     0.017 A 
HETATM   16  P1  UNL     1      19.740   0.950  51.495  1.00  0.00    -0.046 P 
HETATM   17  C16 UNL     1      20.750   1.986  52.521  1.00  0.00     0.044 A 
BRANCH  16  18
HETATM   18  C2  UNL     1      18.403  -0.152  51.931  1.00  0.00     0.004 C 
HETATM   19  C1  UNL     1      18.363  -0.958  52.956  1.00  0.00     0.012 C 
ENDBRANCH  16  18
ENDBRANCH  11  13
ENDBRANCH   1  11
BRANCH   8  20
HETATM   20  O2  UNL     1      25.750  -0.865  55.160  1.00  0.00    -0.353 OA
HETATM   21  C13 UNL     1      24.441  -1.232  55.536  1.00  0.00     0.210 C 
ENDBRANCH   8  20
BRANCH   7  22
HETATM   22  O1  UNL     1      28.241  -0.896  54.172  1.00  0.00    -0.353 OA
HETATM   23  C11 UNL     1      29.579  -0.870  53.720  1.00  0.00     0.210 C 
ENDBRANCH   7  22
TORSDOF 5
ENDMDL
MODEL 2
REMARK VINA RESULT:      -6.9      2.765      5.283
REMARK  5 active torsions:
REMARK  status: ('A' for Active; 'I' for Inactive)
REMARK    1  A    between atoms: C2_2  and  P1_3 
REMARK    2  A    between atoms: C5_6  and  N1_7 
REMARK    3  A    between atoms: N1_7  and  C6_8 
REMARK    4  A    between atoms: C10_14  and  O1_15 
REMARK    5  A    between atoms: C12_17  and  O2_18 
ROOT
HETATM    1  C6  UNL     1      23.373   3.316  52.504  1.00  0.00     0.142 A 
HETATM    2  N2  UNL     1      22.155   3.030  51.939  1.00  0.00    -0.224 NA
HETATM    3  C7  UNL     1      21.829   1.716  51.768  1.00  0.00     0.236 A 
HETATM    4  N3  UNL     1      22.635   0.701  52.123  1.00  0.00    -0.241 NA
HETATM    5  C8  UNL     1      23.862   0.897  52.689  1.00  0.00     0.075 A 
HETATM    6  C9  UNL     1      24.723  -0.102  53.060  1.00  0.00     0.072 A 
HETATM    7  C10 UNL     1      25.945   0.262  53.616  1.00  0.00     0.103 A 
HETATM    8  C12 UNL     1      26.236   1.598  53.770  1.00  0.00     0.102 A 
HETATM    9  C14 UNL     1      25.361   2.612  53.395  1.00  0.00     0.057 A 
HETATM   10  C15 UNL     1      24.131   2.227  52.835  1.00  0.00     0.042 A 
ENDROOT
BRANCH   1  11
HETATM   11  N1  UNL     1      23.582   4.702  52.623  1.00  0.00    -0.340 N 
HETATM   12  H6  UNL     1      23.360   5.181  53.505  1.00  0.00     0.167 HD
BRANCH  11  13
HETATM   13  C5  UNL     1      24.094   5.425  51.536  1.00  0.00     0.035 A 
HETATM   14  C4  UNL     1      23.903   6.715  51.225  1.00  0.00     0.031 A 
HETATM   15  C3  UNL     1      24.530   7.301  50.053  1.00  0.00     0.017 A 
HETATM   16  P1  UNL     1      25.469   5.881  49.348  1.00  0.00    -0.046 P 
HETATM   17  C16 UNL     1      24.990   4.696  50.578  1.00  0.00     0.044 A 
BRANCH  16  18
HETATM   18  C2  UNL     1      27.007   6.061  48.457  1.00  0.00     0.004 C 
HETATM   19  C1  UNL     1      28.022   5.241  48.484  1.00  0.00     0.012 C 
ENDBRANCH  16  18
ENDBRANCH  11  13
ENDBRANCH   1  11
BRANCH   8  20
HETATM   20  O2  UNL     1      27.497   1.779  54.341  1.00  0.00    -0.353 OA
HETATM   21  C13 UNL     1      28.551   2.372  53.616  1.00  0.00     0.210 C 
ENDBRANCH   8  20
BRANCH   7  22
HETATM   22  O1  UNL     1      26.786  -0.780  53.978  1.00  0.00    -0.353 OA
HETATM   23  C11 UNL     1      27.498  -1.538  53.022  1.00  0.00     0.210 C 
ENDBRANCH   7  22
TORSDOF 5
ENDMDL
MODEL 3
REMARK VINA RESULT:      -6.9      3.781      7.676
REMARK  5 active torsions:
REMARK  status: ('A' for Active; 'I' for Inactive)
REMARK    1  A    between atoms: C2_2  and  P1_3 
REMARK    2  A    between atoms: C5_6  and  N1_7 
REMARK    3  A    between atoms: N1_7  and  C6_8 
REMARK    4  A    between atoms: C10_14  and  O1_15 
REMARK    5  A    between atoms: C12_17  and  O2_18 
ROOT
HETATM    1  C6  UNL     1      22.902  -0.076  52.985  1.00  0.00     0.142 A 
HETATM    2  N2  UNL     1      23.450  -0.610  54.125  1.00  0.00    -0.224 NA
HETATM    3  C7  UNL     1      22.606  -1.218  55.008  1.00  0.00     0.236 A 
HETATM    4  N3  UNL     1      21.280  -1.318  54.815  1.00  0.00    -0.241 NA
HETATM    5  C8  UNL     1      20.655  -0.815  53.711  1.00  0.00     0.075 A 
HETATM    6  C9  UNL     1      19.308  -0.883  53.472  1.00  0.00     0.072 A 
HETATM    7  C10 UNL     1      18.821  -0.311  52.302  1.00  0.00     0.103 A 
HETATM    8  C12 UNL     1      19.706   0.295  51.438  1.00  0.00     0.102 A 
HETATM    9  C14 UNL     1      21.073   0.363  51.680  1.00  0.00     0.057 A 
HETATM   10  C15 UNL     1      21.548  -0.220  52.866  1.00  0.00     0.042 A 
ENDROOT
BRANCH   1  11
HETATM   11  N1  UNL     1      23.878   0.519  52.165  1.00  0.00    -0.340 N 
HETATM   12  H6  UNL     1      23.672   0.710  51.177  1.00  0.00     0.167 HD
BRANCH  11  13
HETATM   13  C5  UNL     1      25.132   0.847  52.700  1.00  0.00     0.035 A 
HETATM   14  C4  UNL     1      25.485   1.935  53.400  1.00  0.00     0.031 A 
HETATM   15  C3  UNL     1      26.842   2.101  53.888  1.00  0.00     0.017 A 
HETATM   16  P1  UNL     1      27.674   0.569  53.292  1.00  0.00    -0.046 P 
HETATM   17  C16 UNL     1      26.253  -0.129  52.493  1.00  0.00     0.044 A 
BRANCH  16  18
HETATM   18  C2  UNL     1      29.016  -0.227  54.163  1.00  0.00     0.004 C 
HETATM   19  C1  UNL     1      29.937  -0.990  53.641  1.00  0.00     0.012 C 
ENDBRANCH  16  18
ENDBRANCH  11  13
ENDBRANCH   1  11
BRANCH   8  20
HETATM   20  O2  UNL     1      19.049   0.812  50.321  1.00  0.00    -0.353 OA
HETATM   21  C13 UNL     1      19.594   1.879  49.578  1.00  0.00     0.210 C 
ENDBRANCH   8  20
BRANCH   7  22
HETATM   22  O1  UNL     1      17.453  -0.403  52.099  1.00  0.00    -0.353 OA
HETATM   23  C11 UNL     1      16.676  -1.434  52.670  1.00  0.00     0.210 C 
ENDBRANCH   7  22
TORSDOF 5
ENDMDL
MODEL 4
REMARK VINA RESULT:      -6.6      2.687      4.203
REMARK  5 active torsions:
REMARK  status: ('A' for Active; 'I' for Inactive)
REMARK    1  A    between atoms: C2_2  and  P1_3 
REMARK    2  A    between atoms: C5_6  and  N1_7 
REMARK    3  A    between atoms: N1_7  and  C6_8 
REMARK    4  A    between atoms: C10_14  and  O1_15 
REMARK    5  A    between atoms: C12_17  and  O2_18 
ROOT
HETATM    1  C6  UNL     1      23.308   1.989  52.744  1.00  0.00     0.142 A 
HETATM    2  N2  UNL     1      22.204   1.234  52.432  1.00  0.00    -0.224 NA
HETATM    3  C7  UNL     1      22.286  -0.115  52.620  1.00  0.00     0.236 A 
HETATM    4  N3  UNL     1      23.383  -0.732  53.092  1.00  0.00    -0.241 NA
HETATM    5  C8  UNL     1      24.522  -0.057  53.425  1.00  0.00     0.075 A 
HETATM    6  C9  UNL     1      25.668  -0.639  53.902  1.00  0.00     0.072 A 
HETATM    7  C10 UNL     1      26.751   0.186  54.186  1.00  0.00     0.103 A 
HETATM    8  C12 UNL     1      26.628   1.542  53.980  1.00  0.00     0.102 A 
HETATM    9  C14 UNL     1      25.465   2.132  53.498  1.00  0.00     0.057 A 
HETATM   10  C15 UNL     1      24.381   1.284  53.217  1.00  0.00     0.042 A 
ENDROOT
BRANCH   1  11
HETATM   11  N1  UNL     1      23.091   3.357  52.504  1.00  0.00    -0.340 N 
HETATM   12  H6  UNL     1      22.819   3.977  53.276  1.00  0.00     0.167 HD
BRANCH  11  13
HETATM   13  C5  UNL     1      23.246   3.871  51.208  1.00  0.00     0.035 A 
HETATM   14  C4  UNL     1      24.319   3.812  50.407  1.00  0.00     0.031 A 
HETATM   15  C3  UNL     1      24.292   4.397  49.078  1.00  0.00     0.017 A 
HETATM   16  P1  UNL     1      22.585   5.084  48.976  1.00  0.00    -0.046 P 
HETATM   17  C16 UNL     1      22.072   4.578  50.597  1.00  0.00     0.044 A 
BRANCH  16  18
HETATM   18  C2  UNL     1      21.657   5.197  47.454  1.00  0.00     0.004 C 
HETATM   19  C1  UNL     1      22.021   4.743  46.286  1.00  0.00     0.012 C 
ENDBRANCH  16  18
ENDBRANCH  11  13
ENDBRANCH   1  11
BRANCH   8  20
HETATM   20  O2  UNL     1      27.804   2.213  54.317  1.00  0.00    -0.353 OA
HETATM   21  C13 UNL     1      28.746   2.579  53.334  1.00  0.00     0.210 C 
ENDBRANCH   8  20
BRANCH   7  22
HETATM   22  O1  UNL     1      27.889  -0.443  54.666  1.00  0.00    -0.353 OA
HETATM   23  C11 UNL     1      28.868  -0.986  53.804  1.00  0.00     0.210 C 
ENDBRANCH   7  22
TORSDOF 5
ENDMDL
MODEL 5
REMARK VINA RESULT:      -6.4      3.089      6.549
REMARK  5 active torsions:
REMARK  status: ('A' for Active; 'I' for Inactive)
REMARK    1  A    between atoms: C2_2  and  P1_3 
REMARK    2  A    between atoms: C5_6  and  N1_7 
REMARK    3  A    between atoms: N1_7  and  C6_8 
REMARK    4  A    between atoms: C10_14  and  O1_15 
REMARK    5  A    between atoms: C12_17  and  O2_18 
ROOT
HETATM    1  C6  UNL     1      23.393   2.619  52.141  1.00  0.00     0.142 A 
HETATM    2  N2  UNL     1      23.654   3.563  51.179  1.00  0.00    -0.224 NA
HETATM    3  C7  UNL     1      22.740   3.716  50.177  1.00  0.00     0.236 A 
HETATM    4  N3  UNL     1      21.609   2.994  50.090  1.00  0.00    -0.241 NA
HETATM    5  C8  UNL     1      21.275   2.035  51.003  1.00  0.00     0.075 A 
HETATM    6  C9  UNL     1      20.141   1.268  50.954  1.00  0.00     0.072 A 
HETATM    7  C10 UNL     1      19.948   0.323  51.956  1.00  0.00     0.103 A 
HETATM    8  C12 UNL     1      20.895   0.199  52.947  1.00  0.00     0.102 A 
HETATM    9  C14 UNL     1      22.045   0.979  52.997  1.00  0.00     0.057 A 
HETATM   10  C15 UNL     1      22.224   1.929  51.978  1.00  0.00     0.042 A 
ENDROOT
BRANCH   1  11
HETATM   11  N1  UNL     1      24.412   2.565  53.110  1.00  0.00    -0.340 N 
HETATM   12  H6  UNL     1      24.426   3.247  53.878  1.00  0.00     0.167 HD
BRANCH  11  13
HETATM   13  C5  UNL     1      25.405   1.578  53.023  1.00  0.00     0.035 A 
HETATM   14  C4  UNL     1      25.667   0.741  52.009  1.00  0.00     0.031 A 
HETATM   15  C3  UNL     1      26.755  -0.217  52.094  1.00  0.00     0.017 A 
HETATM   16  P1  UNL     1      27.455   0.117  53.766  1.00  0.00    -0.046 P 
HETATM   17  C16 UNL     1      26.325   1.416  54.197  1.00  0.00     0.044 A 
BRANCH  16  18
HETATM   18  C2  UNL     1      29.182  -0.091  54.171  1.00  0.00     0.004 C 
HETATM   19  C1  UNL     1      29.987  -1.002  53.697  1.00  0.00     0.012 C 
ENDBRANCH  16  18
ENDBRANCH  11  13
ENDBRANCH   1  11
BRANCH   8  20
HETATM   20  O2  UNL     1      20.541  -0.791  53.865  1.00  0.00    -0.353 OA
HETATM   21  C13 UNL     1      21.517  -1.592  54.492  1.00  0.00     0.210 C 
ENDBRANCH   8  20
BRANCH   7  22
HETATM   22  O1  UNL     1      18.788  -0.432  51.870  1.00  0.00    -0.353 OA
HETATM   23  C11 UNL     1      17.664  -0.001  51.131  1.00  0.00     0.210 C 
ENDBRANCH   7  22
TORSDOF 5
ENDMDL
MODEL 6
REMARK VINA RESULT:      -6.4      2.587      4.236
REMARK  5 active torsions:
REMARK  status: ('A' for Active; 'I' for Inactive)
REMARK    1  A    between atoms: C2_2  and  P1_3 
REMARK    2  A    between atoms: C5_6  and  N1_7 
REMARK    3  A    between atoms: N1_7  and  C6_8 
REMARK    4  A    between atoms: C10_14  and  O1_15 
REMARK    5  A    between atoms: C12_17  and  O2_18 
ROOT
HETATM    1  C6  UNL     1      22.343   1.063  53.033  1.00  0.00     0.142 A 
HETATM    2  N2  UNL     1      21.428   0.389  53.805  1.00  0.00    -0.224 NA
HETATM    3  C7  UNL     1      21.889  -0.629  54.588  1.00  0.00     0.236 A 
HETATM    4  N3  UNL     1      23.181  -0.997  54.639  1.00  0.00    -0.241 NA
HETATM    5  C8  UNL     1      24.153  -0.382  53.905  1.00  0.00     0.075 A 
HETATM    6  C9  UNL     1      25.479  -0.724  53.915  1.00  0.00     0.072 A 
HETATM    7  C10 UNL     1      26.347  -0.005  53.101  1.00  0.00     0.103 A 
HETATM    8  C12 UNL     1      25.841   1.013  52.324  1.00  0.00     0.102 A 
HETATM    9  C14 UNL     1      24.496   1.362  52.315  1.00  0.00     0.057 A 
HETATM   10  C15 UNL     1      23.634   0.626  53.144  1.00  0.00     0.042 A 
ENDROOT
BRANCH   1  11
HETATM   11  N1  UNL     1      21.738   2.083  52.277  1.00  0.00    -0.340 N 
HETATM   12  H6  UNL     1      21.333   2.901  52.750  1.00  0.00     0.167 HD
BRANCH  11  13
HETATM   13  C5  UNL     1      21.690   1.981  50.880  1.00  0.00     0.035 A 
HETATM   14  C4  UNL     1      21.406   0.907  50.129  1.00  0.00     0.031 A 
HETATM   15  C3  UNL     1      21.393   0.992  48.678  1.00  0.00     0.017 A 
HETATM   16  P1  UNL     1      21.822   2.759  48.377  1.00  0.00    -0.046 P 
HETATM   17  C16 UNL     1      21.977   3.219  50.083  1.00  0.00     0.044 A 
BRANCH  16  18
HETATM   18  C2  UNL     1      21.219   3.695  46.979  1.00  0.00     0.004 C 
HETATM   19  C1  UNL     1      21.869   3.952  45.877  1.00  0.00     0.012 C 
ENDBRANCH  16  18
ENDBRANCH  11  13
ENDBRANCH   1  11
BRANCH   8  20
HETATM   20  O2  UNL     1      26.847   1.624  51.574  1.00  0.00    -0.353 OA
HETATM   21  C13 UNL     1      26.614   2.828  50.877  1.00  0.00     0.210 C 
ENDBRANCH   8  20
BRANCH   7  22
HETATM   22  O1  UNL     1      27.680  -0.384  53.142  1.00  0.00    -0.353 OA
HETATM   23  C11 UNL     1      28.493  -0.152  54.273  1.00  0.00     0.210 C 
ENDBRANCH   7  22
TORSDOF 5
ENDMDL
MODEL 7
REMARK VINA RESULT:      -6.4      3.415      6.018
REMARK  5 active torsions:
REMARK  status: ('A' for Active; 'I' for Inactive)
REMARK    1  A    between atoms: C2_2  and  P1_3 
REMARK    2  A    between atoms: C5_6  and  N1_7 
REMARK    3  A    between atoms: N1_7  and  C6_8 
REMARK    4  A    between atoms: C10_14  and  O1_15 
REMARK    5  A    between atoms: C12_17  and  O2_18 
ROOT
HETATM    1  C6  UNL     1      25.947   2.524  50.910  1.00  0.00     0.142 A 
HETATM    2  N2  UNL     1      27.168   2.616  51.532  1.00  0.00    -0.224 NA
HETATM    3  C7  UNL     1      27.295   2.045  52.764  1.00  0.00     0.236 A 
HETATM    4  N3  UNL     1      26.293   1.404  53.391  1.00  0.00    -0.241 NA
HETATM    5  C8  UNL     1      25.050   1.269  52.845  1.00  0.00     0.075 A 
HETATM    6  C9  UNL     1      23.994   0.634  53.446  1.00  0.00     0.072 A 
HETATM    7  C10 UNL     1      22.784   0.589  52.763  1.00  0.00     0.103 A 
HETATM    8  C12 UNL     1      22.696   1.179  51.522  1.00  0.00     0.102 A 
HETATM    9  C14 UNL     1      23.768   1.822  50.912  1.00  0.00     0.057 A 
HETATM   10  C15 UNL     1      24.983   1.858  51.615  1.00  0.00     0.042 A 
ENDROOT
BRANCH   1  11
HETATM   11  N1  UNL     1      25.952   3.151  49.652  1.00  0.00    -0.340 N 
HETATM   12  H6  UNL     1      25.890   2.586  48.796  1.00  0.00     0.167 HD
BRANCH  11  13
HETATM   13  C5  UNL     1      26.042   4.549  49.569  1.00  0.00     0.035 A 
HETATM   14  C4  UNL     1      26.884   5.291  48.836  1.00  0.00     0.031 A 
HETATM   15  C3  UNL     1      26.822   6.742  48.870  1.00  0.00     0.017 A 
HETATM   16  P1  UNL     1      25.443   7.058  50.051  1.00  0.00    -0.046 P 
HETATM   17  C16 UNL     1      25.077   5.355  50.388  1.00  0.00     0.044 A 
BRANCH  16  18
HETATM   18  C2  UNL     1      24.356   8.472  49.941  1.00  0.00     0.004 C 
HETATM   19  C1  UNL     1      23.256   8.555  49.244  1.00  0.00     0.012 C 
ENDBRANCH  16  18
ENDBRANCH  11  13
ENDBRANCH   1  11
BRANCH   8  20
HETATM   20  O2  UNL     1      21.416   1.040  50.984  1.00  0.00    -0.353 OA
HETATM   21  C13 UNL     1      21.205   1.015  49.590  1.00  0.00     0.210 C 
ENDBRANCH   8  20
BRANCH   7  22
HETATM   22  O1  UNL     1      21.742  -0.062  53.405  1.00  0.00    -0.353 OA
HETATM   23  C11 UNL     1      21.897  -0.653  54.678  1.00  0.00     0.210 C 
ENDBRANCH   7  22
TORSDOF 5
ENDMDL
MODEL 8
REMARK VINA RESULT:      -6.3      2.558      4.693
REMARK  5 active torsions:
REMARK  status: ('A' for Active; 'I' for Inactive)
REMARK    1  A    between atoms: C2_2  and  P1_3 
REMARK    2  A    between atoms: C5_6  and  N1_7 
REMARK    3  A    between atoms: N1_7  and  C6_8 
REMARK    4  A    between atoms: C10_14  and  O1_15 
REMARK    5  A    between atoms: C12_17  and  O2_18 
ROOT
HETATM    1  C6  UNL     1      22.000   0.284  52.722  1.00  0.00     0.142 A 
HETATM    2  N2  UNL     1      20.991  -0.179  53.532  1.00  0.00    -0.224 NA
HETATM    3  C7  UNL     1      21.346  -0.856  54.661  1.00  0.00     0.236 A 
HETATM    4  N3  UNL     1      22.622  -1.088  55.016  1.00  0.00    -0.241 NA
HETATM    5  C8  UNL     1      23.683  -0.664  54.269  1.00  0.00     0.075 A 
HETATM    6  C9  UNL     1      24.999  -0.882  54.581  1.00  0.00     0.072 A 
HETATM    7  C10 UNL     1      25.967  -0.394  53.710  1.00  0.00     0.103 A 
HETATM    8  C12 UNL     1      25.567   0.282  52.580  1.00  0.00     0.102 A 
HETATM    9  C14 UNL     1      24.231   0.505  52.264  1.00  0.00     0.057 A 
HETATM   10  C15 UNL     1      23.267   0.006  53.154  1.00  0.00     0.042 A 
ENDROOT
BRANCH   1  11
HETATM   11  N1  UNL     1      21.497   0.961  51.597  1.00  0.00    -0.340 N 
HETATM   12  H6  UNL     1      20.921   0.459  50.910  1.00  0.00     0.167 HD
BRANCH  11  13
HETATM   13  C5  UNL     1      21.786   2.322  51.416  1.00  0.00     0.035 A 
HETATM   14  C4  UNL     1      21.584   3.340  52.265  1.00  0.00     0.031 A 
HETATM   15  C3  UNL     1      21.960   4.697  51.906  1.00  0.00     0.017 A 
HETATM   16  P1  UNL     1      22.658   4.485  50.213  1.00  0.00    -0.046 P 
HETATM   17  C16 UNL     1      22.414   2.731  50.116  1.00  0.00     0.044 A 
BRANCH  16  18
HETATM   18  C2  UNL     1      23.967   5.507  49.552  1.00  0.00     0.004 C 
HETATM   19  C1  UNL     1      25.160   5.112  49.202  1.00  0.00     0.012 C 
ENDBRANCH  16  18
ENDBRANCH  11  13
ENDBRANCH   1  11
BRANCH   8  20
HETATM   20  O2  UNL     1      26.664   0.699  51.824  1.00  0.00    -0.353 OA
HETATM   21  C13 UNL     1      26.804   2.041  51.413  1.00  0.00     0.210 C 
ENDBRANCH   8  20
BRANCH   7  22
HETATM   22  O1  UNL     1      27.286  -0.636  54.063  1.00  0.00    -0.353 OA
HETATM   23  C11 UNL     1      28.036   0.276  54.839  1.00  0.00     0.210 C 
ENDBRANCH   7  22
TORSDOF 5
ENDMDL
MODEL 9
REMARK VINA RESULT:      -6.3      2.702      4.406
REMARK  5 active torsions:
REMARK  status: ('A' for Active; 'I' for Inactive)
REMARK    1  A    between atoms: C2_2  and  P1_3 
REMARK    2  A    between atoms: C5_6  and  N1_7 
REMARK    3  A    between atoms: N1_7  and  C6_8 
REMARK    4  A    between atoms: C10_14  and  O1_15 
REMARK    5  A    between atoms: C12_17  and  O2_18 
ROOT
HETATM    1  C6  UNL     1      26.836   1.990  51.947  1.00  0.00     0.142 A 
HETATM    2  N2  UNL     1      28.005   2.655  52.224  1.00  0.00    -0.224 NA
HETATM    3  C7  UNL     1      28.597   2.419  53.430  1.00  0.00     0.236 A 
HETATM    4  N3  UNL     1      28.097   1.576  54.348  1.00  0.00    -0.241 NA
HETATM    5  C8  UNL     1      26.941   0.876  54.155  1.00  0.00     0.075 A 
HETATM    6  C9  UNL     1      26.385   0.012  55.061  1.00  0.00     0.072 A 
HETATM    7  C10 UNL     1      25.194  -0.619  54.718  1.00  0.00     0.103 A 
HETATM    8  C12 UNL     1      24.628  -0.352  53.492  1.00  0.00     0.102 A 
HETATM    9  C14 UNL     1      25.193   0.524  52.572  1.00  0.00     0.057 A 
HETATM   10  C15 UNL     1      26.395   1.152  52.934  1.00  0.00     0.042 A 
ENDROOT
BRANCH   1  11
HETATM   11  N1  UNL     1      26.333   2.322  50.676  1.00  0.00    -0.340 N 
HETATM   12  H6  UNL     1      26.384   1.641  49.909  1.00  0.00     0.167 HD
BRANCH  11  13
HETATM   13  C5  UNL     1      25.762   3.585  50.461  1.00  0.00     0.035 A 
HETATM   14  C4  UNL     1      26.150   4.545  49.610  1.00  0.00     0.031 A 
HETATM   15  C3  UNL     1      25.421   5.798  49.515  1.00  0.00     0.017 A 
HETATM   16  P1  UNL     1      24.073   5.573  50.751  1.00  0.00    -0.046 P 
HETATM   17  C16 UNL     1      24.546   3.943  51.265  1.00  0.00     0.044 A 
BRANCH  16  18
HETATM   18  C2  UNL     1      22.452   6.306  50.585  1.00  0.00     0.004 C 
HETATM   19  C1  UNL     1      21.324   5.670  50.425  1.00  0.00     0.012 C 
ENDBRANCH  16  18
ENDBRANCH  11  13
ENDBRANCH   1  11
BRANCH   8  20
HETATM   20  O2  UNL     1      23.443  -1.068  53.316  1.00  0.00    -0.353 OA
HETATM   21  C13 UNL     1      22.259  -0.433  52.889  1.00  0.00     0.210 C 
ENDBRANCH   8  20
BRANCH   7  22
HETATM   22  O1  UNL     1      24.666  -1.485  55.664  1.00  0.00    -0.353 OA
HETATM   23  C11 UNL     1      24.788  -1.248  57.051  1.00  0.00     0.210 C 
ENDBRANCH   7  22
TORSDOF 5
ENDMDL
