MODEL 1
REMARK VINA RESULT:      -8.4      0.000      0.000
REMARK  7 active torsions:
REMARK  status: ('A' for Active; 'I' for Inactive)
REMARK    1  A    between atoms: C1_2  and  C2_3 
REMARK    2  A    between atoms: C2_3  and  C3_4 
REMARK    3  A    between atoms: C6_9  and  N3_10 
REMARK    4  A    between atoms: N3_10  and  C7_11 
REMARK    5  A    between atoms: C10_14  and  O2_15 
REMARK    6  A    between atoms: O2_15  and  C11_16 
REMARK    7  A    between atoms: C11_16  and  C12_17 
ROOT
HETATM    1  C7  UNL     1      25.714   5.742  49.051  1.00  0.00     0.035 A 
HETATM    2  C8  UNL     1      26.605   4.702  48.930  1.00  0.00     0.032 A 
HETATM    3  C9  UNL     1      26.499   3.610  49.756  1.00  0.00     0.041 A 
HETATM    4  C10 UNL     1      25.524   3.502  50.719  1.00  0.00     0.091 A 
HETATM    5  C18 UNL     1      24.605   4.563  50.852  1.00  0.00     0.069 A 
HETATM    6 CL1  UNL     1      23.267   4.690  51.991  1.00  0.00    -0.081 Cl
HETATM    7  C19 UNL     1      24.707   5.684  50.011  1.00  0.00     0.056 A 
ENDROOT
BRANCH   1   8
HETATM    8  N3  UNL     1      25.744   6.907  48.200  1.00  0.00    -0.338 N 
HETATM    9  H6  UNL     1      25.350   6.958  47.243  1.00  0.00     0.167 HD
BRANCH   8  10
HETATM   10  C6  UNL     1      26.396   8.016  48.847  1.00  0.00     0.175 A 
HETATM   11  N2  UNL     1      25.900   9.248  49.303  1.00  0.00    -0.134 NA
HETATM   12  N1  UNL     1      26.826   9.958  49.845  1.00  0.00    -0.175 NA
HETATM   13  C5  UNL     1      28.012   9.209  49.793  1.00  0.00     0.209 A 
HETATM   14  C4  UNL     1      29.276   9.699  49.329  1.00  0.00     0.033 C 
HETATM   15  C20 UNL     1      27.716   7.957  49.119  1.00  0.00     0.088 A 
HETATM   16  C3  UNL     1      29.917   8.516  49.155  1.00  0.00     0.014 C 
HETATM   17  N4  UNL     1      29.031   7.351  49.034  1.00  0.00    -0.358 N 
HETATM   18  H16 UNL     1      29.087   6.320  48.915  1.00  0.00     0.165 HD
BRANCH  16  19
HETATM   19  C2  UNL     1      31.299   8.099  48.723  1.00  0.00     0.126 C 
BRANCH  19  20
HETATM   20  C1  UNL     1      31.736   6.857  49.414  1.00  0.00     0.237 C 
HETATM   21  O1  UNL     1      31.406   5.689  49.508  1.00  0.00    -0.306 OA
ENDBRANCH  19  20
ENDBRANCH  16  19
ENDBRANCH   8  10
ENDBRANCH   1   8
BRANCH   4  22
HETATM   22  O2  UNL     1      25.179   2.581  51.644  1.00  0.00    -0.345 OA
BRANCH  22  23
HETATM   23  C11 UNL     1      25.596   1.303  51.916  1.00  0.00     0.214 C 
BRANCH  23  24
HETATM   24  C12 UNL     1      26.857   1.126  52.638  1.00  0.00    -0.031 A 
HETATM   25  C13 UNL     1      27.294  -0.205  52.670  1.00  0.00     0.009 A 
HETATM   26  C14 UNL     1      28.467  -0.595  53.289  1.00  0.00     0.004 A 
HETATM   27  C15 UNL     1      29.272   0.323  53.913  1.00  0.00     0.042 A 
HETATM   28  C16 UNL     1      28.838   1.626  53.877  1.00  0.00     0.117 A 
HETATM   29  F1  UNL     1      29.602   2.573  54.482  1.00  0.00    -0.206 F 
HETATM   30  C17 UNL     1      27.673   2.018  53.264  1.00  0.00     0.051 A 
ENDBRANCH  23  24
ENDBRANCH  22  23
ENDBRANCH   4  22
TORSDOF 7
ENDMDL
MODEL 2
REMARK VINA RESULT:      -8.2      1.389      1.676
REMARK  7 active torsions:
REMARK  status: ('A' for Active; 'I' for Inactive)
REMARK    1  A    between atoms: C1_2  and  C2_3 
REMARK    2  A    between atoms: C2_3  and  C3_4 
REMARK    3  A    between atoms: C6_9  and  N3_10 
REMARK    4  A    between atoms: N3_10  and  C7_11 
REMARK    5  A    between atoms: C10_14  and  O2_15 
REMARK    6  A    between atoms: O2_15  and  C11_16 
REMARK    7  A    between atoms: C11_16  and  C12_17 
ROOT
HETATM    1  C7  UNL     1      25.659   5.304  49.301  1.00  0.00     0.035 A 
HETATM    2  C8  UNL     1      26.620   4.327  49.202  1.00  0.00     0.032 A 
HETATM    3  C9  UNL     1      26.601   3.257  50.064  1.00  0.00     0.041 A 
HETATM    4  C10 UNL     1      25.646   3.112  51.043  1.00  0.00     0.091 A 
HETATM    5  C18 UNL     1      24.655   4.109  51.153  1.00  0.00     0.069 A 
HETATM    6 CL1  UNL     1      23.323   4.178  52.304  1.00  0.00    -0.081 Cl
HETATM    7  C19 UNL     1      24.668   5.206  50.276  1.00  0.00     0.056 A 
ENDROOT
BRANCH   1   8
HETATM    8  N3  UNL     1      25.596   6.440  48.414  1.00  0.00    -0.338 N 
HETATM    9  H6  UNL     1      25.268   6.413  47.431  1.00  0.00     0.167 HD
BRANCH   8  10
HETATM   10  C6  UNL     1      26.052   7.642  49.063  1.00  0.00     0.175 A 
HETATM   11  N2  UNL     1      25.346   8.715  49.631  1.00  0.00    -0.134 NA
HETATM   12  N1  UNL     1      26.144   9.593  50.129  1.00  0.00    -0.175 NA
HETATM   13  C5  UNL     1      27.454   9.131  49.928  1.00  0.00     0.209 A 
HETATM   14  C4  UNL     1      28.527   9.907  49.382  1.00  0.00     0.033 C 
HETATM   15  C20 UNL     1      27.373   7.870  49.212  1.00  0.00     0.088 A 
HETATM   16  C3  UNL     1      29.391   8.903  49.084  1.00  0.00     0.014 C 
HETATM   17  N4  UNL     1      28.774   7.576  48.976  1.00  0.00    -0.358 N 
HETATM   18  H16 UNL     1      29.041   6.588  48.793  1.00  0.00     0.165 HD
BRANCH  16  19
HETATM   19  C2  UNL     1      30.781   8.822  48.508  1.00  0.00     0.126 C 
BRANCH  19  20
HETATM   20  C1  UNL     1      31.468   7.568  48.915  1.00  0.00     0.237 C 
HETATM   21  O1  UNL     1      31.686   6.922  49.923  1.00  0.00    -0.306 OA
ENDBRANCH  19  20
ENDBRANCH  16  19
ENDBRANCH   8  10
ENDBRANCH   1   8
BRANCH   4  22
HETATM   22  O2  UNL     1      25.377   2.200  52.000  1.00  0.00    -0.345 OA
BRANCH  22  23
HETATM   23  C11 UNL     1      26.001   1.830  53.164  1.00  0.00     0.214 C 
BRANCH  23  24
HETATM   24  C12 UNL     1      26.880   0.660  53.136  1.00  0.00    -0.031 A 
HETATM   25  C13 UNL     1      28.166   0.922  53.631  1.00  0.00     0.009 A 
HETATM   26  C14 UNL     1      29.152  -0.044  53.707  1.00  0.00     0.004 A 
HETATM   27  C15 UNL     1      28.910  -1.329  53.293  1.00  0.00     0.042 A 
HETATM   28  C16 UNL     1      27.649  -1.579  52.810  1.00  0.00     0.117 A 
HETATM   29  F1  UNL     1      27.362  -2.838  52.388  1.00  0.00    -0.206 F 
HETATM   30  C17 UNL     1      26.666  -0.623  52.732  1.00  0.00     0.051 A 
ENDBRANCH  23  24
ENDBRANCH  22  23
ENDBRANCH   4  22
TORSDOF 7
ENDMDL
MODEL 3
REMARK VINA RESULT:      -8.1      2.420      3.157
REMARK  7 active torsions:
REMARK  status: ('A' for Active; 'I' for Inactive)
REMARK    1  A    between atoms: C1_2  and  C2_3 
REMARK    2  A    between atoms: C2_3  and  C3_4 
REMARK    3  A    between atoms: C6_9  and  N3_10 
REMARK    4  A    between atoms: N3_10  and  C7_11 
REMARK    5  A    between atoms: C10_14  and  O2_15 
REMARK    6  A    between atoms: O2_15  and  C11_16 
REMARK    7  A    between atoms: C11_16  and  C12_17 
ROOT
HETATM    1  C7  UNL     1      25.615   5.358  49.288  1.00  0.00     0.035 A 
HETATM    2  C8  UNL     1      26.528   4.331  49.293  1.00  0.00     0.032 A 
HETATM    3  C9  UNL     1      26.382   3.289  50.176  1.00  0.00     0.041 A 
HETATM    4  C10 UNL     1      25.343   3.220  51.074  1.00  0.00     0.091 A 
HETATM    5  C18 UNL     1      24.401   4.269  51.078  1.00  0.00     0.069 A 
HETATM    6 CL1  UNL     1      22.984   4.438  52.112  1.00  0.00    -0.081 Cl
HETATM    7  C19 UNL     1      24.544   5.339  50.178  1.00  0.00     0.056 A 
ENDROOT
BRANCH   1   8
HETATM    8  N3  UNL     1      25.686   6.470  48.371  1.00  0.00    -0.338 N 
HETATM    9  H6  UNL     1      25.448   6.430  47.363  1.00  0.00     0.167 HD
BRANCH   8  10
HETATM   10  C6  UNL     1      26.134   7.669  49.030  1.00  0.00     0.175 A 
HETATM   11  N2  UNL     1      25.424   8.761  49.555  1.00  0.00    -0.134 NA
HETATM   12  N1  UNL     1      26.215   9.629  50.082  1.00  0.00    -0.175 NA
HETATM   13  C5  UNL     1      27.523   9.139  49.948  1.00  0.00     0.209 A 
HETATM   14  C4  UNL     1      28.636   9.889  49.446  1.00  0.00     0.033 C 
HETATM   15  C20 UNL     1      27.451   7.873  49.240  1.00  0.00     0.088 A 
HETATM   16  C3  UNL     1      29.493   8.866  49.198  1.00  0.00     0.014 C 
HETATM   17  N4  UNL     1      28.855   7.550  49.073  1.00  0.00    -0.358 N 
HETATM   18  H16 UNL     1      29.112   6.555  48.912  1.00  0.00     0.165 HD
BRANCH  16  19
HETATM   19  C2  UNL     1      30.906   8.752  48.689  1.00  0.00     0.126 C 
BRANCH  19  20
HETATM   20  C1  UNL     1      31.708   7.806  49.510  1.00  0.00     0.237 C 
HETATM   21  O1  UNL     1      31.741   6.620  49.780  1.00  0.00    -0.306 OA
ENDBRANCH  19  20
ENDBRANCH  16  19
ENDBRANCH   8  10
ENDBRANCH   1   8
BRANCH   4  22
HETATM   22  O2  UNL     1      24.949   2.350  52.028  1.00  0.00    -0.345 OA
BRANCH  22  23
HETATM   23  C11 UNL     1      24.828   0.985  52.080  1.00  0.00     0.214 C 
BRANCH  23  24
HETATM   24  C12 UNL     1      23.845   0.412  53.000  1.00  0.00    -0.031 A 
HETATM   25  C13 UNL     1      22.561   0.955  52.846  1.00  0.00     0.009 A 
HETATM   26  C14 UNL     1      21.480   0.549  53.605  1.00  0.00     0.004 A 
HETATM   27  C15 UNL     1      21.617  -0.424  54.562  1.00  0.00     0.042 A 
HETATM   28  C16 UNL     1      22.877  -0.951  54.708  1.00  0.00     0.117 A 
HETATM   29  F1  UNL     1      23.063  -1.918  55.644  1.00  0.00    -0.206 F 
HETATM   30  C17 UNL     1      23.955  -0.551  53.956  1.00  0.00     0.051 A 
ENDBRANCH  23  24
ENDBRANCH  22  23
ENDBRANCH   4  22
TORSDOF 7
ENDMDL
MODEL 4
REMARK VINA RESULT:      -8.0      1.967      2.694
REMARK  7 active torsions:
REMARK  status: ('A' for Active; 'I' for Inactive)
REMARK    1  A    between atoms: C1_2  and  C2_3 
REMARK    2  A    between atoms: C2_3  and  C3_4 
REMARK    3  A    between atoms: C6_9  and  N3_10 
REMARK    4  A    between atoms: N3_10  and  C7_11 
REMARK    5  A    between atoms: C10_14  and  O2_15 
REMARK    6  A    between atoms: O2_15  and  C11_16 
REMARK    7  A    between atoms: C11_16  and  C12_17 
ROOT
HETATM    1  C7  UNL     1      25.022   3.864  49.799  1.00  0.00     0.035 A 
HETATM    2  C8  UNL     1      26.207   3.453  50.362  1.00  0.00     0.032 A 
HETATM    3  C9  UNL     1      26.218   2.393  51.236  1.00  0.00     0.041 A 
HETATM    4  C10 UNL     1      25.077   1.707  51.583  1.00  0.00     0.091 A 
HETATM    5  C18 UNL     1      23.857   2.122  51.011  1.00  0.00     0.069 A 
HETATM    6 CL1  UNL     1      22.258   1.431  51.276  1.00  0.00    -0.081 Cl
HETATM    7  C19 UNL     1      23.837   3.205  50.117  1.00  0.00     0.056 A 
ENDROOT
BRANCH   1   8
HETATM    8  N3  UNL     1      24.936   4.948  48.851  1.00  0.00    -0.338 N 
HETATM    9  H6  UNL     1      24.976   4.846  47.821  1.00  0.00     0.167 HD
BRANCH   8  10
HETATM   10  C6  UNL     1      24.782   6.218  49.514  1.00  0.00     0.175 A 
HETATM   11  N2  UNL     1      23.646   6.868  50.023  1.00  0.00    -0.134 NA
HETATM   12  N1  UNL     1      23.951   7.997  50.561  1.00  0.00    -0.175 NA
HETATM   13  C5  UNL     1      25.342   8.151  50.452  1.00  0.00     0.209 A 
HETATM   14  C4  UNL     1      26.005   9.325  49.969  1.00  0.00     0.033 C 
HETATM   15  C20 UNL     1      25.861   6.992  49.748  1.00  0.00     0.088 A 
HETATM   16  C3  UNL     1      27.235   8.800  49.740  1.00  0.00     0.014 C 
HETATM   17  N4  UNL     1      27.263   7.339  49.608  1.00  0.00    -0.358 N 
HETATM   18  H16 UNL     1      27.944   6.568  49.455  1.00  0.00     0.165 HD
BRANCH  16  19
HETATM   19  C2  UNL     1      28.557   9.339  49.257  1.00  0.00     0.126 C 
BRANCH  19  20
HETATM   20  C1  UNL     1      29.395   8.269  48.654  1.00  0.00     0.237 C 
HETATM   21  O1  UNL     1      30.372   7.598  48.929  1.00  0.00    -0.306 OA
ENDBRANCH  19  20
ENDBRANCH  16  19
ENDBRANCH   8  10
ENDBRANCH   1   8
BRANCH   4  22
HETATM   22  O2  UNL     1      24.788   0.660  52.384  1.00  0.00    -0.345 OA
BRANCH  22  23
HETATM   23  C11 UNL     1      25.293   0.205  53.575  1.00  0.00     0.214 C 
BRANCH  23  24
HETATM   24  C12 UNL     1      26.704  -0.182  53.625  1.00  0.00    -0.031 A 
HETATM   25  C13 UNL     1      27.493   0.700  54.377  1.00  0.00     0.009 A 
HETATM   26  C14 UNL     1      28.850   0.517  54.565  1.00  0.00     0.004 A 
HETATM   27  C15 UNL     1      29.499  -0.557  54.012  1.00  0.00     0.042 A 
HETATM   28  C16 UNL     1      28.720  -1.417  53.277  1.00  0.00     0.117 A 
HETATM   29  F1  UNL     1      29.317  -2.497  52.709  1.00  0.00    -0.206 F 
HETATM   30  C17 UNL     1      27.371  -1.240  53.087  1.00  0.00     0.051 A 
ENDBRANCH  23  24
ENDBRANCH  22  23
ENDBRANCH   4  22
TORSDOF 7
ENDMDL
MODEL 5
REMARK VINA RESULT:      -8.0      1.655      2.176
REMARK  7 active torsions:
REMARK  status: ('A' for Active; 'I' for Inactive)
REMARK    1  A    between atoms: C1_2  and  C2_3 
REMARK    2  A    between atoms: C2_3  and  C3_4 
REMARK    3  A    between atoms: C6_9  and  N3_10 
REMARK    4  A    between atoms: N3_10  and  C7_11 
REMARK    5  A    between atoms: C10_14  and  O2_15 
REMARK    6  A    between atoms: O2_15  and  C11_16 
REMARK    7  A    between atoms: C11_16  and  C12_17 
ROOT
HETATM    1  C7  UNL     1      25.682   6.520  48.743  1.00  0.00     0.035 A 
HETATM    2  C8  UNL     1      24.549   6.890  49.428  1.00  0.00     0.032 A 
HETATM    3  C9  UNL     1      23.975   6.020  50.323  1.00  0.00     0.041 A 
HETATM    4  C10 UNL     1      24.490   4.769  50.575  1.00  0.00     0.091 A 
HETATM    5  C18 UNL     1      25.651   4.380  49.876  1.00  0.00     0.069 A 
HETATM    6 CL1  UNL     1      26.517   2.850  50.000  1.00  0.00    -0.081 Cl
HETATM    7  C19 UNL     1      26.244   5.264  48.959  1.00  0.00     0.056 A 
ENDROOT
BRANCH   1   8
HETATM    8  N3  UNL     1      26.357   7.390  47.811  1.00  0.00    -0.338 N 
HETATM    9  H6  UNL     1      26.351   7.281  46.780  1.00  0.00     0.167 HD
BRANCH   8  10
HETATM   10  C6  UNL     1      27.055   8.451  48.490  1.00  0.00     0.175 A 
HETATM   11  N2  UNL     1      26.669   9.764  48.803  1.00  0.00    -0.134 NA
HETATM   12  N1  UNL     1      27.596  10.389  49.441  1.00  0.00    -0.175 NA
HETATM   13  C5  UNL     1      28.666   9.495  49.606  1.00  0.00     0.209 A 
HETATM   14  C4  UNL     1      30.037   9.787  49.312  1.00  0.00     0.033 C 
HETATM   15  C20 UNL     1      28.302   8.246  48.960  1.00  0.00     0.088 A 
HETATM   16  C3  UNL     1      30.531   8.523  49.297  1.00  0.00     0.014 C 
HETATM   17  N4  UNL     1      29.522   7.474  49.105  1.00  0.00    -0.358 N 
HETATM   18  H16 UNL     1      29.455   6.438  49.049  1.00  0.00     0.165 HD
BRANCH  16  19
HETATM   19  C2  UNL     1      31.892   7.907  49.100  1.00  0.00     0.126 C 
BRANCH  19  20
HETATM   20  C1  UNL     1      31.830   6.421  49.147  1.00  0.00     0.237 C 
HETATM   21  O1  UNL     1      31.599   5.533  49.946  1.00  0.00    -0.306 OA
ENDBRANCH  19  20
ENDBRANCH  16  19
ENDBRANCH   8  10
ENDBRANCH   1   8
BRANCH   4  22
HETATM   22  O2  UNL     1      24.159   3.733  51.373  1.00  0.00    -0.345 OA
BRANCH  22  23
HETATM   23  C11 UNL     1      24.208   3.522  52.727  1.00  0.00     0.214 C 
BRANCH  23  24
HETATM   24  C12 UNL     1      24.813   2.280  53.212  1.00  0.00    -0.031 A 
HETATM   25  C13 UNL     1      24.051   1.141  52.917  1.00  0.00     0.009 A 
HETATM   26  C14 UNL     1      24.442  -0.136  53.272  1.00  0.00     0.004 A 
HETATM   27  C15 UNL     1      25.619  -0.350  53.943  1.00  0.00     0.042 A 
HETATM   28  C16 UNL     1      26.362   0.770  54.228  1.00  0.00     0.117 A 
HETATM   29  F1  UNL     1      27.536   0.609  54.891  1.00  0.00    -0.206 F 
HETATM   30  C17 UNL     1      25.977   2.041  53.877  1.00  0.00     0.051 A 
ENDBRANCH  23  24
ENDBRANCH  22  23
ENDBRANCH   4  22
TORSDOF 7
ENDMDL
MODEL 6
REMARK VINA RESULT:      -7.7      3.527      4.319
REMARK  7 active torsions:
REMARK  status: ('A' for Active; 'I' for Inactive)
REMARK    1  A    between atoms: C1_2  and  C2_3 
REMARK    2  A    between atoms: C2_3  and  C3_4 
REMARK    3  A    between atoms: C6_9  and  N3_10 
REMARK    4  A    between atoms: N3_10  and  C7_11 
REMARK    5  A    between atoms: C10_14  and  O2_15 
REMARK    6  A    between atoms: O2_15  and  C11_16 
REMARK    7  A    between atoms: C11_16  and  C12_17 
ROOT
HETATM    1  C7  UNL     1      23.416   6.049  51.005  1.00  0.00     0.035 A 
HETATM    2  C8  UNL     1      22.786   5.500  49.914  1.00  0.00     0.032 A 
HETATM    3  C9  UNL     1      22.655   4.136  49.814  1.00  0.00     0.041 A 
HETATM    4  C10 UNL     1      23.132   3.274  50.773  1.00  0.00     0.091 A 
HETATM    5  C18 UNL     1      23.781   3.827  51.896  1.00  0.00     0.069 A 
HETATM    6 CL1  UNL     1      24.484   2.967  53.263  1.00  0.00    -0.081 Cl
HETATM    7  C19 UNL     1      23.919   5.221  52.006  1.00  0.00     0.056 A 
ENDROOT
BRANCH   1   8
HETATM    8  N3  UNL     1      23.564   7.472  51.195  1.00  0.00    -0.338 N 
HETATM    9  H6  UNL     1      23.310   7.990  52.056  1.00  0.00     0.167 HD
BRANCH   8  10
HETATM   10  C6  UNL     1      24.118   8.105  50.026  1.00  0.00     0.175 A 
HETATM   11  N2  UNL     1      23.570   9.030  49.123  1.00  0.00    -0.134 NA
HETATM   12  N1  UNL     1      24.418   9.360  48.213  1.00  0.00    -0.175 NA
HETATM   13  C5  UNL     1      25.609   8.667  48.479  1.00  0.00     0.209 A 
HETATM   14  C4  UNL     1      26.360   7.918  47.517  1.00  0.00     0.033 C 
HETATM   15  C20 UNL     1      25.386   7.838  49.651  1.00  0.00     0.088 A 
HETATM   16  C3  UNL     1      27.144   7.203  48.362  1.00  0.00     0.014 C 
HETATM   17  N4  UNL     1      26.637   7.108  49.736  1.00  0.00    -0.358 N 
HETATM   18  H16 UNL     1      26.903   6.701  50.655  1.00  0.00     0.165 HD
BRANCH  16  19
HETATM   19  C2  UNL     1      28.249   6.191  48.200  1.00  0.00     0.126 C 
BRANCH  19  20
HETATM   20  C1  UNL     1      27.835   4.847  48.686  1.00  0.00     0.237 C 
HETATM   21  O1  UNL     1      26.822   4.258  49.014  1.00  0.00    -0.306 OA
ENDBRANCH  19  20
ENDBRANCH  16  19
ENDBRANCH   8  10
ENDBRANCH   1   8
BRANCH   4  22
HETATM   22  O2  UNL     1      23.148   1.935  50.945  1.00  0.00    -0.345 OA
BRANCH  22  23
HETATM   23  C11 UNL     1      22.172   0.983  51.089  1.00  0.00     0.214 C 
BRANCH  23  24
HETATM   24  C12 UNL     1      22.113   0.239  52.348  1.00  0.00    -0.031 A 
HETATM   25  C13 UNL     1      20.808  -0.110  52.724  1.00  0.00     0.009 A 
HETATM   26  C14 UNL     1      20.524  -0.826  53.872  1.00  0.00     0.004 A 
HETATM   27  C15 UNL     1      21.528  -1.235  54.712  1.00  0.00     0.042 A 
HETATM   28  C16 UNL     1      22.804  -0.891  54.338  1.00  0.00     0.117 A 
HETATM   29  F1  UNL     1      23.832  -1.274  55.138  1.00  0.00    -0.206 F 
HETATM   30  C17 UNL     1      23.091  -0.180  53.198  1.00  0.00     0.051 A 
ENDBRANCH  23  24
ENDBRANCH  22  23
ENDBRANCH   4  22
TORSDOF 7
ENDMDL
MODEL 7
REMARK VINA RESULT:      -7.7      2.021      2.722
REMARK  7 active torsions:
REMARK  status: ('A' for Active; 'I' for Inactive)
REMARK    1  A    between atoms: C1_2  and  C2_3 
REMARK    2  A    between atoms: C2_3  and  C3_4 
REMARK    3  A    between atoms: C6_9  and  N3_10 
REMARK    4  A    between atoms: N3_10  and  C7_11 
REMARK    5  A    between atoms: C10_14  and  O2_15 
REMARK    6  A    between atoms: O2_15  and  C11_16 
REMARK    7  A    between atoms: C11_16  and  C12_17 
ROOT
HETATM    1  C7  UNL     1      26.440   5.253  49.102  1.00  0.00     0.035 A 
HETATM    2  C8  UNL     1      26.850   3.945  49.199  1.00  0.00     0.032 A 
HETATM    3  C9  UNL     1      26.218   3.092  50.071  1.00  0.00     0.041 A 
HETATM    4  C10 UNL     1      25.171   3.490  50.868  1.00  0.00     0.091 A 
HETATM    5  C18 UNL     1      24.743   4.830  50.777  1.00  0.00     0.069 A 
HETATM    6 CL1  UNL     1      23.438   5.605  51.673  1.00  0.00    -0.081 Cl
HETATM    7  C19 UNL     1      25.384   5.709  49.888  1.00  0.00     0.056 A 
ENDROOT
BRANCH   1   8
HETATM    8  N3  UNL     1      27.034   6.199  48.189  1.00  0.00    -0.338 N 
HETATM    9  H6  UNL     1      26.514   6.773  47.500  1.00  0.00     0.167 HD
BRANCH   8  10
HETATM   10  C6  UNL     1      28.465   6.256  48.347  1.00  0.00     0.175 A 
HETATM   11  N2  UNL     1      29.415   5.248  48.575  1.00  0.00    -0.134 NA
HETATM   12  N1  UNL     1      30.607   5.729  48.638  1.00  0.00    -0.175 NA
HETATM   13  C5  UNL     1      30.511   7.114  48.432  1.00  0.00     0.209 A 
HETATM   14  C4  UNL     1      31.127   8.114  49.253  1.00  0.00     0.033 C 
HETATM   15  C20 UNL     1      29.105   7.440  48.267  1.00  0.00     0.088 A 
HETATM   16  C3  UNL     1      30.425   9.198  48.836  1.00  0.00     0.014 C 
HETATM   17  N4  UNL     1      29.149   8.888  48.182  1.00  0.00    -0.358 N 
HETATM   18  H16 UNL     1      28.351   9.374  47.725  1.00  0.00     0.165 HD
BRANCH  16  19
HETATM   19  C2  UNL     1      30.444  10.672  49.151  1.00  0.00     0.126 C 
BRANCH  19  20
HETATM   20  C1  UNL     1      29.153  11.322  48.798  1.00  0.00     0.237 C 
HETATM   21  O1  UNL     1      28.399  12.171  49.235  1.00  0.00    -0.306 OA
ENDBRANCH  19  20
ENDBRANCH  16  19
ENDBRANCH   8  10
ENDBRANCH   1   8
BRANCH   4  22
HETATM   22  O2  UNL     1      24.378   2.898  51.786  1.00  0.00    -0.345 OA
BRANCH  22  23
HETATM   23  C11 UNL     1      24.608   2.300  52.999  1.00  0.00     0.214 C 
BRANCH  23  24
HETATM   24  C12 UNL     1      25.789   1.446  53.135  1.00  0.00    -0.031 A 
HETATM   25  C13 UNL     1      25.619   0.173  52.573  1.00  0.00     0.009 A 
HETATM   26  C14 UNL     1      26.612  -0.789  52.579  1.00  0.00     0.004 A 
HETATM   27  C15 UNL     1      27.834  -0.534  53.148  1.00  0.00     0.042 A 
HETATM   28  C16 UNL     1      27.994   0.715  53.697  1.00  0.00     0.117 A 
HETATM   29  F1  UNL     1      29.187   1.014  54.273  1.00  0.00    -0.206 F 
HETATM   30  C17 UNL     1      27.010   1.674  53.693  1.00  0.00     0.051 A 
ENDBRANCH  23  24
ENDBRANCH  22  23
ENDBRANCH   4  22
TORSDOF 7
ENDMDL
MODEL 8
REMARK VINA RESULT:      -7.7      1.594      2.025
REMARK  7 active torsions:
REMARK  status: ('A' for Active; 'I' for Inactive)
REMARK    1  A    between atoms: C1_2  and  C2_3 
REMARK    2  A    between atoms: C2_3  and  C3_4 
REMARK    3  A    between atoms: C6_9  and  N3_10 
REMARK    4  A    between atoms: N3_10  and  C7_11 
REMARK    5  A    between atoms: C10_14  and  O2_15 
REMARK    6  A    between atoms: O2_15  and  C11_16 
REMARK    7  A    between atoms: C11_16  and  C12_17 
ROOT
HETATM    1  C7  UNL     1      26.915   6.017  48.646  1.00  0.00     0.035 A 
HETATM    2  C8  UNL     1      27.467   4.759  48.636  1.00  0.00     0.032 A 
HETATM    3  C9  UNL     1      26.943   3.774  49.438  1.00  0.00     0.041 A 
HETATM    4  C10 UNL     1      25.867   3.990  50.267  1.00  0.00     0.091 A 
HETATM    5  C18 UNL     1      25.293   5.277  50.286  1.00  0.00     0.069 A 
HETATM    6 CL1  UNL     1      23.922   5.829  51.244  1.00  0.00    -0.081 Cl
HETATM    7  C19 UNL     1      25.825   6.290  49.469  1.00  0.00     0.056 A 
ENDROOT
BRANCH   1   8
HETATM    8  N3  UNL     1      27.391   7.093  47.811  1.00  0.00    -0.338 N 
HETATM    9  H6  UNL     1      26.982   7.368  46.899  1.00  0.00     0.167 HD
BRANCH   8  10
HETATM   10  C6  UNL     1      28.525   7.756  48.401  1.00  0.00     0.175 A 
HETATM   11  N2  UNL     1      28.618   8.929  49.168  1.00  0.00    -0.134 NA
HETATM   12  N1  UNL     1      29.833   9.168  49.518  1.00  0.00    -0.175 NA
HETATM   13  C5  UNL     1      30.629   8.132  49.005  1.00  0.00     0.209 A 
HETATM   14  C4  UNL     1      31.846   8.313  48.272  1.00  0.00     0.033 C 
HETATM   15  C20 UNL     1      29.761   7.235  48.262  1.00  0.00     0.088 A 
HETATM   16  C3  UNL     1      31.964   7.071  47.737  1.00  0.00     0.014 C 
HETATM   17  N4  UNL     1      30.717   6.298  47.702  1.00  0.00    -0.358 N 
HETATM   18  H16 UNL     1      30.371   5.361  47.414  1.00  0.00     0.165 HD
BRANCH  16  19
HETATM   19  C2  UNL     1      32.972   6.374  46.859  1.00  0.00     0.126 C 
BRANCH  19  20
HETATM   20  C1  UNL     1      32.648   4.932  46.697  1.00  0.00     0.237 C 
HETATM   21  O1  UNL     1      32.459   4.124  45.806  1.00  0.00    -0.306 OA
ENDBRANCH  19  20
ENDBRANCH  16  19
ENDBRANCH   8  10
ENDBRANCH   1   8
BRANCH   4  22
HETATM   22  O2  UNL     1      25.155   3.242  51.136  1.00  0.00    -0.345 OA
BRANCH  22  23
HETATM   23  C11 UNL     1      25.217   1.933  51.539  1.00  0.00     0.214 C 
BRANCH  23  24
HETATM   24  C12 UNL     1      26.398   1.493  52.283  1.00  0.00    -0.031 A 
HETATM   25  C13 UNL     1      26.580   0.103  52.262  1.00  0.00     0.009 A 
HETATM   26  C14 UNL     1      27.639  -0.525  52.891  1.00  0.00     0.004 A 
HETATM   27  C15 UNL     1      28.578   0.200  53.578  1.00  0.00     0.042 A 
HETATM   28  C16 UNL     1      28.395   1.561  53.595  1.00  0.00     0.117 A 
HETATM   29  F1  UNL     1      29.299   2.322  54.263  1.00  0.00    -0.206 F 
HETATM   30  C17 UNL     1      27.344   2.190  52.972  1.00  0.00     0.051 A 
ENDBRANCH  23  24
ENDBRANCH  22  23
ENDBRANCH   4  22
TORSDOF 7
ENDMDL
MODEL 9
REMARK VINA RESULT:      -7.6      3.839      8.172
REMARK  7 active torsions:
REMARK  status: ('A' for Active; 'I' for Inactive)
REMARK    1  A    between atoms: C1_2  and  C2_3 
REMARK    2  A    between atoms: C2_3  and  C3_4 
REMARK    3  A    between atoms: C6_9  and  N3_10 
REMARK    4  A    between atoms: N3_10  and  C7_11 
REMARK    5  A    between atoms: C10_14  and  O2_15 
REMARK    6  A    between atoms: O2_15  and  C11_16 
REMARK    7  A    between atoms: C11_16  and  C12_17 
ROOT
HETATM    1  C7  UNL     1      25.842   4.652  49.253  1.00  0.00     0.035 A 
HETATM    2  C8  UNL     1      25.294   5.907  49.375  1.00  0.00     0.032 A 
HETATM    3  C9  UNL     1      26.056   7.016  49.097  1.00  0.00     0.041 A 
HETATM    4  C10 UNL     1      27.368   6.932  48.694  1.00  0.00     0.091 A 
HETATM    5  C18 UNL     1      27.940   5.649  48.567  1.00  0.00     0.069 A 
HETATM    6 CL1  UNL     1      29.583   5.249  48.074  1.00  0.00    -0.081 Cl
HETATM    7  C19 UNL     1      27.168   4.510  48.850  1.00  0.00     0.056 A 
ENDROOT
BRANCH   1   8
HETATM    8  N3  UNL     1      25.097   3.441  49.498  1.00  0.00    -0.338 N 
HETATM    9  H6  UNL     1      24.740   2.800  48.766  1.00  0.00     0.167 HD
BRANCH   8  10
HETATM   10  C6  UNL     1      24.901   3.218  50.907  1.00  0.00     0.175 A 
HETATM   11  N2  UNL     1      24.034   3.822  51.831  1.00  0.00    -0.134 NA
HETATM   12  N1  UNL     1      24.165   3.312  53.005  1.00  0.00    -0.175 NA
HETATM   13  C5  UNL     1      25.139   2.304  52.917  1.00  0.00     0.209 A 
HETATM   14  C4  UNL     1      26.252   2.154  53.806  1.00  0.00     0.033 C 
HETATM   15  C20 UNL     1      25.621   2.275  51.548  1.00  0.00     0.088 A 
HETATM   16  C3  UNL     1      27.010   1.309  53.063  1.00  0.00     0.014 C 
HETATM   17  N4  UNL     1      26.682   1.288  51.632  1.00  0.00    -0.358 N 
HETATM   18  H16 UNL     1      26.976   0.811  50.757  1.00  0.00     0.165 HD
BRANCH  16  19
HETATM   19  C2  UNL     1      28.333   0.610  53.250  1.00  0.00     0.126 C 
BRANCH  19  20
HETATM   20  C1  UNL     1      29.138   1.247  54.326  1.00  0.00     0.237 C 
HETATM   21  O1  UNL     1      29.410   2.359  54.739  1.00  0.00    -0.306 OA
ENDBRANCH  19  20
ENDBRANCH  16  19
ENDBRANCH   8  10
ENDBRANCH   1   8
BRANCH   4  22
HETATM   22  O2  UNL     1      28.332   7.814  48.358  1.00  0.00    -0.345 OA
BRANCH  22  23
HETATM   23  C11 UNL     1      29.288   8.495  49.068  1.00  0.00     0.214 C 
BRANCH  23  24
HETATM   24  C12 UNL     1      29.280   9.957  49.013  1.00  0.00    -0.031 A 
HETATM   25  C13 UNL     1      30.561  10.521  49.092  1.00  0.00     0.009 A 
HETATM   26  C14 UNL     1      30.784  11.885  49.047  1.00  0.00     0.004 A 
HETATM   27  C15 UNL     1      29.740  12.765  48.920  1.00  0.00     0.042 A 
HETATM   28  C16 UNL     1      28.488  12.206  48.844  1.00  0.00     0.117 A 
HETATM   29  F1  UNL     1      27.421  13.037  48.718  1.00  0.00    -0.206 F 
HETATM   30  C17 UNL     1      28.261  10.851  48.888  1.00  0.00     0.051 A 
ENDBRANCH  23  24
ENDBRANCH  22  23
ENDBRANCH   4  22
TORSDOF 7
ENDMDL
