MODEL 1
REMARK VINA RESULT:      -8.1      0.000      0.000
REMARK  4 active torsions:
REMARK  status: ('A' for Active; 'I' for Inactive)
REMARK    1  A    between atoms: N1_2  and  C3_4 
REMARK    2  A    between atoms: C3_4  and  C4_5 
REMARK    3  A    between atoms: C5_6  and  C6_7 
REMARK       I    between atoms: C6_7  and  N2_9 
REMARK    4  A    between atoms: N2_9  and  C7_10 
ROOT
HETATM    1  C7  UNL     1      25.621   3.620  49.686  1.00  0.00     0.018 C 
HETATM    2  C8  UNL     1      24.321   3.977  49.647  1.00  0.00     0.021 C 
HETATM    3  C9  UNL     1      23.166   3.303  50.196  1.00  0.00     0.164 A 
HETATM    4  C10 UNL     1      22.646   2.252  50.816  1.00  0.00     0.029 A 
HETATM    5  C11 UNL     1      22.292   0.926  51.537  1.00  0.00     0.053 C 
HETATM    6  C12 UNL     1      23.066   0.925  52.788  1.00  0.00     0.132 C 
HETATM    7  C13 UNL     1      23.343  -0.254  53.543  1.00  0.00     0.012 C 
HETATM    8 BR1  UNL     1      22.006  -1.580  53.684  1.00  0.00    -0.053 Br
HETATM    9  C14 UNL     1      24.486  -0.503  54.166  1.00  0.00     0.018 C 
HETATM   10  C15 UNL     1      25.626   0.406  54.139  1.00  0.00     0.018 C 
HETATM   11  C16 UNL     1      25.544   1.536  53.426  1.00  0.00     0.093 C 
HETATM   12  N3  UNL     1      24.324   1.718  52.723  1.00  0.00    -0.335 N 
HETATM   13  C17 UNL     1      24.817   2.899  51.943  1.00  0.00     0.113 C 
HETATM   14  N4  UNL     1      24.236   3.940  52.570  1.00  0.00    -0.235 NA
HETATM   15  C18 UNL     1      22.765   4.173  52.284  1.00  0.00     0.181 C 
HETATM   16  N5  UNL     1      22.034   3.603  51.203  1.00  0.00    -0.260 NA
HETATM   17  C19 UNL     1      25.761   2.595  50.784  1.00  0.00     0.135 C 
ENDROOT
BRANCH   1  18
HETATM   18  N2  UNL     1      26.892   4.064  49.230  1.00  0.00    -0.320 N 
HETATM   19  C6  UNL     1      27.207   5.313  48.640  1.00  0.00     0.300 C 
HETATM   20  O1  UNL     1      26.489   6.294  48.382  1.00  0.00    -0.258 OA
HETATM   21  H9  UNL     1      27.588   3.307  49.398  1.00  0.00     0.169 HD
BRANCH  19  22
HETATM   22  C5  UNL     1      28.591   5.461  48.287  1.00  0.00    -0.004 C 
HETATM   23  C4  UNL     1      29.766   5.588  47.965  1.00  0.00    -0.066 C 
BRANCH  23  24
HETATM   24  C3  UNL     1      31.171   5.755  47.583  1.00  0.00     0.365 C 
BRANCH  24  25
HETATM   25  N1  UNL     1      31.976   5.189  48.636  1.00  0.00     0.090 N 
HETATM   26  C1  UNL     1      33.324   5.055  48.143  1.00  0.00     0.310 C 
HETATM   27  C2  UNL     1      31.899   5.995  49.825  1.00  0.00     0.310 C 
ENDBRANCH  24  25
ENDBRANCH  23  24
ENDBRANCH  19  22
ENDBRANCH   1  18
TORSDOF 4
ENDMDL
MODEL 2
REMARK VINA RESULT:      -7.5      4.325      9.463
REMARK  4 active torsions:
REMARK  status: ('A' for Active; 'I' for Inactive)
REMARK    1  A    between atoms: N1_2  and  C3_4 
REMARK    2  A    between atoms: C3_4  and  C4_5 
REMARK    3  A    between atoms: C5_6  and  C6_7 
REMARK       I    between atoms: C6_7  and  N2_9 
REMARK    4  A    between atoms: N2_9  and  C7_10 
ROOT
HETATM    1  C7  UNL     1      22.704   0.456  52.137  1.00  0.00     0.018 C 
HETATM    2  C8  UNL     1      23.891   0.249  52.741  1.00  0.00     0.021 C 
HETATM    3  C9  UNL     1      25.188   0.810  52.437  1.00  0.00     0.164 A 
HETATM    4  C10 UNL     1      25.951   1.561  51.652  1.00  0.00     0.029 A 
HETATM    5  C11 UNL     1      26.616   2.471  50.589  1.00  0.00     0.053 C 
HETATM    6  C12 UNL     1      25.915   3.762  50.663  1.00  0.00     0.132 C 
HETATM    7  C13 UNL     1      25.935   4.731  49.616  1.00  0.00     0.012 C 
HETATM    8 BR1  UNL     1      27.534   4.991  48.647  1.00  0.00    -0.053 Br
HETATM    9  C14 UNL     1      24.901   5.480  49.257  1.00  0.00     0.018 C 
HETATM   10  C15 UNL     1      23.590   5.387  49.888  1.00  0.00     0.018 C 
HETATM   11  C16 UNL     1      23.393   4.483  50.856  1.00  0.00     0.093 C 
HETATM   12  N3  UNL     1      24.512   3.662  51.152  1.00  0.00    -0.335 N 
HETATM   13  C17 UNL     1      23.741   2.731  52.036  1.00  0.00     0.113 C 
HETATM   14  N4  UNL     1      24.106   3.116  53.274  1.00  0.00    -0.235 NA
HETATM   15  C18 UNL     1      25.476   2.675  53.749  1.00  0.00     0.181 C 
HETATM   16  N5  UNL     1      26.268   1.654  53.150  1.00  0.00    -0.260 NA
HETATM   17  C19 UNL     1      22.838   1.724  51.330  1.00  0.00     0.135 C 
ENDROOT
BRANCH   1  18
HETATM   18  N2  UNL     1      21.348   0.035  52.214  1.00  0.00    -0.320 N 
HETATM   19  C6  UNL     1      20.555  -0.105  53.379  1.00  0.00     0.300 C 
HETATM   20  O1  UNL     1      20.826   0.094  54.575  1.00  0.00    -0.258 OA
HETATM   21  H9  UNL     1      21.007  -0.166  51.250  1.00  0.00     0.169 HD
BRANCH  19  22
HETATM   22  C5  UNL     1      19.214  -0.551  53.124  1.00  0.00    -0.004 C 
HETATM   23  C4  UNL     1      18.063  -0.919  52.922  1.00  0.00    -0.066 C 
BRANCH  23  24
HETATM   24  C3  UNL     1      16.684  -1.349  52.670  1.00  0.00     0.365 C 
BRANCH  24  25
HETATM   25  N1  UNL     1      16.005  -0.261  52.013  1.00  0.00     0.090 N 
HETATM   26  C1  UNL     1      15.496  -0.750  50.756  1.00  0.00     0.310 C 
HETATM   27  C2  UNL     1      14.971   0.277  52.857  1.00  0.00     0.310 C 
ENDBRANCH  24  25
ENDBRANCH  23  24
ENDBRANCH  19  22
ENDBRANCH   1  18
TORSDOF 4
ENDMDL
MODEL 3
REMARK VINA RESULT:      -7.5      1.639      2.375
REMARK  4 active torsions:
REMARK  status: ('A' for Active; 'I' for Inactive)
REMARK    1  A    between atoms: N1_2  and  C3_4 
REMARK    2  A    between atoms: C3_4  and  C4_5 
REMARK    3  A    between atoms: C5_6  and  C6_7 
REMARK       I    between atoms: C6_7  and  N2_9 
REMARK    4  A    between atoms: N2_9  and  C7_10 
ROOT
HETATM    1  C7  UNL     1      26.479   5.082  48.983  1.00  0.00     0.018 C 
HETATM    2  C8  UNL     1      25.364   5.761  48.648  1.00  0.00     0.021 C 
HETATM    3  C9  UNL     1      23.980   5.349  48.718  1.00  0.00     0.164 A 
HETATM    4  C10 UNL     1      23.082   4.403  48.966  1.00  0.00     0.029 A 
HETATM    5  C11 UNL     1      22.249   3.140  49.304  1.00  0.00     0.053 C 
HETATM    6  C12 UNL     1      22.570   2.803  50.699  1.00  0.00     0.132 C 
HETATM    7  C13 UNL     1      22.341   1.517  51.272  1.00  0.00     0.012 C 
HETATM    8 BR1  UNL     1      20.782   0.570  50.789  1.00  0.00    -0.053 Br
HETATM    9  C14 UNL     1      23.150   0.917  52.134  1.00  0.00     0.018 C 
HETATM   10  C15 UNL     1      24.405   1.501  52.594  1.00  0.00     0.018 C 
HETATM   11  C16 UNL     1      24.791   2.687  52.105  1.00  0.00     0.093 C 
HETATM   12  N3  UNL     1      23.922   3.251  51.134  1.00  0.00    -0.335 N 
HETATM   13  C17 UNL     1      24.872   4.346  50.754  1.00  0.00     0.113 C 
HETATM   14  N4  UNL     1      24.355   5.425  51.372  1.00  0.00    -0.235 NA
HETATM   15  C18 UNL     1      23.133   6.056  50.734  1.00  0.00     0.181 C 
HETATM   16  N5  UNL     1      22.678   5.815  49.406  1.00  0.00    -0.260 NA
HETATM   17  C19 UNL     1      26.047   3.940  49.869  1.00  0.00     0.135 C 
ENDROOT
BRANCH   1  18
HETATM   18  N2  UNL     1      27.892   5.234  48.990  1.00  0.00    -0.320 N 
HETATM   19  C6  UNL     1      28.667   6.121  48.202  1.00  0.00     0.300 C 
HETATM   20  O1  UNL     1      28.328   6.953  47.345  1.00  0.00    -0.258 OA
HETATM   21  H9  UNL     1      28.294   4.571  49.686  1.00  0.00     0.169 HD
BRANCH  19  22
HETATM   22  C5  UNL     1      30.080   6.037  48.445  1.00  0.00    -0.004 C 
HETATM   23  C4  UNL     1      31.281   5.964  48.672  1.00  0.00    -0.066 C 
BRANCH  23  24
HETATM   24  C3  UNL     1      32.719   5.862  48.942  1.00  0.00     0.365 C 
BRANCH  24  25
HETATM   25  N1  UNL     1      33.323   5.188  47.820  1.00  0.00     0.090 N 
HETATM   26  C1  UNL     1      34.750   5.371  47.908  1.00  0.00     0.310 C 
HETATM   27  C2  UNL     1      32.942   3.801  47.793  1.00  0.00     0.310 C 
ENDBRANCH  24  25
ENDBRANCH  23  24
ENDBRANCH  19  22
ENDBRANCH   1  18
TORSDOF 4
ENDMDL
MODEL 4
REMARK VINA RESULT:      -7.3      4.864      6.049
REMARK  4 active torsions:
REMARK  status: ('A' for Active; 'I' for Inactive)
REMARK    1  A    between atoms: N1_2  and  C3_4 
REMARK    2  A    between atoms: C3_4  and  C4_5 
REMARK    3  A    between atoms: C5_6  and  C6_7 
REMARK       I    between atoms: C6_7  and  N2_9 
REMARK    4  A    between atoms: N2_9  and  C7_10 
ROOT
HETATM    1  C7  UNL     1      22.865   1.637  51.425  1.00  0.00     0.018 C 
HETATM    2  C8  UNL     1      22.269   2.633  50.739  1.00  0.00     0.021 C 
HETATM    3  C9  UNL     1      20.947   2.686  50.158  1.00  0.00     0.164 A 
HETATM    4  C10 UNL     1      19.801   2.081  49.871  1.00  0.00     0.029 A 
HETATM    5  C11 UNL     1      18.577   1.157  49.651  1.00  0.00     0.053 C 
HETATM    6  C12 UNL     1      18.127   0.752  50.992  1.00  0.00     0.132 C 
HETATM    7  C13 UNL     1      17.302  -0.385  51.238  1.00  0.00     0.012 C 
HETATM    8 BR1  UNL     1      15.922  -0.789  50.015  1.00  0.00    -0.053 Br
HETATM    9  C14 UNL     1      17.426  -1.202  52.275  1.00  0.00     0.018 C 
HETATM   10  C15 UNL     1      18.453  -1.044  53.298  1.00  0.00     0.018 C 
HETATM   11  C16 UNL     1      19.344  -0.051  53.182  1.00  0.00     0.093 C 
HETATM   12  N3  UNL     1      19.207   0.750  52.018  1.00  0.00    -0.335 N 
HETATM   13  C17 UNL     1      20.500   1.477  52.226  1.00  0.00     0.113 C 
HETATM   14  N4  UNL     1      20.102   2.673  52.702  1.00  0.00    -0.235 NA
HETATM   15  C18 UNL     1      19.537   3.654  51.693  1.00  0.00     0.181 C 
HETATM   16  N5  UNL     1      19.675   3.554  50.279  1.00  0.00    -0.260 NA
HETATM   17  C19 UNL     1      21.770   0.705  51.883  1.00  0.00     0.135 C 
ENDROOT
BRANCH   1  18
HETATM   18  N2  UNL     1      24.102   1.329  52.054  1.00  0.00    -0.320 N 
HETATM   19  C6  UNL     1      24.790   2.099  53.023  1.00  0.00     0.300 C 
HETATM   20  O1  UNL     1      24.505   3.189  53.547  1.00  0.00    -0.258 OA
HETATM   21  H9  UNL     1      24.444   0.417  51.685  1.00  0.00     0.169 HD
BRANCH  19  22
HETATM   22  C5  UNL     1      26.023   1.512  53.470  1.00  0.00    -0.004 C 
HETATM   23  C4  UNL     1      27.063   1.001  53.866  1.00  0.00    -0.066 C 
BRANCH  23  24
HETATM   24  C3  UNL     1      28.307   0.380  54.329  1.00  0.00     0.365 C 
BRANCH  24  25
HETATM   25  N1  UNL     1      28.747  -0.528  53.299  1.00  0.00     0.090 N 
HETATM   26  C1  UNL     1      29.999  -1.106  53.721  1.00  0.00     0.310 C 
HETATM   27  C2  UNL     1      27.741  -1.520  53.030  1.00  0.00     0.310 C 
ENDBRANCH  24  25
ENDBRANCH  23  24
ENDBRANCH  19  22
ENDBRANCH   1  18
TORSDOF 4
ENDMDL
MODEL 5
REMARK VINA RESULT:      -7.1      4.512     10.125
REMARK  4 active torsions:
REMARK  status: ('A' for Active; 'I' for Inactive)
REMARK    1  A    between atoms: N1_2  and  C3_4 
REMARK    2  A    between atoms: C3_4  and  C4_5 
REMARK    3  A    between atoms: C5_6  and  C6_7 
REMARK       I    between atoms: C6_7  and  N2_9 
REMARK    4  A    between atoms: N2_9  and  C7_10 
ROOT
HETATM    1  C7  UNL     1      29.129   5.690  48.354  1.00  0.00     0.018 C 
HETATM    2  C8  UNL     1      30.283   5.200  47.857  1.00  0.00     0.021 C 
HETATM    3  C9  UNL     1      31.356   5.887  47.176  1.00  0.00     0.164 A 
HETATM    4  C10 UNL     1      31.843   7.003  46.648  1.00  0.00     0.029 A 
HETATM    5  C11 UNL     1      32.174   8.416  46.104  1.00  0.00     0.053 C 
HETATM    6  C12 UNL     1      32.144   9.317  47.267  1.00  0.00     0.132 C 
HETATM    7  C13 UNL     1      32.000  10.732  47.165  1.00  0.00     0.012 C 
HETATM    8 BR1  UNL     1      32.867  11.636  45.752  1.00  0.00    -0.053 Br
HETATM    9  C14 UNL     1      31.292  11.483  47.997  1.00  0.00     0.018 C 
HETATM   10  C15 UNL     1      30.545  10.941  49.126  1.00  0.00     0.018 C 
HETATM   11  C16 UNL     1      30.535   9.617  49.327  1.00  0.00     0.093 C 
HETATM   12  N3  UNL     1      31.252   8.855  48.366  1.00  0.00    -0.335 N 
HETATM   13  C17 UNL     1      30.741   7.537  48.862  1.00  0.00     0.113 C 
HETATM   14  N4  UNL     1      31.786   7.047  49.554  1.00  0.00    -0.235 NA
HETATM   15  C18 UNL     1      32.931   6.471  48.744  1.00  0.00     0.181 C 
HETATM   16  N5  UNL     1      32.871   6.121  47.365  1.00  0.00    -0.260 NA
HETATM   17  C19 UNL     1      29.306   7.184  48.479  1.00  0.00     0.135 C 
ENDROOT
BRANCH   1  18
HETATM   18  N2  UNL     1      27.949   5.254  49.016  1.00  0.00    -0.320 N 
HETATM   19  C6  UNL     1      26.633   5.748  48.844  1.00  0.00     0.300 C 
HETATM   20  O1  UNL     1      26.192   6.646  48.106  1.00  0.00    -0.258 OA
HETATM   21  H9  UNL     1      28.202   4.488  49.675  1.00  0.00     0.169 HD
BRANCH  19  22
HETATM   22  C5  UNL     1      25.650   5.094  49.662  1.00  0.00    -0.004 C 
HETATM   23  C4  UNL     1      24.798   4.540  50.345  1.00  0.00    -0.066 C 
BRANCH  23  24
HETATM   24  C3  UNL     1      23.782   3.865  51.158  1.00  0.00     0.365 C 
BRANCH  24  25
HETATM   25  N1  UNL     1      24.386   2.675  51.704  1.00  0.00     0.090 N 
HETATM   26  C1  UNL     1      24.594   2.890  53.114  1.00  0.00     0.310 C 
HETATM   27  C2  UNL     1      23.572   1.520  51.433  1.00  0.00     0.310 C 
ENDBRANCH  24  25
ENDBRANCH  23  24
ENDBRANCH  19  22
ENDBRANCH   1  18
TORSDOF 4
ENDMDL
MODEL 6
REMARK VINA RESULT:      -7.0      4.799      9.421
REMARK  4 active torsions:
REMARK  status: ('A' for Active; 'I' for Inactive)
REMARK    1  A    between atoms: N1_2  and  C3_4 
REMARK    2  A    between atoms: C3_4  and  C4_5 
REMARK    3  A    between atoms: C5_6  and  C6_7 
REMARK       I    between atoms: C6_7  and  N2_9 
REMARK    4  A    between atoms: N2_9  and  C7_10 
ROOT
HETATM    1  C7  UNL     1      20.182   3.611  51.943  1.00  0.00     0.018 C 
HETATM    2  C8  UNL     1      21.209   4.261  51.360  1.00  0.00     0.021 C 
HETATM    3  C9  UNL     1      22.632   4.088  51.547  1.00  0.00     0.164 A 
HETATM    4  C10 UNL     1      23.635   3.501  52.187  1.00  0.00     0.029 A 
HETATM    5  C11 UNL     1      24.613   2.693  53.078  1.00  0.00     0.053 C 
HETATM    6  C12 UNL     1      24.331   1.275  52.808  1.00  0.00     0.132 C 
HETATM    7  C13 UNL     1      24.710   0.215  53.684  1.00  0.00     0.012 C 
HETATM    8 BR1  UNL     1      26.373   0.319  54.571  1.00  0.00    -0.053 Br
HETATM    9  C14 UNL     1      23.977  -0.861  53.933  1.00  0.00     0.018 C 
HETATM   10  C15 UNL     1      22.660  -1.084  53.348  1.00  0.00     0.018 C 
HETATM   11  C16 UNL     1      22.136  -0.152  52.542  1.00  0.00     0.093 C 
HETATM   12  N3  UNL     1      22.934   1.010  52.365  1.00  0.00    -0.335 N 
HETATM   13  C17 UNL     1      21.861   1.778  51.656  1.00  0.00     0.113 C 
HETATM   14  N4  UNL     1      22.243   1.713  50.366  1.00  0.00    -0.235 NA
HETATM   15  C18 UNL     1      23.383   2.621  49.946  1.00  0.00     0.181 C 
HETATM   16  N5  UNL     1      23.867   3.735  50.690  1.00  0.00    -0.260 NA
HETATM   17  C19 UNL     1      20.745   2.341  52.531  1.00  0.00     0.135 C 
ENDROOT
BRANCH   1  18
HETATM   18  N2  UNL     1      18.760   3.600  51.957  1.00  0.00    -0.320 N 
HETATM   19  C6  UNL     1      17.885   4.165  50.997  1.00  0.00     0.300 C 
HETATM   20  O1  UNL     1      18.122   4.784  49.947  1.00  0.00    -0.258 OA
HETATM   21  H9  UNL     1      18.441   3.097  52.812  1.00  0.00     0.169 HD
BRANCH  19  22
HETATM   22  C5  UNL     1      16.492   3.983  51.297  1.00  0.00    -0.004 C 
HETATM   23  C4  UNL     1      15.301   3.850  51.552  1.00  0.00    -0.066 C 
BRANCH  23  24
HETATM   24  C3  UNL     1      13.874   3.687  51.843  1.00  0.00     0.365 C 
BRANCH  24  25
HETATM   25  N1  UNL     1      13.765   3.087  53.149  1.00  0.00     0.090 N 
HETATM   26  C1  UNL     1      12.456   3.394  53.671  1.00  0.00     0.310 C 
HETATM   27  C2  UNL     1      14.016   1.672  53.083  1.00  0.00     0.310 C 
ENDBRANCH  24  25
ENDBRANCH  23  24
ENDBRANCH  19  22
ENDBRANCH   1  18
TORSDOF 4
ENDMDL
MODEL 7
REMARK VINA RESULT:      -6.7      4.877      7.312
REMARK  4 active torsions:
REMARK  status: ('A' for Active; 'I' for Inactive)
REMARK    1  A    between atoms: N1_2  and  C3_4 
REMARK    2  A    between atoms: C3_4  and  C4_5 
REMARK    3  A    between atoms: C5_6  and  C6_7 
REMARK       I    between atoms: C6_7  and  N2_9 
REMARK    4  A    between atoms: N2_9  and  C7_10 
ROOT
HETATM    1  C7  UNL     1      24.438   5.107  50.854  1.00  0.00     0.018 C 
HETATM    2  C8  UNL     1      24.061   6.397  50.950  1.00  0.00     0.021 C 
HETATM    3  C9  UNL     1      23.623   7.307  49.916  1.00  0.00     0.164 A 
HETATM    4  C10 UNL     1      23.407   7.554  48.630  1.00  0.00     0.029 A 
HETATM    5  C11 UNL     1      23.250   7.592  47.089  1.00  0.00     0.053 C 
HETATM    6  C12 UNL     1      22.299   6.522  46.751  1.00  0.00     0.132 C 
HETATM    7  C13 UNL     1      22.178   5.957  45.446  1.00  0.00     0.012 C 
HETATM    8 BR1  UNL     1      22.337   7.091  43.945  1.00  0.00    -0.053 Br
HETATM    9  C14 UNL     1      21.960   4.674  45.194  1.00  0.00     0.018 C 
HETATM   10  C15 UNL     1      21.835   3.664  46.238  1.00  0.00     0.018 C 
HETATM   11  C16 UNL     1      21.978   4.027  47.519  1.00  0.00     0.093 C 
HETATM   12  N3  UNL     1      22.279   5.399  47.727  1.00  0.00    -0.335 N 
HETATM   13  C17 UNL     1      22.577   5.230  49.186  1.00  0.00     0.113 C 
HETATM   14  N4  UNL     1      21.470   5.716  49.779  1.00  0.00    -0.235 NA
HETATM   15  C18 UNL     1      21.329   7.225  49.827  1.00  0.00     0.181 C 
HETATM   16  N5  UNL     1      22.377   8.160  49.591  1.00  0.00    -0.260 NA
HETATM   17  C19 UNL     1      23.921   4.597  49.531  1.00  0.00     0.135 C 
ENDROOT
BRANCH   1  18
HETATM   18  N2  UNL     1      24.913   4.041  51.666  1.00  0.00    -0.320 N 
HETATM   19  C6  UNL     1      24.140   3.107  52.400  1.00  0.00     0.300 C 
HETATM   20  O1  UNL     1      22.910   2.985  52.517  1.00  0.00    -0.258 OA
HETATM   21  H9  UNL     1      25.954   4.046  51.646  1.00  0.00     0.169 HD
BRANCH  19  22
HETATM   22  C5  UNL     1      24.920   2.144  53.126  1.00  0.00    -0.004 C 
HETATM   23  C4  UNL     1      25.597   1.339  53.754  1.00  0.00    -0.066 C 
BRANCH  23  24
HETATM   24  C3  UNL     1      26.396   0.375  54.515  1.00  0.00     0.365 C 
BRANCH  24  25
HETATM   25  N1  UNL     1      27.621   0.158  53.787  1.00  0.00     0.090 N 
HETATM   26  C1  UNL     1      28.701   0.105  54.740  1.00  0.00     0.310 C 
HETATM   27  C2  UNL     1      27.532  -1.032  52.983  1.00  0.00     0.310 C 
ENDBRANCH  24  25
ENDBRANCH  23  24
ENDBRANCH  19  22
ENDBRANCH   1  18
TORSDOF 4
ENDMDL
MODEL 8
REMARK VINA RESULT:      -6.6      2.968      3.935
REMARK  4 active torsions:
REMARK  status: ('A' for Active; 'I' for Inactive)
REMARK    1  A    between atoms: N1_2  and  C3_4 
REMARK    2  A    between atoms: C3_4  and  C4_5 
REMARK    3  A    between atoms: C5_6  and  C6_7 
REMARK       I    between atoms: C6_7  and  N2_9 
REMARK    4  A    between atoms: N2_9  and  C7_10 
ROOT
HETATM    1  C7  UNL     1      25.352   6.144  49.769  1.00  0.00     0.018 C 
HETATM    2  C8  UNL     1      24.676   6.440  50.897  1.00  0.00     0.021 C 
HETATM    3  C9  UNL     1      23.282   6.228  51.216  1.00  0.00     0.164 A 
HETATM    4  C10 UNL     1      22.072   5.837  50.838  1.00  0.00     0.029 A 
HETATM    5  C11 UNL     1      20.773   5.336  50.155  1.00  0.00     0.053 C 
HETATM    6  C12 UNL     1      21.039   3.949  49.745  1.00  0.00     0.132 C 
HETATM    7  C13 UNL     1      20.280   3.261  48.752  1.00  0.00     0.012 C 
HETATM    8 BR1  UNL     1      18.415   3.544  48.676  1.00  0.00    -0.053 Br
HETATM    9  C14 UNL     1      20.785   2.422  47.858  1.00  0.00     0.018 C 
HETATM   10  C15 UNL     1      22.206   2.111  47.767  1.00  0.00     0.018 C 
HETATM   11  C16 UNL     1      23.063   2.720  48.598  1.00  0.00     0.093 C 
HETATM   12  N3  UNL     1      22.477   3.659  49.486  1.00  0.00    -0.335 N 
HETATM   13  C17 UNL     1      23.790   4.199  49.965  1.00  0.00     0.113 C 
HETATM   14  N4  UNL     1      23.930   3.627  51.176  1.00  0.00    -0.235 NA
HETATM   15  C18 UNL     1      23.106   4.213  52.305  1.00  0.00     0.181 C 
HETATM   16  N5  UNL     1      22.451   5.477  52.279  1.00  0.00    -0.260 NA
HETATM   17  C19 UNL     1      24.520   5.140  49.010  1.00  0.00     0.135 C 
ENDROOT
BRANCH   1  18
HETATM   18  N2  UNL     1      26.654   6.261  49.210  1.00  0.00    -0.320 N 
HETATM   19  C6  UNL     1      27.541   5.212  48.866  1.00  0.00     0.300 C 
HETATM   20  O1  UNL     1      27.416   3.979  48.960  1.00  0.00    -0.258 OA
HETATM   21  H9  UNL     1      26.872   7.272  49.085  1.00  0.00     0.169 HD
BRANCH  19  22
HETATM   22  C5  UNL     1      28.791   5.658  48.317  1.00  0.00    -0.004 C 
HETATM   23  C4  UNL     1      29.846   6.052  47.835  1.00  0.00    -0.066 C 
BRANCH  23  24
HETATM   24  C3  UNL     1      31.110   6.533  47.271  1.00  0.00     0.365 C 
BRANCH  24  25
HETATM   25  N1  UNL     1      32.092   6.509  48.326  1.00  0.00     0.090 N 
HETATM   26  C1  UNL     1      33.383   6.280  47.727  1.00  0.00     0.310 C 
HETATM   27  C2  UNL     1      32.045   7.726  49.092  1.00  0.00     0.310 C 
ENDBRANCH  24  25
ENDBRANCH  23  24
ENDBRANCH  19  22
ENDBRANCH   1  18
TORSDOF 4
ENDMDL
MODEL 9
REMARK VINA RESULT:      -6.6      5.509     10.135
REMARK  4 active torsions:
REMARK  status: ('A' for Active; 'I' for Inactive)
REMARK    1  A    between atoms: N1_2  and  C3_4 
REMARK    2  A    between atoms: C3_4  and  C4_5 
REMARK    3  A    between atoms: C5_6  and  C6_7 
REMARK       I    between atoms: C6_7  and  N2_9 
REMARK    4  A    between atoms: N2_9  and  C7_10 
ROOT
HETATM    1  C7  UNL     1      19.235   3.365  51.403  1.00  0.00     0.018 C 
HETATM    2  C8  UNL     1      20.051   3.564  50.347  1.00  0.00     0.021 C 
HETATM    3  C9  UNL     1      21.451   3.238  50.193  1.00  0.00     0.164 A 
HETATM    4  C10 UNL     1      22.580   2.778  50.717  1.00  0.00     0.029 A 
HETATM    5  C11 UNL     1      23.754   2.216  51.557  1.00  0.00     0.053 C 
HETATM    6  C12 UNL     1      23.341   0.870  51.984  1.00  0.00     0.132 C 
HETATM    7  C13 UNL     1      23.934   0.173  53.078  1.00  0.00     0.012 C 
HETATM    8 BR1  UNL     1      25.796   0.324  53.352  1.00  0.00    -0.053 Br
HETATM    9  C14 UNL     1      23.273  -0.588  53.939  1.00  0.00     0.018 C 
HETATM   10  C15 UNL     1      21.830  -0.793  53.882  1.00  0.00     0.018 C 
HETATM   11  C16 UNL     1      21.118  -0.161  52.940  1.00  0.00     0.093 C 
HETATM   12  N3  UNL     1      21.866   0.695  52.090  1.00  0.00    -0.335 N 
HETATM   13  C17 UNL     1      20.657   1.306  51.450  1.00  0.00     0.113 C 
HETATM   14  N4  UNL     1      20.606   0.694  50.251  1.00  0.00    -0.235 NA
HETATM   15  C18 UNL     1      21.591   1.170  49.201  1.00  0.00     0.181 C 
HETATM   16  N5  UNL     1      22.333   2.384  49.255  1.00  0.00    -0.260 NA
HETATM   17  C19 UNL     1      19.902   2.337  52.283  1.00  0.00     0.135 C 
ENDROOT
BRANCH   1  18
HETATM   18  N2  UNL     1      17.894   3.599  51.808  1.00  0.00    -0.320 N 
HETATM   19  C6  UNL     1      16.772   2.760  51.599  1.00  0.00     0.300 C 
HETATM   20  O1  UNL     1      16.676   1.658  51.035  1.00  0.00    -0.258 OA
HETATM   21  H9  UNL     1      17.851   4.516  52.302  1.00  0.00     0.169 HD
BRANCH  19  22
HETATM   22  C5  UNL     1      15.544   3.279  52.134  1.00  0.00    -0.004 C 
HETATM   23  C4  UNL     1      14.500   3.710  52.608  1.00  0.00    -0.066 C 
BRANCH  23  24
HETATM   24  C3  UNL     1      13.257   4.236  53.179  1.00  0.00     0.365 C 
BRANCH  24  25
HETATM   25  N1  UNL     1      12.244   3.223  53.020  1.00  0.00     0.090 N 
HETATM   26  C1  UNL     1      12.176   2.879  51.622  1.00  0.00     0.310 C 
HETATM   27  C2  UNL     1      12.525   2.087  53.857  1.00  0.00     0.310 C 
ENDBRANCH  24  25
ENDBRANCH  23  24
ENDBRANCH  19  22
ENDBRANCH   1  18
TORSDOF 4
ENDMDL
