MODEL 1
REMARK VINA RESULT:      -8.8      0.000      0.000
REMARK  6 active torsions:
REMARK  status: ('A' for Active; 'I' for Inactive)
REMARK    1  A    between atoms: C2_2  and  C3_3 
REMARK    2  A    between atoms: C2_2  and  N1_9 
REMARK    3  A    between atoms: C12_13  and  N2_14 
REMARK    4  A    between atoms: N2_14  and  C13_15 
REMARK    5  A    between atoms: N3_16  and  C14_17 
REMARK    6  A    between atoms: C21_26  and  C22_27 
REMARK       I    between atoms: C22_27  and  N6_28 
ROOT
HETATM    1  C13 UNL     1      24.450   2.333  50.792  1.00  0.00     0.198 C 
HETATM    2  N3  UNL     1      25.280   2.388  51.745  1.00  0.00    -0.274 NA
ENDROOT
BRANCH   1   3
HETATM    3  N2  UNL     1      23.253   3.137  50.869  1.00  0.00    -0.364 N 
HETATM    4  H17 UNL     1      22.839   3.505  49.959  1.00  0.00     0.162 HD
BRANCH   3   5
HETATM    5  C12 UNL     1      22.714   3.373  52.192  1.00  0.00     0.180 C 
HETATM    6  N1  UNL     1      21.330   3.072  52.095  1.00  0.00    -0.384 N 
HETATM    7  C9  UNL     1      20.700   4.220  51.568  1.00  0.00     0.119 C 
HETATM    8  C10 UNL     1      21.656   5.387  51.694  1.00  0.00     0.023 C 
HETATM    9  C11 UNL     1      22.693   4.792  52.612  1.00  0.00     0.048 C 
BRANCH   6  10
HETATM   10  C2  UNL     1      20.910   1.808  51.745  1.00  0.00     0.110 C 
HETATM   11  C1  UNL     1      21.242   1.295  50.376  1.00  0.00     0.037 C 
BRANCH  10  12
HETATM   12  C3  UNL     1      21.509   0.788  52.685  1.00  0.00    -0.036 A 
HETATM   13  C4  UNL     1      22.614  -0.010  52.472  1.00  0.00     0.009 A 
HETATM   14  C5  UNL     1      22.984  -0.877  53.480  1.00  0.00     0.001 A 
HETATM   15  C6  UNL     1      22.276  -0.947  54.662  1.00  0.00     0.000 A 
HETATM   16  C7  UNL     1      21.162  -0.149  54.892  1.00  0.00     0.001 A 
HETATM   17  C8  UNL     1      20.804   0.713  53.872  1.00  0.00     0.009 A 
ENDBRANCH  10  12
ENDBRANCH   6  10
ENDBRANCH   3   5
ENDBRANCH   1   3
BRANCH   2  18
HETATM   18  C14 UNL     1      26.522   1.652  51.826  1.00  0.00     0.161 C 
HETATM   19  C15 UNL     1      26.448   0.265  51.246  1.00  0.00     0.038 C 
HETATM   20  C16 UNL     1      27.098  -0.814  52.087  1.00  0.00     0.043 C 
HETATM   21  C17 UNL     1      27.443  -0.198  53.449  1.00  0.00    -0.022 C 
HETATM   22  C18 UNL     1      26.428   0.492  54.070  1.00  0.00     0.038 C 
HETATM   23  C21 UNL     1      28.873  -0.413  53.872  1.00  0.00     0.126 C 
HETATM   24  C19 UNL     1      27.053   1.603  53.255  1.00  0.00     0.056 C 
HETATM   25  N4  UNL     1      28.000   2.402  53.759  1.00  0.00    -0.271 NA
HETATM   26  C20 UNL     1      29.219   1.988  54.504  1.00  0.00     0.298 C 
HETATM   27  N5  UNL     1      29.554   0.594  54.350  1.00  0.00    -0.262 NA
BRANCH  23  28
HETATM   28  C22 UNL     1      29.253  -1.822  53.629  1.00  0.00     0.268 C 
HETATM   29  N6  UNL     1      28.424  -2.882  53.250  1.00  0.00    -0.365 N 
HETATM   30  H27 UNL     1      27.814  -2.882  54.097  1.00  0.00     0.159 HD
HETATM   31  H28 UNL     1      28.543  -3.393  52.352  1.00  0.00     0.159 HD
HETATM   32  O1  UNL     1      30.487  -1.829  53.843  1.00  0.00    -0.266 OA
ENDBRANCH  23  28
ENDBRANCH   2  18
TORSDOF 6
ENDMDL
MODEL 2
REMARK VINA RESULT:      -8.8      3.681      8.099
REMARK  6 active torsions:
REMARK  status: ('A' for Active; 'I' for Inactive)
REMARK    1  A    between atoms: C2_2  and  C3_3 
REMARK    2  A    between atoms: C2_2  and  N1_9 
REMARK    3  A    between atoms: C12_13  and  N2_14 
REMARK    4  A    between atoms: N2_14  and  C13_15 
REMARK    5  A    between atoms: N3_16  and  C14_17 
REMARK    6  A    between atoms: C21_26  and  C22_27 
REMARK       I    between atoms: C22_27  and  N6_28 
ROOT
HETATM    1  C13 UNL     1      22.373   3.281  52.313  1.00  0.00     0.198 C 
HETATM    2  N3  UNL     1      21.831   2.140  52.263  1.00  0.00    -0.274 NA
ENDROOT
BRANCH   1   3
HETATM    3  N2  UNL     1      23.741   3.418  51.871  1.00  0.00    -0.364 N 
HETATM    4  H17 UNL     1      24.296   4.259  52.219  1.00  0.00     0.162 HD
BRANCH   3   5
HETATM    5  C12 UNL     1      24.243   2.389  50.985  1.00  0.00     0.180 C 
HETATM    6  N1  UNL     1      25.464   1.955  51.564  1.00  0.00    -0.384 N 
HETATM    7  C9  UNL     1      26.457   2.873  51.158  1.00  0.00     0.119 C 
HETATM    8  C10 UNL     1      25.912   3.678  49.996  1.00  0.00     0.023 C 
HETATM    9  C11 UNL     1      24.684   2.871  49.657  1.00  0.00     0.048 C 
BRANCH   6  10
HETATM   10  C2  UNL     1      25.484   1.401  52.825  1.00  0.00     0.110 C 
HETATM   11  C1  UNL     1      24.595   0.227  53.107  1.00  0.00     0.037 C 
BRANCH  10  12
HETATM   12  C3  UNL     1      26.875   0.907  53.147  1.00  0.00    -0.036 A 
HETATM   13  C4  UNL     1      27.921   1.624  53.691  1.00  0.00     0.009 A 
HETATM   14  C5  UNL     1      29.112   0.962  53.901  1.00  0.00     0.001 A 
HETATM   15  C6  UNL     1      29.259  -0.372  53.581  1.00  0.00     0.000 A 
HETATM   16  C7  UNL     1      28.215  -1.108  53.035  1.00  0.00     0.001 A 
HETATM   17  C8  UNL     1      27.028  -0.430  52.829  1.00  0.00     0.009 A 
ENDBRANCH  10  12
ENDBRANCH   6  10
ENDBRANCH   3   5
ENDBRANCH   1   3
BRANCH   2  18
HETATM   18  C14 UNL     1      20.477   1.830  52.664  1.00  0.00     0.161 C 
HETATM   19  C15 UNL     1      20.251   0.376  52.977  1.00  0.00     0.038 C 
HETATM   20  C16 UNL     1      18.979  -0.211  52.398  1.00  0.00     0.043 C 
HETATM   21  C17 UNL     1      18.393   0.818  51.424  1.00  0.00    -0.022 C 
HETATM   22  C18 UNL     1      19.269   1.337  50.499  1.00  0.00     0.038 C 
HETATM   23  C21 UNL     1      16.940   1.135  51.671  1.00  0.00     0.126 C 
HETATM   24  C19 UNL     1      19.462   2.318  51.635  1.00  0.00     0.056 C 
HETATM   25  N4  UNL     1      18.761   3.455  51.714  1.00  0.00    -0.271 NA
HETATM   26  C20 UNL     1      17.291   3.614  51.557  1.00  0.00     0.298 C 
HETATM   27  N5  UNL     1      16.552   2.382  51.678  1.00  0.00    -0.262 NA
BRANCH  23  28
HETATM   28  C22 UNL     1      16.192  -0.123  51.888  1.00  0.00     0.268 C 
HETATM   29  N6  UNL     1      15.681  -0.622  53.090  1.00  0.00    -0.365 N 
HETATM   30  H27 UNL     1      16.592  -0.729  53.587  1.00  0.00     0.159 HD
HETATM   31  H28 UNL     1      14.663  -0.772  53.246  1.00  0.00     0.159 HD
HETATM   32  O1  UNL     1      16.131  -0.624  50.742  1.00  0.00    -0.266 OA
ENDBRANCH  23  28
ENDBRANCH   2  18
TORSDOF 6
ENDMDL
MODEL 3
REMARK VINA RESULT:      -8.6      4.682      7.127
REMARK  6 active torsions:
REMARK  status: ('A' for Active; 'I' for Inactive)
REMARK    1  A    between atoms: C2_2  and  C3_3 
REMARK    2  A    between atoms: C2_2  and  N1_9 
REMARK    3  A    between atoms: C12_13  and  N2_14 
REMARK    4  A    between atoms: N2_14  and  C13_15 
REMARK    5  A    between atoms: N3_16  and  C14_17 
REMARK    6  A    between atoms: C21_26  and  C22_27 
REMARK       I    between atoms: C22_27  and  N6_28 
ROOT
HETATM    1  C13 UNL     1      26.573   2.918  50.623  1.00  0.00     0.198 C 
HETATM    2  N3  UNL     1      25.973   3.967  50.248  1.00  0.00    -0.274 NA
ENDROOT
BRANCH   1   3
HETATM    3  N2  UNL     1      26.198   2.318  51.882  1.00  0.00    -0.364 N 
HETATM    4  H17 UNL     1      26.104   2.955  52.731  1.00  0.00     0.162 HD
BRANCH   3   5
HETATM    5  C12 UNL     1      25.979   0.887  51.878  1.00  0.00     0.180 C 
HETATM    6  N1  UNL     1      25.043   0.645  52.918  1.00  0.00    -0.384 N 
HETATM    7  C9  UNL     1      25.777   0.591  54.123  1.00  0.00     0.119 C 
HETATM    8  C10 UNL     1      27.242   0.419  53.779  1.00  0.00     0.023 C 
HETATM    9  C11 UNL     1      27.140   0.078  52.314  1.00  0.00     0.048 C 
BRANCH   6  10
HETATM   10  C2  UNL     1      23.788   1.212  52.877  1.00  0.00     0.110 C 
HETATM   11  C1  UNL     1      23.237   1.641  51.551  1.00  0.00     0.037 C 
BRANCH  10  12
HETATM   12  C3  UNL     1      22.766   0.237  53.412  1.00  0.00    -0.036 A 
HETATM   13  C4  UNL     1      22.992  -0.886  54.182  1.00  0.00     0.009 A 
HETATM   14  C5  UNL     1      21.898  -1.635  54.560  1.00  0.00     0.001 A 
HETATM   15  C6  UNL     1      20.619  -1.280  54.184  1.00  0.00     0.000 A 
HETATM   16  C7  UNL     1      20.375  -0.153  53.410  1.00  0.00     0.001 A 
HETATM   17  C8  UNL     1      21.482   0.588  53.039  1.00  0.00     0.009 A 
ENDBRANCH  10  12
ENDBRANCH   6  10
ENDBRANCH   3   5
ENDBRANCH   1   3
BRANCH   2  18
HETATM   18  C14 UNL     1      26.225   4.690  49.023  1.00  0.00     0.161 C 
HETATM   19  C15 UNL     1      27.685   4.910  48.733  1.00  0.00     0.038 C 
HETATM   20  C16 UNL     1      28.041   6.308  48.268  1.00  0.00     0.043 C 
HETATM   21  C17 UNL     1      26.805   7.193  48.469  1.00  0.00    -0.022 C 
HETATM   22  C18 UNL     1      26.210   7.125  49.707  1.00  0.00     0.038 C 
HETATM   23  C21 UNL     1      26.407   7.973  47.242  1.00  0.00     0.126 C 
HETATM   24  C19 UNL     1      25.471   6.016  48.989  1.00  0.00     0.056 C 
HETATM   25  N4  UNL     1      24.307   6.233  48.365  1.00  0.00    -0.271 NA
HETATM   26  C20 UNL     1      23.989   7.334  47.418  1.00  0.00     0.298 C 
HETATM   27  N5  UNL     1      25.151   8.000  46.883  1.00  0.00    -0.262 NA
BRANCH  23  28
HETATM   28  C22 UNL     1      27.610   8.584  46.635  1.00  0.00     0.268 C 
HETATM   29  N6  UNL     1      28.546   9.425  47.242  1.00  0.00    -0.365 N 
HETATM   30  H27 UNL     1      27.895  10.210  47.463  1.00  0.00     0.159 HD
HETATM   31  H28 UNL     1      29.549   9.166  47.347  1.00  0.00     0.159 HD
HETATM   32  O1  UNL     1      27.583   8.163  45.455  1.00  0.00    -0.266 OA
ENDBRANCH  23  28
ENDBRANCH   2  18
TORSDOF 6
ENDMDL
MODEL 4
REMARK VINA RESULT:      -8.6      4.270      8.650
REMARK  6 active torsions:
REMARK  status: ('A' for Active; 'I' for Inactive)
REMARK    1  A    between atoms: C2_2  and  C3_3 
REMARK    2  A    between atoms: C2_2  and  N1_9 
REMARK    3  A    between atoms: C12_13  and  N2_14 
REMARK    4  A    between atoms: N2_14  and  C13_15 
REMARK    5  A    between atoms: N3_16  and  C14_17 
REMARK    6  A    between atoms: C21_26  and  C22_27 
REMARK       I    between atoms: C22_27  and  N6_28 
ROOT
HETATM    1  C13 UNL     1      22.635   0.919  52.082  1.00  0.00     0.198 C 
HETATM    2  N3  UNL     1      21.741   1.800  52.242  1.00  0.00    -0.274 NA
ENDROOT
BRANCH   1   3
HETATM    3  N2  UNL     1      23.952   1.337  51.662  1.00  0.00    -0.364 N 
HETATM    4  H17 UNL     1      24.498   0.692  51.013  1.00  0.00     0.162 HD
BRANCH   3   5
HETATM    5  C12 UNL     1      24.419   2.611  52.166  1.00  0.00     0.180 C 
HETATM    6  N1  UNL     1      25.448   3.016  51.275  1.00  0.00    -0.384 N 
HETATM    7  C9  UNL     1      26.625   2.353  51.685  1.00  0.00     0.119 C 
HETATM    8  C10 UNL     1      26.408   1.822  53.086  1.00  0.00     0.023 C 
HETATM    9  C11 UNL     1      25.138   2.544  53.458  1.00  0.00     0.048 C 
BRANCH   6  10
HETATM   10  C2  UNL     1      25.178   3.222  49.940  1.00  0.00     0.110 C 
HETATM   11  C1  UNL     1      23.784   3.598  49.540  1.00  0.00     0.037 C 
BRANCH  10  12
HETATM   12  C3  UNL     1      26.039   4.344  49.410  1.00  0.00    -0.036 A 
HETATM   13  C4  UNL     1      27.321   4.259  48.907  1.00  0.00     0.009 A 
HETATM   14  C5  UNL     1      27.919   5.425  48.474  1.00  0.00     0.001 A 
HETATM   15  C6  UNL     1      27.262   6.637  48.540  1.00  0.00     0.000 A 
HETATM   16  C7  UNL     1      25.971   6.738  49.042  1.00  0.00     0.001 A 
HETATM   17  C8  UNL     1      25.386   5.561  49.472  1.00  0.00     0.009 A 
ENDBRANCH  10  12
ENDBRANCH   6  10
ENDBRANCH   3   5
ENDBRANCH   1   3
BRANCH   2  18
HETATM   18  C14 UNL     1      20.379   1.553  52.657  1.00  0.00     0.161 C 
HETATM   19  C15 UNL     1      20.080   0.105  52.940  1.00  0.00     0.038 C 
HETATM   20  C16 UNL     1      18.772  -0.401  52.367  1.00  0.00     0.043 C 
HETATM   21  C17 UNL     1      18.228   0.679  51.424  1.00  0.00    -0.022 C 
HETATM   22  C18 UNL     1      19.117   1.172  50.499  1.00  0.00     0.038 C 
HETATM   23  C21 UNL     1      16.797   1.065  51.699  1.00  0.00     0.126 C 
HETATM   24  C19 UNL     1      19.377   2.115  51.653  1.00  0.00     0.056 C 
HETATM   25  N4  UNL     1      18.738   3.286  51.767  1.00  0.00    -0.271 NA
HETATM   26  C20 UNL     1      17.276   3.525  51.635  1.00  0.00     0.298 C 
HETATM   27  N5  UNL     1      16.475   2.331  51.739  1.00  0.00    -0.262 NA
BRANCH  23  28
HETATM   28  C22 UNL     1      15.987  -0.156  51.900  1.00  0.00     0.268 C 
HETATM   29  N6  UNL     1      15.488  -0.669  53.100  1.00  0.00    -0.365 N 
HETATM   30  H27 UNL     1      16.407  -0.844  53.562  1.00  0.00     0.159 HD
HETATM   31  H28 UNL     1      14.469  -0.768  53.287  1.00  0.00     0.159 HD
HETATM   32  O1  UNL     1      15.860  -0.612  50.740  1.00  0.00    -0.266 OA
ENDBRANCH  23  28
ENDBRANCH   2  18
TORSDOF 6
ENDMDL
MODEL 5
REMARK VINA RESULT:      -8.6      3.733      7.519
REMARK  6 active torsions:
REMARK  status: ('A' for Active; 'I' for Inactive)
REMARK    1  A    between atoms: C2_2  and  C3_3 
REMARK    2  A    between atoms: C2_2  and  N1_9 
REMARK    3  A    between atoms: C12_13  and  N2_14 
REMARK    4  A    between atoms: N2_14  and  C13_15 
REMARK    5  A    between atoms: N3_16  and  C14_17 
REMARK    6  A    between atoms: C21_26  and  C22_27 
REMARK       I    between atoms: C22_27  and  N6_28 
ROOT
HETATM    1  C13 UNL     1      21.412   0.730  50.910  1.00  0.00     0.198 C 
HETATM    2  N3  UNL     1      21.256   1.974  51.076  1.00  0.00    -0.274 NA
ENDROOT
BRANCH   1   3
HETATM    3  N2  UNL     1      21.690  -0.093  52.064  1.00  0.00    -0.364 N 
HETATM    4  H17 UNL     1      21.627  -1.151  51.949  1.00  0.00     0.162 HD
BRANCH   3   5
HETATM    5  C12 UNL     1      22.034   0.600  53.287  1.00  0.00     0.180 C 
HETATM    6  N1  UNL     1      23.413   0.334  53.497  1.00  0.00    -0.384 N 
HETATM    7  C9  UNL     1      23.494  -0.930  54.119  1.00  0.00     0.119 C 
HETATM    8  C10 UNL     1      22.121  -1.288  54.649  1.00  0.00     0.023 C 
HETATM    9  C11 UNL     1      21.422   0.041  54.513  1.00  0.00     0.048 C 
BRANCH   6  10
HETATM   10  C2  UNL     1      24.352   0.730  52.570  1.00  0.00     0.110 C 
HETATM   11  C1  UNL     1      24.545   2.197  52.326  1.00  0.00     0.037 C 
BRANCH  10  12
HETATM   12  C3  UNL     1      25.718   0.232  52.978  1.00  0.00    -0.036 A 
HETATM   13  C4  UNL     1      26.429  -0.820  52.438  1.00  0.00     0.009 A 
HETATM   14  C5  UNL     1      27.670  -1.098  52.973  1.00  0.00     0.001 A 
HETATM   15  C6  UNL     1      28.188  -0.352  54.013  1.00  0.00     0.000 A 
HETATM   16  C7  UNL     1      27.484   0.710  54.566  1.00  0.00     0.001 A 
HETATM   17  C8  UNL     1      26.242   0.976  54.020  1.00  0.00     0.009 A 
ENDBRANCH  10  12
ENDBRANCH   6  10
ENDBRANCH   3   5
ENDBRANCH   1   3
BRANCH   2  18
HETATM   18  C14 UNL     1      20.974   2.935  50.034  1.00  0.00     0.161 C 
HETATM   19  C15 UNL     1      19.977   2.454  49.014  1.00  0.00     0.038 C 
HETATM   20  C16 UNL     1      20.350   2.738  47.573  1.00  0.00     0.043 C 
HETATM   21  C17 UNL     1      21.801   3.235  47.557  1.00  0.00    -0.022 C 
HETATM   22  C18 UNL     1      22.706   2.468  48.252  1.00  0.00     0.038 C 
HETATM   23  C21 UNL     1      21.996   4.529  46.809  1.00  0.00     0.126 C 
HETATM   24  C19 UNL     1      22.251   3.408  49.347  1.00  0.00     0.056 C 
HETATM   25  N4  UNL     1      22.902   4.546  49.616  1.00  0.00    -0.271 NA
HETATM   26  C20 UNL     1      23.352   5.574  48.640  1.00  0.00     0.298 C 
HETATM   27  N5  UNL     1      22.715   5.475  47.350  1.00  0.00    -0.262 NA
BRANCH  23  28
HETATM   28  C22 UNL     1      21.266   4.469  45.524  1.00  0.00     0.268 C 
HETATM   29  N6  UNL     1      20.111   5.166  45.158  1.00  0.00    -0.365 N 
HETATM   30  H27 UNL     1      19.476   4.757  45.878  1.00  0.00     0.159 HD
HETATM   31  H28 UNL     1      20.093   5.847  44.371  1.00  0.00     0.159 HD
HETATM   32  O1  UNL     1      21.933   3.649  44.852  1.00  0.00    -0.266 OA
ENDBRANCH  23  28
ENDBRANCH   2  18
TORSDOF 6
ENDMDL
MODEL 6
REMARK VINA RESULT:      -8.5      3.571      7.146
REMARK  6 active torsions:
REMARK  status: ('A' for Active; 'I' for Inactive)
REMARK    1  A    between atoms: C2_2  and  C3_3 
REMARK    2  A    between atoms: C2_2  and  N1_9 
REMARK    3  A    between atoms: C12_13  and  N2_14 
REMARK    4  A    between atoms: N2_14  and  C13_15 
REMARK    5  A    between atoms: N3_16  and  C14_17 
REMARK    6  A    between atoms: C21_26  and  C22_27 
REMARK       I    between atoms: C22_27  and  N6_28 
ROOT
HETATM    1  C13 UNL     1      22.299   2.421  51.205  1.00  0.00     0.198 C 
HETATM    2  N3  UNL     1      23.324   2.845  50.595  1.00  0.00    -0.274 NA
ENDROOT
BRANCH   1   3
HETATM    3  N2  UNL     1      22.348   1.111  51.811  1.00  0.00    -0.364 N 
HETATM    4  H17 UNL     1      22.239   0.262  51.176  1.00  0.00     0.162 HD
BRANCH   3   5
HETATM    5  C12 UNL     1      22.542   1.067  53.245  1.00  0.00     0.180 C 
HETATM    6  N1  UNL     1      23.853   0.554  53.432  1.00  0.00    -0.384 N 
HETATM    7  C9  UNL     1      23.757  -0.851  53.341  1.00  0.00     0.119 C 
HETATM    8  C10 UNL     1      22.300  -1.238  53.477  1.00  0.00     0.023 C 
HETATM    9  C11 UNL     1      21.714   0.066  53.955  1.00  0.00     0.048 C 
BRANCH   6  10
HETATM   10  C2  UNL     1      24.946   1.225  52.931  1.00  0.00     0.110 C 
HETATM   11  C1  UNL     1      25.270   2.581  53.480  1.00  0.00     0.037 C 
BRANCH  10  12
HETATM   12  C3  UNL     1      26.199   0.414  53.165  1.00  0.00    -0.036 A 
HETATM   13  C4  UNL     1      26.681  -0.633  52.407  1.00  0.00     0.009 A 
HETATM   14  C5  UNL     1      27.856  -1.232  52.813  1.00  0.00     0.001 A 
HETATM   15  C6  UNL     1      28.529  -0.803  53.939  1.00  0.00     0.000 A 
HETATM   16  C7  UNL     1      28.057   0.250  54.712  1.00  0.00     0.001 A 
HETATM   17  C8  UNL     1      26.878   0.839  54.292  1.00  0.00     0.009 A 
ENDBRANCH  10  12
ENDBRANCH   6  10
ENDBRANCH   3   5
ENDBRANCH   1   3
BRANCH   2  18
HETATM   18  C14 UNL     1      23.442   4.126  49.937  1.00  0.00     0.161 C 
HETATM   19  C15 UNL     1      24.829   4.429  49.435  1.00  0.00     0.038 C 
HETATM   20  C16 UNL     1      25.319   5.834  49.720  1.00  0.00     0.043 C 
HETATM   21  C17 UNL     1      24.322   6.488  50.685  1.00  0.00    -0.022 C 
HETATM   22  C18 UNL     1      23.989   5.750  51.797  1.00  0.00     0.038 C 
HETATM   23  C21 UNL     1      23.824   7.835  50.228  1.00  0.00     0.126 C 
HETATM   24  C19 UNL     1      22.938   5.261  50.823  1.00  0.00     0.056 C 
HETATM   25  N4  UNL     1      21.728   5.826  50.748  1.00  0.00    -0.271 NA
HETATM   26  C20 UNL     1      21.419   7.279  50.667  1.00  0.00     0.298 C 
HETATM   27  N5  UNL     1      22.545   8.096  50.289  1.00  0.00    -0.262 NA
BRANCH  23  28
HETATM   28  C22 UNL     1      24.965   8.646  49.751  1.00  0.00     0.268 C 
HETATM   29  N6  UNL     1      26.079   9.073  50.479  1.00  0.00    -0.365 N 
HETATM   30  H27 UNL     1      25.567   9.662  51.172  1.00  0.00     0.159 HD
HETATM   31  H28 UNL     1      27.050   8.781  50.243  1.00  0.00     0.159 HD
HETATM   32  O1  UNL     1      24.690   8.851  48.547  1.00  0.00    -0.266 OA
ENDBRANCH  23  28
ENDBRANCH   2  18
TORSDOF 6
ENDMDL
MODEL 7
REMARK VINA RESULT:      -8.5      2.448      3.518
REMARK  6 active torsions:
REMARK  status: ('A' for Active; 'I' for Inactive)
REMARK    1  A    between atoms: C2_2  and  C3_3 
REMARK    2  A    between atoms: C2_2  and  N1_9 
REMARK    3  A    between atoms: C12_13  and  N2_14 
REMARK    4  A    between atoms: N2_14  and  C13_15 
REMARK    5  A    between atoms: N3_16  and  C14_17 
REMARK    6  A    between atoms: C21_26  and  C22_27 
REMARK       I    between atoms: C22_27  and  N6_28 
ROOT
HETATM    1  C13 UNL     1      23.635   2.807  50.557  1.00  0.00     0.198 C 
HETATM    2  N3  UNL     1      23.900   1.885  51.381  1.00  0.00    -0.274 NA
ENDROOT
BRANCH   1   3
HETATM    3  N2  UNL     1      22.590   2.588  49.583  1.00  0.00    -0.364 N 
HETATM    4  H17 UNL     1      22.679   1.744  48.938  1.00  0.00     0.162 HD
BRANCH   3   5
HETATM    5  C12 UNL     1      21.503   3.543  49.572  1.00  0.00     0.180 C 
HETATM    6  N1  UNL     1      20.347   2.805  49.942  1.00  0.00    -0.384 N 
HETATM    7  C9  UNL     1      19.880   2.168  48.771  1.00  0.00     0.119 C 
HETATM    8  C10 UNL     1      20.538   2.827  47.577  1.00  0.00     0.023 C 
HETATM    9  C11 UNL     1      21.131   4.049  48.232  1.00  0.00     0.048 C 
BRANCH   6  10
HETATM   10  C2  UNL     1      20.278   2.178  51.166  1.00  0.00     0.110 C 
HETATM   11  C1  UNL     1      20.495   2.995  52.404  1.00  0.00     0.037 C 
BRANCH  10  12
HETATM   12  C3  UNL     1      18.909   1.567  51.353  1.00  0.00    -0.036 A 
HETATM   13  C4  UNL     1      17.686   2.205  51.305  1.00  0.00     0.009 A 
HETATM   14  C5  UNL     1      16.556   1.440  51.507  1.00  0.00     0.001 A 
HETATM   15  C6  UNL     1      16.639   0.084  51.749  1.00  0.00     0.000 A 
HETATM   16  C7  UNL     1      17.863  -0.572  51.799  1.00  0.00     0.001 A 
HETATM   17  C8  UNL     1      18.986   0.208  51.596  1.00  0.00     0.009 A 
ENDBRANCH  10  12
ENDBRANCH   6  10
ENDBRANCH   3   5
ENDBRANCH   1   3
BRANCH   2  18
HETATM   18  C14 UNL     1      24.909   1.941  52.413  1.00  0.00     0.161 C 
HETATM   19  C15 UNL     1      26.138   2.719  52.024  1.00  0.00     0.038 C 
HETATM   20  C16 UNL     1      27.452   2.062  52.391  1.00  0.00     0.043 C 
HETATM   21  C17 UNL     1      27.146   0.631  52.851  1.00  0.00    -0.022 C 
HETATM   22  C18 UNL     1      26.338  -0.108  52.018  1.00  0.00     0.038 C 
HETATM   23  C21 UNL     1      27.750   0.275  54.185  1.00  0.00     0.126 C 
HETATM   24  C19 UNL     1      25.294   0.546  52.897  1.00  0.00     0.056 C 
HETATM   25  N4  UNL     1      24.824  -0.051  53.998  1.00  0.00    -0.271 NA
HETATM   26  C20 UNL     1      25.619  -0.700  55.075  1.00  0.00     0.298 C 
HETATM   27  N5  UNL     1      27.013  -0.333  55.076  1.00  0.00    -0.262 NA
BRANCH  23  28
HETATM   28  C22 UNL     1      29.156   0.733  54.226  1.00  0.00     0.268 C 
HETATM   29  N6  UNL     1      30.226   0.296  53.440  1.00  0.00    -0.365 N 
HETATM   30  H27 UNL     1      30.229  -0.697  53.761  1.00  0.00     0.159 HD
HETATM   31  H28 UNL     1      30.739   0.927  52.791  1.00  0.00     0.159 HD
HETATM   32  O1  UNL     1      29.149   1.601  55.129  1.00  0.00    -0.266 OA
ENDBRANCH  23  28
ENDBRANCH   2  18
TORSDOF 6
ENDMDL
MODEL 8
REMARK VINA RESULT:      -8.2      3.992      6.645
REMARK  6 active torsions:
REMARK  status: ('A' for Active; 'I' for Inactive)
REMARK    1  A    between atoms: C2_2  and  C3_3 
REMARK    2  A    between atoms: C2_2  and  N1_9 
REMARK    3  A    between atoms: C12_13  and  N2_14 
REMARK    4  A    between atoms: N2_14  and  C13_15 
REMARK    5  A    between atoms: N3_16  and  C14_17 
REMARK    6  A    between atoms: C21_26  and  C22_27 
REMARK       I    between atoms: C22_27  and  N6_28 
ROOT
HETATM    1  C13 UNL     1      23.757   4.959  51.329  1.00  0.00     0.198 C 
HETATM    2  N3  UNL     1      23.048   3.943  51.581  1.00  0.00    -0.274 NA
ENDROOT
BRANCH   1   3
HETATM    3  N2  UNL     1      23.404   5.788  50.199  1.00  0.00    -0.364 N 
HETATM    4  H17 UNL     1      22.989   6.749  50.396  1.00  0.00     0.162 HD
BRANCH   3   5
HETATM    5  C12 UNL     1      23.649   5.231  48.885  1.00  0.00     0.180 C 
HETATM    6  N1  UNL     1      24.905   5.754  48.482  1.00  0.00    -0.384 N 
HETATM    7  C9  UNL     1      24.661   7.042  47.957  1.00  0.00     0.119 C 
HETATM    8  C10 UNL     1      23.177   7.169  47.682  1.00  0.00     0.023 C 
HETATM    9  C11 UNL     1      22.750   5.730  47.820  1.00  0.00     0.048 C 
BRANCH   6  10
HETATM   10  C2  UNL     1      26.042   5.490  49.213  1.00  0.00     0.110 C 
HETATM   11  C1  UNL     1      26.418   4.061  49.466  1.00  0.00     0.037 C 
BRANCH  10  12
HETATM   12  C3  UNL     1      27.248   6.081  48.521  1.00  0.00    -0.036 A 
HETATM   13  C4  UNL     1      27.357   7.321  47.926  1.00  0.00     0.009 A 
HETATM   14  C5  UNL     1      28.565   7.652  47.349  1.00  0.00     0.001 A 
HETATM   15  C6  UNL     1      29.632   6.777  47.363  1.00  0.00     0.000 A 
HETATM   16  C7  UNL     1      29.538   5.525  47.958  1.00  0.00     0.001 A 
HETATM   17  C8  UNL     1      28.320   5.208  48.532  1.00  0.00     0.009 A 
ENDBRANCH  10  12
ENDBRANCH   6  10
ENDBRANCH   3   5
ENDBRANCH   1   3
BRANCH   2  18
HETATM   18  C14 UNL     1      23.263   3.013  52.667  1.00  0.00     0.161 C 
HETATM   19  C15 UNL     1      24.596   3.168  53.348  1.00  0.00     0.038 C 
HETATM   20  C16 UNL     1      25.323   1.868  53.630  1.00  0.00     0.043 C 
HETATM   21  C17 UNL     1      24.575   0.748  52.896  1.00  0.00    -0.022 C 
HETATM   22  C18 UNL     1      24.294   0.981  51.571  1.00  0.00     0.038 C 
HETATM   23  C21 UNL     1      24.224  -0.427  53.772  1.00  0.00     0.126 C 
HETATM   24  C19 UNL     1      23.059   1.570  52.218  1.00  0.00     0.056 C 
HETATM   25  N4  UNL     1      21.946   0.849  52.400  1.00  0.00    -0.271 NA
HETATM   26  C20 UNL     1      21.847  -0.517  52.980  1.00  0.00     0.298 C 
HETATM   27  N5  UNL     1      23.018  -0.927  53.714  1.00  0.00    -0.262 NA
BRANCH  23  28
HETATM   28  C22 UNL     1      25.396  -0.795  54.596  1.00  0.00     0.268 C 
HETATM   29  N6  UNL     1      25.517  -0.749  55.988  1.00  0.00    -0.365 N 
HETATM   30  H27 UNL     1      25.389   0.280  56.098  1.00  0.00     0.159 HD
HETATM   31  H28 UNL     1      25.684  -1.599  56.565  1.00  0.00     0.159 HD
HETATM   32  O1  UNL     1      26.243  -1.155  53.747  1.00  0.00    -0.266 OA
ENDBRANCH  23  28
ENDBRANCH   2  18
TORSDOF 6
ENDMDL
MODEL 9
REMARK VINA RESULT:      -8.1      3.759      8.090
REMARK  6 active torsions:
REMARK  status: ('A' for Active; 'I' for Inactive)
REMARK    1  A    between atoms: C2_2  and  C3_3 
REMARK    2  A    between atoms: C2_2  and  N1_9 
REMARK    3  A    between atoms: C12_13  and  N2_14 
REMARK    4  A    between atoms: N2_14  and  C13_15 
REMARK    5  A    between atoms: N3_16  and  C14_17 
REMARK    6  A    between atoms: C21_26  and  C22_27 
REMARK       I    between atoms: C22_27  and  N6_28 
ROOT
HETATM    1  C13 UNL     1      20.949   1.882  51.587  1.00  0.00     0.198 C 
HETATM    2  N3  UNL     1      21.274   3.026  52.019  1.00  0.00    -0.274 NA
ENDROOT
BRANCH   1   3
HETATM    3  N2  UNL     1      21.614   0.721  52.132  1.00  0.00    -0.364 N 
HETATM    4  H17 UNL     1      21.716  -0.135  51.506  1.00  0.00     0.162 HD
BRANCH   3   5
HETATM    5  C12 UNL     1      22.087   0.826  53.496  1.00  0.00     0.180 C 
HETATM    6  N1  UNL     1      23.416   0.327  53.473  1.00  0.00    -0.384 N 
HETATM    7  C9  UNL     1      23.324  -1.080  53.549  1.00  0.00     0.119 C 
HETATM    8  C10 UNL     1      21.927  -1.441  54.009  1.00  0.00     0.023 C 
HETATM    9  C11 UNL     1      21.429  -0.089  54.455  1.00  0.00     0.048 C 
BRANCH   6  10
HETATM   10  C2  UNL     1      24.380   0.934  52.699  1.00  0.00     0.110 C 
HETATM   11  C1  UNL     1      24.567   2.417  52.818  1.00  0.00     0.037 C 
BRANCH  10  12
HETATM   12  C3  UNL     1      25.737   0.355  53.021  1.00  0.00    -0.036 A 
HETATM   13  C4  UNL     1      26.439  -0.597  52.310  1.00  0.00     0.009 A 
HETATM   14  C5  UNL     1      27.673  -0.979  52.795  1.00  0.00     0.001 A 
HETATM   15  C6  UNL     1      28.193  -0.432  53.949  1.00  0.00     0.000 A 
HETATM   16  C7  UNL     1      27.499   0.529  54.675  1.00  0.00     0.001 A 
HETATM   17  C8  UNL     1      26.264   0.901  54.177  1.00  0.00     0.009 A 
ENDBRANCH  10  12
ENDBRANCH   6  10
ENDBRANCH   3   5
ENDBRANCH   1   3
BRANCH   2  18
HETATM   18  C14 UNL     1      20.710   4.283  51.583  1.00  0.00     0.161 C 
HETATM   19  C15 UNL     1      19.408   4.144  50.841  1.00  0.00     0.038 C 
HETATM   20  C16 UNL     1      19.295   4.986  49.586  1.00  0.00     0.043 C 
HETATM   21  C17 UNL     1      20.682   5.572  49.292  1.00  0.00    -0.022 C 
HETATM   22  C18 UNL     1      21.726   4.678  49.301  1.00  0.00     0.038 C 
HETATM   23  C21 UNL     1      20.682   7.065  49.084  1.00  0.00     0.126 C 
HETATM   24  C19 UNL     1      21.709   5.089  50.758  1.00  0.00     0.056 C 
HETATM   25  N4  UNL     1      22.469   6.089  51.218  1.00  0.00    -0.271 NA
HETATM   26  C20 UNL     1      22.621   7.445  50.627  1.00  0.00     0.298 C 
HETATM   27  N5  UNL     1      21.587   7.792  49.683  1.00  0.00    -0.262 NA
BRANCH  23  28
HETATM   28  C22 UNL     1      19.564   7.437  48.189  1.00  0.00     0.268 C 
HETATM   29  N6  UNL     1      18.373   8.086  48.526  1.00  0.00    -0.365 N 
HETATM   30  H27 UNL     1      18.003   7.356  49.173  1.00  0.00     0.159 HD
HETATM   31  H28 UNL     1      18.112   9.016  48.139  1.00  0.00     0.159 HD
HETATM   32  O1  UNL     1      19.947   7.032  47.067  1.00  0.00    -0.266 OA
ENDBRANCH  23  28
ENDBRANCH   2  18
TORSDOF 6
ENDMDL
