MODEL 1
REMARK VINA RESULT:      -8.1      0.000      0.000
REMARK  0 active torsions:
REMARK  status: ('A' for Active; 'I' for Inactive)
ROOT
HETATM    1  O1  UNL     1      23.549  -1.647  55.639  1.00  0.00     0.000 OA
HETATM    2  C1  UNL     1      23.343  -1.158  54.335  1.00  0.00    -0.046 A 
HETATM    3  C2  UNL     1      24.430  -0.724  54.838  1.00  0.00     0.107 A 
HETATM    4 CL1  UNL     1      25.270  -0.912  56.336  1.00  0.00    -0.107 Cl
HETATM    5  C3  UNL     1      25.521   0.103  54.488  1.00  0.00     0.006 C 
HETATM    6  C4  UNL     1      26.546   0.840  54.246  1.00  0.00    -0.002 C 
HETATM    7  C5  UNL     1      27.437   1.710  53.535  1.00  0.00    -0.002 C 
HETATM    8  C6  UNL     1      27.423   2.241  52.346  1.00  0.00     0.003 C 
HETATM    9  C7  UNL     1      26.721   2.399  51.053  1.00  0.00     0.299 C 
HETATM   10  N1  UNL     1      26.404   3.802  50.819  1.00  0.00     0.103 N 
HETATM   11  C8  UNL     1      25.778   3.993  49.547  1.00  0.00     0.392 C 
HETATM   12  N2  UNL     1      24.580   3.197  49.394  1.00  0.00    -0.377 N 
HETATM   13  C9  UNL     1      23.590   3.429  50.391  1.00  0.00     0.066 C 
HETATM   14  C10 UNL     1      22.671   3.182  51.297  1.00  0.00     0.058 C 
HETATM   15  C11 UNL     1      21.922   2.108  51.994  1.00  0.00    -0.020 C 
HETATM   16  C12 UNL     1      21.443   0.912  52.416  1.00  0.00    -0.030 C 
HETATM   17  C13 UNL     1      20.406   0.947  53.448  1.00  0.00     0.027 C 
HETATM   18  C14 UNL     1      20.754   0.229  54.689  1.00  0.00     0.004 C 
HETATM   19  C15 UNL     1      20.919  -1.232  54.521  1.00  0.00     0.005 C 
HETATM   20  C16 UNL     1      22.112  -1.618  53.697  1.00  0.00     0.037 C 
HETATM   21  H1  UNL     1      22.939  -2.309  56.098  1.00  0.00     0.000 HD
HETATM   22  H8  UNL     1      27.344   4.296  50.781  1.00  0.00     0.318 HD
HETATM   23  H11 UNL     1      23.852   2.528  49.066  1.00  0.00     0.160 HD
ENDROOT
TORSDOF 0
ENDMDL
MODEL 2
REMARK VINA RESULT:      -8.0      3.392      5.894
REMARK  0 active torsions:
REMARK  status: ('A' for Active; 'I' for Inactive)
ROOT
HETATM    1  O1  UNL     1      20.164   1.362  48.951  1.00  0.00     0.000 OA
HETATM    2  C1  UNL     1      21.568   1.304  49.018  1.00  0.00    -0.046 A 
HETATM    3  C2  UNL     1      21.024   0.879  50.089  1.00  0.00     0.107 A 
HETATM    4 CL1  UNL     1      19.409   0.679  50.670  1.00  0.00    -0.107 Cl
HETATM    5  C3  UNL     1      21.395   0.349  51.345  1.00  0.00     0.006 C 
HETATM    6  C4  UNL     1      21.650  -0.139  52.507  1.00  0.00    -0.002 C 
HETATM    7  C5  UNL     1      22.409  -0.625  53.622  1.00  0.00    -0.002 C 
HETATM    8  C6  UNL     1      23.683  -0.765  53.855  1.00  0.00     0.003 C 
HETATM    9  C7  UNL     1      25.071  -0.613  53.365  1.00  0.00     0.299 C 
HETATM   10  N1  UNL     1      25.819   0.284  54.236  1.00  0.00     0.103 N 
HETATM   11  C8  UNL     1      27.182   0.403  53.820  1.00  0.00     0.392 C 
HETATM   12  N2  UNL     1      27.306   0.850  52.450  1.00  0.00    -0.377 N 
HETATM   13  C9  UNL     1      26.671   2.095  52.179  1.00  0.00     0.066 C 
HETATM   14  C10 UNL     1      25.945   3.001  51.562  1.00  0.00     0.058 C 
HETATM   15  C11 UNL     1      25.103   3.265  50.371  1.00  0.00    -0.020 C 
HETATM   16  C12 UNL     1      24.415   3.157  49.206  1.00  0.00    -0.030 C 
HETATM   17  C13 UNL     1      23.693   4.347  48.758  1.00  0.00     0.027 C 
HETATM   18  C14 UNL     1      22.240   4.153  48.588  1.00  0.00     0.004 C 
HETATM   19  C15 UNL     1      21.875   3.196  47.521  1.00  0.00     0.005 C 
HETATM   20  C16 UNL     1      22.257   1.777  47.819  1.00  0.00     0.037 C 
HETATM   21  H1  UNL     1      19.647   1.649  48.131  1.00  0.00     0.000 HD
HETATM   22  H8  UNL     1      25.822  -0.192  55.186  1.00  0.00     0.318 HD
HETATM   23  H11 UNL     1      27.536   0.938  51.438  1.00  0.00     0.160 HD
ENDROOT
TORSDOF 0
ENDMDL
MODEL 3
REMARK VINA RESULT:      -7.9      3.220      4.973
REMARK  0 active torsions:
REMARK  status: ('A' for Active; 'I' for Inactive)
ROOT
HETATM    1  O1  UNL     1      20.884   3.256  50.404  1.00  0.00     0.000 OA
HETATM    2  C1  UNL     1      21.473   2.861  51.619  1.00  0.00    -0.046 A 
HETATM    3  C2  UNL     1      22.346   3.064  50.713  1.00  0.00     0.107 A 
HETATM    4 CL1  UNL     1      22.328   3.548  49.055  1.00  0.00    -0.107 Cl
HETATM    5  C3  UNL     1      23.748   3.025  50.544  1.00  0.00     0.006 C 
HETATM    6  C4  UNL     1      25.012   3.013  50.310  1.00  0.00    -0.002 C 
HETATM    7  C5  UNL     1      26.419   2.861  50.540  1.00  0.00    -0.002 C 
HETATM    8  C6  UNL     1      27.134   2.525  51.576  1.00  0.00     0.003 C 
HETATM    9  C7  UNL     1      27.165   2.124  53.000  1.00  0.00     0.299 C 
HETATM   10  N1  UNL     1      27.784   0.812  53.141  1.00  0.00     0.103 N 
HETATM   11  C8  UNL     1      27.882   0.424  54.514  1.00  0.00     0.392 C 
HETATM   12  N2  UNL     1      26.599   0.424  55.183  1.00  0.00    -0.377 N 
HETATM   13  C9  UNL     1      25.621  -0.413  54.576  1.00  0.00     0.066 C 
HETATM   14  C10 UNL     1      24.465  -0.807  54.092  1.00  0.00     0.058 C 
HETATM   15  C11 UNL     1      23.057  -0.407  53.852  1.00  0.00    -0.020 C 
HETATM   16  C12 UNL     1      21.884   0.272  53.789  1.00  0.00    -0.030 C 
HETATM   17  C13 UNL     1      20.749  -0.433  53.192  1.00  0.00     0.027 C 
HETATM   18  C14 UNL     1      20.164   0.237  52.016  1.00  0.00     0.004 C 
HETATM   19  C15 UNL     1      19.544   1.549  52.308  1.00  0.00     0.005 C 
HETATM   20  C16 UNL     1      20.527   2.611  52.704  1.00  0.00     0.037 C 
HETATM   21  H1  UNL     1      19.894   3.419  50.281  1.00  0.00     0.000 HD
HETATM   22  H8  UNL     1      28.776   0.934  52.780  1.00  0.00     0.318 HD
HETATM   23  H11 UNL     1      25.803   0.600  55.832  1.00  0.00     0.160 HD
ENDROOT
TORSDOF 0
ENDMDL
MODEL 4
REMARK VINA RESULT:      -7.5      2.517      3.624
REMARK  0 active torsions:
REMARK  status: ('A' for Active; 'I' for Inactive)
ROOT
HETATM    1  O1  UNL     1      24.616  -0.056  54.095  1.00  0.00     0.000 OA
HETATM    2  C1  UNL     1      23.633  -0.205  53.099  1.00  0.00    -0.046 A 
HETATM    3  C2  UNL     1      24.383   0.800  52.877  1.00  0.00     0.107 A 
HETATM    4 CL1  UNL     1      25.735   1.540  53.658  1.00  0.00    -0.107 Cl
HETATM    5  C3  UNL     1      24.548   1.827  51.921  1.00  0.00     0.006 C 
HETATM    6  C4  UNL     1      24.763   2.791  51.098  1.00  0.00    -0.002 C 
HETATM    7  C5  UNL     1      24.604   3.639  49.952  1.00  0.00    -0.002 C 
HETATM    8  C6  UNL     1      23.783   3.648  48.942  1.00  0.00     0.003 C 
HETATM    9  C7  UNL     1      22.634   3.016  48.255  1.00  0.00     0.299 C 
HETATM   10  N1  UNL     1      21.530   3.961  48.143  1.00  0.00     0.103 N 
HETATM   11  C8  UNL     1      20.428   3.396  47.429  1.00  0.00     0.392 C 
HETATM   12  N2  UNL     1      19.950   2.168  48.027  1.00  0.00    -0.377 N 
HETATM   13  C9  UNL     1      19.553   2.295  49.389  1.00  0.00     0.066 C 
HETATM   14  C10 UNL     1      19.431   2.021  50.668  1.00  0.00     0.058 C 
HETATM   15  C11 UNL     1      19.797   1.060  51.736  1.00  0.00    -0.020 C 
HETATM   16  C12 UNL     1      20.302   0.013  52.435  1.00  0.00    -0.030 C 
HETATM   17  C13 UNL     1      19.996  -0.032  53.865  1.00  0.00     0.027 C 
HETATM   18  C14 UNL     1      21.179  -0.035  54.745  1.00  0.00     0.004 C 
HETATM   19  C15 UNL     1      22.033  -1.236  54.614  1.00  0.00     0.005 C 
HETATM   20  C16 UNL     1      22.735  -1.342  53.293  1.00  0.00     0.037 C 
HETATM   21  H1  UNL     1      24.749  -0.702  54.860  1.00  0.00     0.000 HD
HETATM   22  H8  UNL     1      21.908   4.759  47.553  1.00  0.00     0.318 HD
HETATM   23  H11 UNL     1      19.662   1.184  48.210  1.00  0.00     0.160 HD
ENDROOT
TORSDOF 0
ENDMDL
MODEL 5
REMARK VINA RESULT:      -7.5      2.148      4.770
REMARK  0 active torsions:
REMARK  status: ('A' for Active; 'I' for Inactive)
ROOT
HETATM    1  O1  UNL     1      23.543  -1.004  54.046  1.00  0.00     0.000 OA
HETATM    2  C1  UNL     1      24.189   0.231  53.851  1.00  0.00    -0.046 A 
HETATM    3  C2  UNL     1      22.975   0.266  53.467  1.00  0.00     0.107 A 
HETATM    4 CL1  UNL     1      21.654  -0.847  53.415  1.00  0.00    -0.107 Cl
HETATM    5  C3  UNL     1      22.052   1.175  52.904  1.00  0.00     0.006 C 
HETATM    6  C4  UNL     1      21.154   1.941  52.393  1.00  0.00    -0.002 C 
HETATM    7  C5  UNL     1      20.548   3.119  51.845  1.00  0.00    -0.002 C 
HETATM    8  C6  UNL     1      20.973   4.327  51.608  1.00  0.00     0.003 C 
HETATM    9  C7  UNL     1      22.091   5.295  51.660  1.00  0.00     0.299 C 
HETATM   10  N1  UNL     1      22.409   5.772  50.321  1.00  0.00     0.103 N 
HETATM   11  C8  UNL     1      23.447   6.755  50.347  1.00  0.00     0.392 C 
HETATM   12  N2  UNL     1      24.653   6.270  50.983  1.00  0.00    -0.377 N 
HETATM   13  C9  UNL     1      25.197   5.095  50.390  1.00  0.00     0.066 C 
HETATM   14  C10 UNL     1      25.730   3.899  50.289  1.00  0.00     0.058 C 
HETATM   15  C11 UNL     1      26.220   2.728  51.056  1.00  0.00    -0.020 C 
HETATM   16  C12 UNL     1      26.565   1.863  52.043  1.00  0.00    -0.030 C 
HETATM   17  C13 UNL     1      27.149   0.589  51.625  1.00  0.00     0.027 C 
HETATM   18  C14 UNL     1      26.404  -0.602  52.075  1.00  0.00     0.004 C 
HETATM   19  C15 UNL     1      26.377  -0.785  53.543  1.00  0.00     0.005 C 
HETATM   20  C16 UNL     1      25.588   0.261  54.272  1.00  0.00     0.037 C 
HETATM   21  H1  UNL     1      23.971  -1.803  54.492  1.00  0.00     0.000 HD
HETATM   22  H8  UNL     1      21.527   6.259  49.984  1.00  0.00     0.318 HD
HETATM   23  H11 UNL     1      25.479   6.137  51.603  1.00  0.00     0.160 HD
ENDROOT
TORSDOF 0
ENDMDL
MODEL 6
REMARK VINA RESULT:      -7.5      3.951      6.307
REMARK  0 active torsions:
REMARK  status: ('A' for Active; 'I' for Inactive)
ROOT
HETATM    1  O1  UNL     1      25.546   5.457  48.683  1.00  0.00     0.000 OA
HETATM    2  C1  UNL     1      24.522   4.967  49.515  1.00  0.00    -0.046 A 
HETATM    3  C2  UNL     1      25.604   4.311  49.660  1.00  0.00     0.107 A 
HETATM    4 CL1  UNL     1      27.193   4.367  48.983  1.00  0.00    -0.107 Cl
HETATM    5  C3  UNL     1      26.113   3.231  50.415  1.00  0.00     0.006 C 
HETATM    6  C4  UNL     1      26.650   2.259  51.062  1.00  0.00    -0.002 C 
HETATM    7  C5  UNL     1      26.778   1.166  51.983  1.00  0.00    -0.002 C 
HETATM    8  C6  UNL     1      25.965   0.595  52.824  1.00  0.00     0.003 C 
HETATM    9  C7  UNL     1      24.613   0.545  53.424  1.00  0.00     0.299 C 
HETATM   10  N1  UNL     1      23.996  -0.751  53.171  1.00  0.00     0.103 N 
HETATM   11  C8  UNL     1      22.711  -0.849  53.790  1.00  0.00     0.392 C 
HETATM   12  N2  UNL     1      21.811   0.201  53.369  1.00  0.00    -0.377 N 
HETATM   13  C9  UNL     1      21.599   0.263  51.962  1.00  0.00     0.066 C 
HETATM   14  C10 UNL     1      21.465   0.768  50.756  1.00  0.00     0.058 C 
HETATM   15  C11 UNL     1      21.472   2.023  49.966  1.00  0.00    -0.020 C 
HETATM   16  C12 UNL     1      21.545   3.319  49.573  1.00  0.00    -0.030 C 
HETATM   17  C13 UNL     1      21.350   3.585  48.148  1.00  0.00     0.027 C 
HETATM   18  C14 UNL     1      22.484   4.260  47.490  1.00  0.00     0.004 C 
HETATM   19  C15 UNL     1      22.750   5.628  47.986  1.00  0.00     0.005 C 
HETATM   20  C16 UNL     1      23.250   5.676  49.399  1.00  0.00     0.037 C 
HETATM   21  H1  UNL     1      25.453   6.268  48.087  1.00  0.00     0.000 HD
HETATM   22  H8  UNL     1      24.629  -1.457  53.651  1.00  0.00     0.318 HD
HETATM   23  H11 UNL     1      21.153   1.009  53.334  1.00  0.00     0.160 HD
ENDROOT
TORSDOF 0
ENDMDL
MODEL 7
REMARK VINA RESULT:      -7.4      3.369      6.141
REMARK  0 active torsions:
REMARK  status: ('A' for Active; 'I' for Inactive)
ROOT
HETATM    1  O1  UNL     1      27.169   1.701  51.578  1.00  0.00     0.000 OA
HETATM    2  C1  UNL     1      26.264   0.683  51.932  1.00  0.00    -0.046 A 
HETATM    3  C2  UNL     1      25.668   1.698  51.446  1.00  0.00     0.107 A 
HETATM    4 CL1  UNL     1      26.141   3.242  50.829  1.00  0.00    -0.107 Cl
HETATM    5  C3  UNL     1      24.359   2.128  51.134  1.00  0.00     0.006 C 
HETATM    6  C4  UNL     1      23.201   2.593  50.823  1.00  0.00    -0.002 C 
HETATM    7  C5  UNL     1      21.778   2.651  50.657  1.00  0.00    -0.002 C 
HETATM    8  C6  UNL     1      20.805   1.822  50.907  1.00  0.00     0.003 C 
HETATM    9  C7  UNL     1      20.387   0.498  51.418  1.00  0.00     0.299 C 
HETATM   10  N1  UNL     1      19.485   0.656  52.552  1.00  0.00     0.103 N 
HETATM   11  C8  UNL     1      19.017  -0.608  53.030  1.00  0.00     0.392 C 
HETATM   12  N2  UNL     1      20.098  -1.497  53.396  1.00  0.00    -0.377 N 
HETATM   13  C9  UNL     1      20.981  -0.972  54.383  1.00  0.00     0.066 C 
HETATM   14  C10 UNL     1      22.101  -0.661  54.995  1.00  0.00     0.058 C 
HETATM   15  C11 UNL     1      23.580  -0.745  54.920  1.00  0.00    -0.020 C 
HETATM   16  C12 UNL     1      24.857  -0.995  54.537  1.00  0.00    -0.030 C 
HETATM   17  C13 UNL     1      25.915  -0.528  55.433  1.00  0.00     0.027 C 
HETATM   18  C14 UNL     1      26.867   0.415  54.817  1.00  0.00     0.004 C 
HETATM   19  C15 UNL     1      27.676  -0.164  53.723  1.00  0.00     0.005 C 
HETATM   20  C16 UNL     1      26.883  -0.514  52.499  1.00  0.00     0.037 C 
HETATM   21  H1  UNL     1      28.174   1.615  51.646  1.00  0.00     0.000 HD
HETATM   22  H8  UNL     1      18.643   1.175  52.165  1.00  0.00     0.318 HD
HETATM   23  H11 UNL     1      20.757  -2.300  53.475  1.00  0.00     0.160 HD
ENDROOT
TORSDOF 0
ENDMDL
MODEL 8
REMARK VINA RESULT:      -7.4      3.654      6.728
REMARK  0 active torsions:
REMARK  status: ('A' for Active; 'I' for Inactive)
ROOT
HETATM    1  O1  UNL     1      25.697   3.995  51.223  1.00  0.00     0.000 OA
HETATM    2  C1  UNL     1      25.366   2.646  51.451  1.00  0.00    -0.046 A 
HETATM    3  C2  UNL     1      24.348   3.406  51.542  1.00  0.00     0.107 A 
HETATM    4 CL1  UNL     1      24.042   5.100  51.388  1.00  0.00    -0.107 Cl
HETATM    5  C3  UNL     1      22.961   3.318  51.796  1.00  0.00     0.006 C 
HETATM    6  C4  UNL     1      21.695   3.322  52.018  1.00  0.00    -0.002 C 
HETATM    7  C5  UNL     1      20.380   2.827  52.306  1.00  0.00    -0.002 C 
HETATM    8  C6  UNL     1      19.890   1.641  52.527  1.00  0.00     0.003 C 
HETATM    9  C7  UNL     1      20.135   0.186  52.647  1.00  0.00     0.299 C 
HETATM   10  N1  UNL     1      19.763  -0.280  53.977  1.00  0.00     0.103 N 
HETATM   11  C8  UNL     1      19.933  -1.695  54.102  1.00  0.00     0.392 C 
HETATM   12  N2  UNL     1      21.284  -2.119  53.805  1.00  0.00    -0.377 N 
HETATM   13  C9  UNL     1      22.283  -1.499  54.609  1.00  0.00     0.066 C 
HETATM   14  C10 UNL     1      23.403  -0.894  54.934  1.00  0.00     0.058 C 
HETATM   15  C11 UNL     1      24.677  -0.348  54.406  1.00  0.00    -0.020 C 
HETATM   16  C12 UNL     1      25.703   0.033  53.604  1.00  0.00    -0.030 C 
HETATM   17  C13 UNL     1      26.835   0.692  54.256  1.00  0.00     0.027 C 
HETATM   18  C14 UNL     1      27.125   2.048  53.754  1.00  0.00     0.004 C 
HETATM   19  C15 UNL     1      27.561   2.095  52.341  1.00  0.00     0.005 C 
HETATM   20  C16 UNL     1      26.491   1.717  51.361  1.00  0.00     0.037 C 
HETATM   21  H1  UNL     1      26.619   4.315  50.959  1.00  0.00     0.000 HD
HETATM   22  H8  UNL     1      18.722  -0.083  54.058  1.00  0.00     0.318 HD
HETATM   23  H11 UNL     1      22.129  -2.579  53.405  1.00  0.00     0.160 HD
ENDROOT
TORSDOF 0
ENDMDL
MODEL 9
REMARK VINA RESULT:      -7.3      3.464      6.050
REMARK  0 active torsions:
REMARK  status: ('A' for Active; 'I' for Inactive)
ROOT
HETATM    1  O1  UNL     1      25.799   2.712  52.419  1.00  0.00     0.000 OA
HETATM    2  C1  UNL     1      24.433   2.959  52.188  1.00  0.00    -0.046 A 
HETATM    3  C2  UNL     1      24.620   1.841  52.771  1.00  0.00     0.107 A 
HETATM    4 CL1  UNL     1      25.987   0.945  53.332  1.00  0.00    -0.107 Cl
HETATM    5  C3  UNL     1      23.872   0.755  53.277  1.00  0.00     0.006 C 
HETATM    6  C4  UNL     1      23.265  -0.270  53.761  1.00  0.00    -0.002 C 
HETATM    7  C5  UNL     1      22.189  -1.140  54.135  1.00  0.00    -0.002 C 
HETATM    8  C6  UNL     1      20.893  -1.075  54.020  1.00  0.00     0.003 C 
HETATM    9  C7  UNL     1      19.713  -0.310  53.558  1.00  0.00     0.299 C 
HETATM   10  N1  UNL     1      18.967  -1.081  52.571  1.00  0.00     0.103 N 
HETATM   11  C8  UNL     1      17.787  -0.391  52.150  1.00  0.00     0.392 C 
HETATM   12  N2  UNL     1      18.073   0.923  51.617  1.00  0.00    -0.377 N 
HETATM   13  C9  UNL     1      18.980   0.925  50.519  1.00  0.00     0.066 C 
HETATM   14  C10 UNL     1      19.988   1.278  49.753  1.00  0.00     0.058 C 
HETATM   15  C11 UNL     1      21.120   2.225  49.609  1.00  0.00    -0.020 C 
HETATM   16  C12 UNL     1      22.026   3.216  49.796  1.00  0.00    -0.030 C 
HETATM   17  C13 UNL     1      23.047   3.378  48.761  1.00  0.00     0.027 C 
HETATM   18  C14 UNL     1      24.434   3.244  49.243  1.00  0.00     0.004 C 
HETATM   19  C15 UNL     1      24.850   4.294  50.199  1.00  0.00     0.005 C 
HETATM   20  C16 UNL     1      24.146   4.227  51.521  1.00  0.00     0.037 C 
HETATM   21  H1  UNL     1      26.537   3.367  52.204  1.00  0.00     0.000 HD
HETATM   22  H8  UNL     1      18.651  -1.956  53.084  1.00  0.00     0.318 HD
HETATM   23  H11 UNL     1      18.108   1.947  51.431  1.00  0.00     0.160 HD
ENDROOT
TORSDOF 0
ENDMDL
