MODEL 1
REMARK VINA RESULT:      -8.5      0.000      0.000
REMARK  7 active torsions:
REMARK  status: ('A' for Active; 'I' for Inactive)
REMARK    1  A    between atoms: C4_6  and  S1_7 
REMARK    2  A    between atoms: S1_7  and  C5_8 
REMARK    3  A    between atoms: C8_11  and  N3_12 
REMARK    4  A    between atoms: N3_12  and  C9_13 
REMARK    5  A    between atoms: C12_16  and  N4_17 
REMARK    6  A    between atoms: N4_17  and  C13_18 
REMARK    7  A    between atoms: C13_18  and  C14_19 
ROOT
HETATM    1  C9  UNL     1      23.038   1.169  52.813  1.00  0.00     0.056 C 
HETATM    2  C10 UNL     1      24.372   1.198  52.649  1.00  0.00     0.033 C 
HETATM    3  C11 UNL     1      25.445   0.283  53.044  1.00  0.00     0.027 C 
HETATM    4  C12 UNL     1      25.541  -0.521  54.086  1.00  0.00     0.011 C 
HETATM    5  C15 UNL     1      24.892  -0.998  55.300  1.00  0.00     0.118 C 
HETATM    6  C16 UNL     1      23.455  -1.244  55.118  1.00  0.00     0.071 A 
HETATM    7  N5  UNL     1      22.300  -1.803  55.298  1.00  0.00    -0.247 NA
HETATM    8  C17 UNL     1      22.317  -0.754  54.358  1.00  0.00     0.105 A 
HETATM    9  C18 UNL     1      22.134   0.193  53.456  1.00  0.00     0.102 C 
HETATM   10  C19 UNL     1      20.781   0.291  53.016  1.00  0.00     0.104 C 
HETATM   11  N6  UNL     1      19.684   0.380  52.677  1.00  0.00    -0.191 NA
ENDROOT
BRANCH   1  12
HETATM   12  N3  UNL     1      22.321   2.273  52.275  1.00  0.00    -0.355 N 
HETATM   13  H8  UNL     1      21.374   2.326  52.659  1.00  0.00     0.166 HD
BRANCH  12  14
HETATM   14  C8  UNL     1      22.848   3.178  51.334  1.00  0.00     0.034 A 
HETATM   15  C7  UNL     1      22.998   2.802  50.016  1.00  0.00     0.031 A 
HETATM   16  C6  UNL     1      23.520   3.722  49.131  1.00  0.00     0.023 A 
HETATM   17  C5  UNL     1      23.882   4.986  49.555  1.00  0.00     0.030 A 
HETATM   18  C21 UNL     1      23.727   5.357  50.884  1.00  0.00     0.053 A 
HETATM   19  C20 UNL     1      23.201   4.432  51.786  1.00  0.00     0.054 A 
HETATM   20 CL1  UNL     1      24.153   6.937  51.532  1.00  0.00    -0.083 Cl
BRANCH  17  21
HETATM   21  S1  UNL     1      24.566   6.283  48.534  1.00  0.00    -0.051 SA
BRANCH  21  22
HETATM   22  C4  UNL     1      26.342   6.091  48.438  1.00  0.00     0.172 A 
HETATM   23  N1  UNL     1      27.208   7.059  48.108  1.00  0.00    -0.339 N 
HETATM   24  C1  UNL     1      26.939   8.433  47.764  1.00  0.00     0.158 C 
HETATM   25  C2  UNL     1      28.472   6.587  48.130  1.00  0.00     0.112 A 
HETATM   26  C3  UNL     1      28.372   5.250  48.493  1.00  0.00     0.136 A 
HETATM   27  N2  UNL     1      27.070   4.967  48.678  1.00  0.00    -0.235 NA
ENDBRANCH  21  22
ENDBRANCH  17  21
ENDBRANCH  12  14
ENDBRANCH   1  12
BRANCH   4  28
HETATM   28  N4  UNL     1      26.832  -1.145  53.893  1.00  0.00    -0.387 N 
HETATM   29  H11 UNL     1      26.610  -2.152  54.123  1.00  0.00     0.159 HD
BRANCH  28  30
HETATM   30  C13 UNL     1      28.175  -0.764  53.510  1.00  0.00     0.188 C 
BRANCH  30  31
HETATM   31  C14 UNL     1      28.843  -0.047  54.641  1.00  0.00     0.250 C 
HETATM   32  O1  UNL     1      28.572   1.078  55.001  1.00  0.00    -0.305 OA
ENDBRANCH  30  31
ENDBRANCH  28  30
ENDBRANCH   4  28
TORSDOF 7
ENDMDL
MODEL 2
REMARK VINA RESULT:      -8.5      2.285      2.833
REMARK  7 active torsions:
REMARK  status: ('A' for Active; 'I' for Inactive)
REMARK    1  A    between atoms: C4_6  and  S1_7 
REMARK    2  A    between atoms: S1_7  and  C5_8 
REMARK    3  A    between atoms: C8_11  and  N3_12 
REMARK    4  A    between atoms: N3_12  and  C9_13 
REMARK    5  A    between atoms: C12_16  and  N4_17 
REMARK    6  A    between atoms: N4_17  and  C13_18 
REMARK    7  A    between atoms: C13_18  and  C14_19 
ROOT
HETATM    1  C9  UNL     1      24.753   2.150  51.735  1.00  0.00     0.056 C 
HETATM    2  C10 UNL     1      26.014   2.066  52.198  1.00  0.00     0.033 C 
HETATM    3  C11 UNL     1      26.742   1.025  52.923  1.00  0.00     0.027 C 
HETATM    4  C12 UNL     1      26.313   0.131  53.794  1.00  0.00     0.011 C 
HETATM    5  C15 UNL     1      25.158  -0.384  54.518  1.00  0.00     0.118 C 
HETATM    6  C16 UNL     1      23.955  -0.477  53.679  1.00  0.00     0.071 A 
HETATM    7  N5  UNL     1      22.822  -0.938  53.249  1.00  0.00    -0.247 NA
HETATM    8  C17 UNL     1      23.317   0.180  52.550  1.00  0.00     0.105 A 
HETATM    9  C18 UNL     1      23.612   1.212  51.781  1.00  0.00     0.102 C 
HETATM   10  C19 UNL     1      22.619   1.474  50.791  1.00  0.00     0.104 C 
HETATM   11  N6  UNL     1      21.805   1.694  50.006  1.00  0.00    -0.191 NA
ENDROOT
BRANCH   1  12
HETATM   12  N3  UNL     1      24.415   3.357  51.066  1.00  0.00    -0.355 N 
HETATM   13  H8  UNL     1      23.430   3.597  51.204  1.00  0.00     0.166 HD
BRANCH  12  14
HETATM   14  C8  UNL     1      25.321   4.124  50.308  1.00  0.00     0.034 A 
HETATM   15  C7  UNL     1      26.348   3.510  49.622  1.00  0.00     0.031 A 
HETATM   16  C6  UNL     1      27.210   4.303  48.894  1.00  0.00     0.023 A 
HETATM   17  C5  UNL     1      27.048   5.675  48.854  1.00  0.00     0.030 A 
HETATM   18  C21 UNL     1      26.011   6.285  49.547  1.00  0.00     0.053 A 
HETATM   19  C20 UNL     1      25.134   5.490  50.286  1.00  0.00     0.054 A 
HETATM   20 CL1  UNL     1      25.711   8.018  49.565  1.00  0.00    -0.083 Cl
BRANCH  17  21
HETATM   21  S1  UNL     1      28.076   6.830  47.960  1.00  0.00    -0.051 SA
BRANCH  21  22
HETATM   22  C4  UNL     1      29.763   6.699  48.540  1.00  0.00     0.172 A 
HETATM   23  N1  UNL     1      30.513   7.721  48.976  1.00  0.00    -0.339 N 
HETATM   24  C1  UNL     1      30.165   9.116  49.082  1.00  0.00     0.158 C 
HETATM   25  C2  UNL     1      31.737   7.284  49.341  1.00  0.00     0.112 A 
HETATM   26  C3  UNL     1      31.735   5.914  49.112  1.00  0.00     0.136 A 
HETATM   27  N2  UNL     1      30.527   5.576  48.627  1.00  0.00    -0.235 NA
ENDBRANCH  21  22
ENDBRANCH  17  21
ENDBRANCH  12  14
ENDBRANCH   1  12
BRANCH   4  28
HETATM   28  N4  UNL     1      27.518  -0.594  54.134  1.00  0.00    -0.387 N 
HETATM   29  H11 UNL     1      27.118  -1.446  54.613  1.00  0.00     0.159 HD
BRANCH  28  30
HETATM   30  C13 UNL     1      28.951  -0.444  53.990  1.00  0.00     0.188 C 
BRANCH  30  31
HETATM   31  C14 UNL     1      29.543  -1.710  53.453  1.00  0.00     0.250 C 
HETATM   32  O1  UNL     1      28.961  -2.769  53.385  1.00  0.00    -0.305 OA
ENDBRANCH  30  31
ENDBRANCH  28  30
ENDBRANCH   4  28
TORSDOF 7
ENDMDL
MODEL 3
REMARK VINA RESULT:      -8.0      1.442      2.021
REMARK  7 active torsions:
REMARK  status: ('A' for Active; 'I' for Inactive)
REMARK    1  A    between atoms: C4_6  and  S1_7 
REMARK    2  A    between atoms: S1_7  and  C5_8 
REMARK    3  A    between atoms: C8_11  and  N3_12 
REMARK    4  A    between atoms: N3_12  and  C9_13 
REMARK    5  A    between atoms: C12_16  and  N4_17 
REMARK    6  A    between atoms: N4_17  and  C13_18 
REMARK    7  A    between atoms: C13_18  and  C14_19 
ROOT
HETATM    1  C9  UNL     1      22.656   1.081  52.933  1.00  0.00     0.056 C 
HETATM    2  C10 UNL     1      23.975   1.232  52.721  1.00  0.00     0.033 C 
HETATM    3  C11 UNL     1      25.138   0.404  53.046  1.00  0.00     0.027 C 
HETATM    4  C12 UNL     1      25.345  -0.417  54.058  1.00  0.00     0.011 C 
HETATM    5  C15 UNL     1      24.789  -0.985  55.278  1.00  0.00     0.118 C 
HETATM    6  C16 UNL     1      23.373  -1.351  55.143  1.00  0.00     0.071 A 
HETATM    7  N5  UNL     1      22.278  -2.014  55.347  1.00  0.00    -0.247 NA
HETATM    8  C17 UNL     1      22.167  -0.941  54.441  1.00  0.00     0.105 A 
HETATM    9  C18 UNL     1      21.866   0.011  53.578  1.00  0.00     0.102 C 
HETATM   10  C19 UNL     1      20.494   0.002  53.191  1.00  0.00     0.104 C 
HETATM   11  N6  UNL     1      19.380   0.004  52.896  1.00  0.00    -0.191 NA
ENDROOT
BRANCH   1  12
HETATM   12  N3  UNL     1      21.825   2.133  52.457  1.00  0.00    -0.355 N 
HETATM   13  H8  UNL     1      20.901   2.105  52.896  1.00  0.00     0.166 HD
BRANCH  12  14
HETATM   14  C8  UNL     1      22.224   3.088  51.503  1.00  0.00     0.034 A 
HETATM   15  C7  UNL     1      22.602   4.353  51.902  1.00  0.00     0.031 A 
HETATM   16  C6  UNL     1      22.985   5.255  50.931  1.00  0.00     0.023 A 
HETATM   17  C5  UNL     1      22.990   4.898  49.596  1.00  0.00     0.030 A 
HETATM   18  C21 UNL     1      22.609   3.622  49.203  1.00  0.00     0.053 A 
HETATM   19  C20 UNL     1      22.220   2.704  50.179  1.00  0.00     0.054 A 
HETATM   20 CL1  UNL     1      22.579   3.062  47.535  1.00  0.00    -0.083 Cl
BRANCH  17  21
HETATM   21  S1  UNL     1      23.459   5.948  48.229  1.00  0.00    -0.051 SA
BRANCH  21  22
HETATM   22  C4  UNL     1      24.779   7.040  48.741  1.00  0.00     0.172 A 
HETATM   23  N1  UNL     1      26.047   6.668  48.967  1.00  0.00    -0.339 N 
HETATM   24  C1  UNL     1      26.637   5.357  48.858  1.00  0.00     0.158 C 
HETATM   25  C2  UNL     1      26.791   7.732  49.338  1.00  0.00     0.112 A 
HETATM   26  C3  UNL     1      25.925   8.818  49.341  1.00  0.00     0.136 A 
HETATM   27  N2  UNL     1      24.708   8.378  48.975  1.00  0.00    -0.235 NA
ENDBRANCH  21  22
ENDBRANCH  17  21
ENDBRANCH  12  14
ENDBRANCH   1  12
BRANCH   4  28
HETATM   28  N4  UNL     1      26.677  -0.920  53.797  1.00  0.00    -0.387 N 
HETATM   29  H11 UNL     1      26.590  -1.918  54.133  1.00  0.00     0.159 HD
BRANCH  28  30
HETATM   30  C13 UNL     1      27.931  -0.440  53.256  1.00  0.00     0.188 C 
BRANCH  30  31
HETATM   31  C14 UNL     1      28.800   0.071  54.363  1.00  0.00     0.250 C 
HETATM   32  O1  UNL     1      28.484   0.943  55.141  1.00  0.00    -0.305 OA
ENDBRANCH  30  31
ENDBRANCH  28  30
ENDBRANCH   4  28
TORSDOF 7
ENDMDL
MODEL 4
REMARK VINA RESULT:      -7.9      3.777      8.380
REMARK  7 active torsions:
REMARK  status: ('A' for Active; 'I' for Inactive)
REMARK    1  A    between atoms: C4_6  and  S1_7 
REMARK    2  A    between atoms: S1_7  and  C5_8 
REMARK    3  A    between atoms: C8_11  and  N3_12 
REMARK    4  A    between atoms: N3_12  and  C9_13 
REMARK    5  A    between atoms: C12_16  and  N4_17 
REMARK    6  A    between atoms: N4_17  and  C13_18 
REMARK    7  A    between atoms: C13_18  and  C14_19 
ROOT
HETATM    1  C9  UNL     1      25.963   5.092  49.308  1.00  0.00     0.056 C 
HETATM    2  C10 UNL     1      27.151   4.682  48.827  1.00  0.00     0.033 C 
HETATM    3  C11 UNL     1      28.364   5.396  48.425  1.00  0.00     0.027 C 
HETATM    4  C12 UNL     1      28.512   6.598  47.901  1.00  0.00     0.011 C 
HETATM    5  C15 UNL     1      27.832   7.800  47.438  1.00  0.00     0.118 C 
HETATM    6  C16 UNL     1      26.739   8.215  48.328  1.00  0.00     0.071 A 
HETATM    7  N5  UNL     1      25.928   9.019  48.940  1.00  0.00    -0.247 NA
HETATM    8  C17 UNL     1      25.746   7.652  49.228  1.00  0.00     0.105 A 
HETATM    9  C18 UNL     1      25.424   6.432  49.619  1.00  0.00     0.102 C 
HETATM   10  C19 UNL     1      24.327   6.408  50.530  1.00  0.00     0.104 C 
HETATM   11  N6  UNL     1      23.428   6.392  51.250  1.00  0.00    -0.191 NA
ENDROOT
BRANCH   1  12
HETATM   12  N3  UNL     1      25.017   4.068  49.584  1.00  0.00    -0.355 N 
HETATM   13  H8  UNL     1      24.153   4.204  49.052  1.00  0.00     0.166 HD
BRANCH  12  14
HETATM   14  C8  UNL     1      25.240   3.003  50.477  1.00  0.00     0.034 A 
HETATM   15  C7  UNL     1      26.522   2.559  50.725  1.00  0.00     0.031 A 
HETATM   16  C6  UNL     1      26.691   1.513  51.607  1.00  0.00     0.023 A 
HETATM   17  C5  UNL     1      25.604   0.926  52.226  1.00  0.00     0.030 A 
HETATM   18  C21 UNL     1      24.316   1.379  51.973  1.00  0.00     0.053 A 
HETATM   19  C20 UNL     1      24.137   2.437  51.081  1.00  0.00     0.054 A 
HETATM   20 CL1  UNL     1      22.863   0.708  52.704  1.00  0.00    -0.083 Cl
BRANCH  17  21
HETATM   21  S1  UNL     1      25.660  -0.429  53.388  1.00  0.00    -0.051 SA
BRANCH  21  22
HETATM   22  C4  UNL     1      27.294  -1.157  53.377  1.00  0.00     0.172 A 
HETATM   23  N1  UNL     1      28.395  -0.595  53.894  1.00  0.00    -0.339 N 
HETATM   24  C1  UNL     1      28.533   0.677  54.559  1.00  0.00     0.158 C 
HETATM   25  C2  UNL     1      29.462  -1.403  53.721  1.00  0.00     0.112 A 
HETATM   26  C3  UNL     1      28.984  -2.525  53.057  1.00  0.00     0.136 A 
HETATM   27  N2  UNL     1      27.665  -2.358  52.857  1.00  0.00    -0.235 NA
ENDBRANCH  21  22
ENDBRANCH  17  21
ENDBRANCH  12  14
ENDBRANCH   1  12
BRANCH   4  28
HETATM   28  N4  UNL     1      29.946   6.704  47.740  1.00  0.00    -0.387 N 
HETATM   29  H11 UNL     1      30.013   7.244  46.834  1.00  0.00     0.159 HD
BRANCH  28  30
HETATM   30  C13 UNL     1      31.149   6.298  48.435  1.00  0.00     0.188 C 
BRANCH  30  31
HETATM   31  C14 UNL     1      31.665   7.432  49.265  1.00  0.00     0.250 C 
HETATM   32  O1  UNL     1      32.702   8.021  49.060  1.00  0.00    -0.305 OA
ENDBRANCH  30  31
ENDBRANCH  28  30
ENDBRANCH   4  28
TORSDOF 7
ENDMDL
MODEL 5
REMARK VINA RESULT:      -7.7      2.527      3.170
REMARK  7 active torsions:
REMARK  status: ('A' for Active; 'I' for Inactive)
REMARK    1  A    between atoms: C4_6  and  S1_7 
REMARK    2  A    between atoms: S1_7  and  C5_8 
REMARK    3  A    between atoms: C8_11  and  N3_12 
REMARK    4  A    between atoms: N3_12  and  C9_13 
REMARK    5  A    between atoms: C12_16  and  N4_17 
REMARK    6  A    between atoms: N4_17  and  C13_18 
REMARK    7  A    between atoms: C13_18  and  C14_19 
ROOT
HETATM    1  C9  UNL     1      22.736   0.904  52.806  1.00  0.00     0.056 C 
HETATM    2  C10 UNL     1      24.041   1.049  52.513  1.00  0.00     0.033 C 
HETATM    3  C11 UNL     1      25.233   0.274  52.862  1.00  0.00     0.027 C 
HETATM    4  C12 UNL     1      25.505  -0.435  53.941  1.00  0.00     0.011 C 
HETATM    5  C15 UNL     1      25.020  -0.881  55.240  1.00  0.00     0.118 C 
HETATM    6  C16 UNL     1      23.605  -1.278  55.214  1.00  0.00     0.071 A 
HETATM    7  N5  UNL     1      22.534  -1.930  55.541  1.00  0.00    -0.247 NA
HETATM    8  C17 UNL     1      22.359  -0.958  54.537  1.00  0.00     0.105 A 
HETATM    9  C18 UNL     1      21.999  -0.104  53.596  1.00  0.00     0.102 C 
HETATM   10  C19 UNL     1      20.610  -0.171  53.283  1.00  0.00     0.104 C 
HETATM   11  N6  UNL     1      19.483  -0.214  53.046  1.00  0.00    -0.191 NA
ENDROOT
BRANCH   1  12
HETATM   12  N3  UNL     1      21.864   1.890  52.268  1.00  0.00    -0.355 N 
HETATM   13  H8  UNL     1      20.883   1.643  52.421  1.00  0.00     0.166 HD
BRANCH  12  14
HETATM   14  C8  UNL     1      22.297   3.056  51.608  1.00  0.00     0.034 A 
HETATM   15  C7  UNL     1      22.775   4.128  52.333  1.00  0.00     0.031 A 
HETATM   16  C6  UNL     1      23.187   5.248  51.643  1.00  0.00     0.023 A 
HETATM   17  C5  UNL     1      23.124   5.293  50.263  1.00  0.00     0.030 A 
HETATM   18  C21 UNL     1      22.643   4.209  49.541  1.00  0.00     0.053 A 
HETATM   19  C20 UNL     1      22.223   3.072  50.232  1.00  0.00     0.054 A 
HETATM   20 CL1  UNL     1      22.519   4.158  47.787  1.00  0.00    -0.083 Cl
BRANCH  17  21
HETATM   21  S1  UNL     1      23.620   6.665  49.232  1.00  0.00    -0.051 SA
BRANCH  21  22
HETATM   22  C4  UNL     1      22.353   7.927  49.268  1.00  0.00     0.172 A 
HETATM   23  N1  UNL     1      22.466   9.152  48.736  1.00  0.00    -0.339 N 
HETATM   24  C1  UNL     1      23.583   9.733  48.034  1.00  0.00     0.158 C 
HETATM   25  C2  UNL     1      21.332   9.858  48.936  1.00  0.00     0.112 A 
HETATM   26  C3  UNL     1      20.477   9.013  49.632  1.00  0.00     0.136 A 
HETATM   27  N2  UNL     1      21.114   7.845  49.824  1.00  0.00    -0.235 NA
ENDBRANCH  21  22
ENDBRANCH  17  21
ENDBRANCH  12  14
ENDBRANCH   1  12
BRANCH   4  28
HETATM   28  N4  UNL     1      26.831  -0.944  53.666  1.00  0.00    -0.387 N 
HETATM   29  H11 UNL     1      26.622  -1.958  53.451  1.00  0.00     0.159 HD
BRANCH  28  30
HETATM   30  C13 UNL     1      28.193  -0.457  53.622  1.00  0.00     0.188 C 
BRANCH  30  31
HETATM   31  C14 UNL     1      28.492   0.329  54.861  1.00  0.00     0.250 C 
HETATM   32  O1  UNL     1      29.167   1.334  54.895  1.00  0.00    -0.305 OA
ENDBRANCH  30  31
ENDBRANCH  28  30
ENDBRANCH   4  28
TORSDOF 7
ENDMDL
MODEL 6
REMARK VINA RESULT:      -7.7      2.219      2.807
REMARK  7 active torsions:
REMARK  status: ('A' for Active; 'I' for Inactive)
REMARK    1  A    between atoms: C4_6  and  S1_7 
REMARK    2  A    between atoms: S1_7  and  C5_8 
REMARK    3  A    between atoms: C8_11  and  N3_12 
REMARK    4  A    between atoms: N3_12  and  C9_13 
REMARK    5  A    between atoms: C12_16  and  N4_17 
REMARK    6  A    between atoms: N4_17  and  C13_18 
REMARK    7  A    between atoms: C13_18  and  C14_19 
ROOT
HETATM    1  C9  UNL     1      24.281   0.683  52.405  1.00  0.00     0.056 C 
HETATM    2  C10 UNL     1      25.484   1.013  51.904  1.00  0.00     0.033 C 
HETATM    3  C11 UNL     1      26.853   0.651  52.277  1.00  0.00     0.027 C 
HETATM    4  C12 UNL     1      27.369   0.368  53.458  1.00  0.00     0.011 C 
HETATM    5  C15 UNL     1      27.104   0.231  54.884  1.00  0.00     0.118 C 
HETATM    6  C16 UNL     1      25.833  -0.450  55.165  1.00  0.00     0.071 A 
HETATM    7  N5  UNL     1      24.982  -1.192  55.802  1.00  0.00    -0.247 NA
HETATM    8  C17 UNL     1      24.501  -0.621  54.608  1.00  0.00     0.105 A 
HETATM    9  C18 UNL     1      23.874  -0.181  53.533  1.00  0.00     0.102 C 
HETATM   10  C19 UNL     1      22.525  -0.634  53.446  1.00  0.00     0.104 C 
HETATM   11  N6  UNL     1      21.430  -0.987  53.390  1.00  0.00    -0.191 NA
ENDROOT
BRANCH   1  12
HETATM   12  N3  UNL     1      23.156   1.255  51.749  1.00  0.00    -0.355 N 
HETATM   13  H8  UNL     1      22.484   0.536  51.467  1.00  0.00     0.166 HD
BRANCH  12  14
HETATM   14  C8  UNL     1      22.990   2.633  51.516  1.00  0.00     0.034 A 
HETATM   15  C7  UNL     1      23.458   3.554  52.430  1.00  0.00     0.031 A 
HETATM   16  C6  UNL     1      23.272   4.893  52.159  1.00  0.00     0.023 A 
HETATM   17  C5  UNL     1      22.635   5.300  51.003  1.00  0.00     0.030 A 
HETATM   18  C21 UNL     1      22.167   4.367  50.087  1.00  0.00     0.053 A 
HETATM   19  C20 UNL     1      22.350   3.010  50.354  1.00  0.00     0.054 A 
HETATM   20 CL1  UNL     1      21.344   4.772  48.586  1.00  0.00    -0.083 Cl
BRANCH  17  21
HETATM   21  S1  UNL     1      22.322   6.989  50.513  1.00  0.00    -0.051 SA
BRANCH  21  22
HETATM   22  C4  UNL     1      23.407   7.429  49.161  1.00  0.00     0.172 A 
HETATM   23  N1  UNL     1      24.744   7.496  49.233  1.00  0.00    -0.339 N 
HETATM   24  C1  UNL     1      25.602   7.242  50.363  1.00  0.00     0.158 C 
HETATM   25  C2  UNL     1      25.262   7.855  48.038  1.00  0.00     0.112 A 
HETATM   26  C3  UNL     1      24.176   8.018  47.188  1.00  0.00     0.136 A 
HETATM   27  N2  UNL     1      23.058   7.754  47.887  1.00  0.00    -0.235 NA
ENDBRANCH  21  22
ENDBRANCH  17  21
ENDBRANCH  12  14
ENDBRANCH   1  12
BRANCH   4  28
HETATM   28  N4  UNL     1      28.756   0.098  53.148  1.00  0.00    -0.387 N 
HETATM   29  H11 UNL     1      28.902   0.715  52.303  1.00  0.00     0.159 HD
BRANCH  28  30
HETATM   30  C13 UNL     1      29.844  -0.710  53.656  1.00  0.00     0.188 C 
BRANCH  30  31
HETATM   31  C14 UNL     1      29.614  -2.148  53.309  1.00  0.00     0.250 C 
HETATM   32  O1  UNL     1      28.535  -2.696  53.318  1.00  0.00    -0.305 OA
ENDBRANCH  30  31
ENDBRANCH  28  30
ENDBRANCH   4  28
TORSDOF 7
ENDMDL
MODEL 7
REMARK VINA RESULT:      -7.6      3.182      5.328
REMARK  7 active torsions:
REMARK  status: ('A' for Active; 'I' for Inactive)
REMARK    1  A    between atoms: C4_6  and  S1_7 
REMARK    2  A    between atoms: S1_7  and  C5_8 
REMARK    3  A    between atoms: C8_11  and  N3_12 
REMARK    4  A    between atoms: N3_12  and  C9_13 
REMARK    5  A    between atoms: C12_16  and  N4_17 
REMARK    6  A    between atoms: N4_17  and  C13_18 
REMARK    7  A    between atoms: C13_18  and  C14_19 
ROOT
HETATM    1  C9  UNL     1      25.132   4.469  49.723  1.00  0.00     0.056 C 
HETATM    2  C10 UNL     1      26.271   3.795  49.962  1.00  0.00     0.033 C 
HETATM    3  C11 UNL     1      26.587   2.639  50.803  1.00  0.00     0.027 C 
HETATM    4  C12 UNL     1      26.057   2.243  51.945  1.00  0.00     0.011 C 
HETATM    5  C15 UNL     1      25.064   2.529  52.972  1.00  0.00     0.118 C 
HETATM    6  C16 UNL     1      23.779   2.973  52.415  1.00  0.00     0.071 A 
HETATM    7  N5  UNL     1      22.495   3.130  52.332  1.00  0.00    -0.247 NA
HETATM    8  C17 UNL     1      23.237   3.702  51.280  1.00  0.00     0.105 A 
HETATM    9  C18 UNL     1      23.751   4.300  50.221  1.00  0.00     0.102 C 
HETATM   10  C19 UNL     1      22.766   4.907  49.388  1.00  0.00     0.104 C 
HETATM   11  N6  UNL     1      21.969   5.413  48.728  1.00  0.00    -0.191 NA
ENDROOT
BRANCH   1  12
HETATM   12  N3  UNL     1      25.235   5.564  48.822  1.00  0.00    -0.355 N 
HETATM   13  H8  UNL     1      24.558   5.483  48.059  1.00  0.00     0.166 HD
BRANCH  12  14
HETATM   14  C8  UNL     1      26.153   6.622  48.962  1.00  0.00     0.034 A 
HETATM   15  C7  UNL     1      25.951   7.597  49.917  1.00  0.00     0.031 A 
HETATM   16  C6  UNL     1      26.876   8.613  50.016  1.00  0.00     0.023 A 
HETATM   17  C5  UNL     1      27.977   8.653  49.181  1.00  0.00     0.030 A 
HETATM   18  C21 UNL     1      28.174   7.668  48.223  1.00  0.00     0.053 A 
HETATM   19  C20 UNL     1      27.241   6.636  48.115  1.00  0.00     0.054 A 
HETATM   20 CL1  UNL     1      29.536   7.620  47.110  1.00  0.00    -0.083 Cl
BRANCH  17  21
HETATM   21  S1  UNL     1      29.258   9.899  49.188  1.00  0.00    -0.051 SA
BRANCH  21  22
HETATM   22  C4  UNL     1      28.588  11.447  48.596  1.00  0.00     0.172 A 
HETATM   23  N1  UNL     1      28.318  11.733  47.314  1.00  0.00    -0.339 N 
HETATM   24  C1  UNL     1      28.493  10.905  46.147  1.00  0.00     0.158 C 
HETATM   25  C2  UNL     1      27.822  12.984  47.206  1.00  0.00     0.112 A 
HETATM   26  C3  UNL     1      27.788  13.492  48.498  1.00  0.00     0.136 A 
HETATM   27  N2  UNL     1      28.256  12.544  49.329  1.00  0.00    -0.235 NA
ENDBRANCH  21  22
ENDBRANCH  17  21
ENDBRANCH  12  14
ENDBRANCH   1  12
BRANCH   4  28
HETATM   28  N4  UNL     1      26.807   1.045  52.251  1.00  0.00    -0.387 N 
HETATM   29  H11 UNL     1      26.499   0.403  51.470  1.00  0.00     0.159 HD
BRANCH  28  30
HETATM   30  C13 UNL     1      27.755   0.582  53.242  1.00  0.00     0.188 C 
BRANCH  30  31
HETATM   31  C14 UNL     1      28.747   1.662  53.542  1.00  0.00     0.250 C 
HETATM   32  O1  UNL     1      28.544   2.600  54.280  1.00  0.00    -0.305 OA
ENDBRANCH  30  31
ENDBRANCH  28  30
ENDBRANCH   4  28
TORSDOF 7
ENDMDL
MODEL 8
REMARK VINA RESULT:      -7.6      3.643      9.467
REMARK  7 active torsions:
REMARK  status: ('A' for Active; 'I' for Inactive)
REMARK    1  A    between atoms: C4_6  and  S1_7 
REMARK    2  A    between atoms: S1_7  and  C5_8 
REMARK    3  A    between atoms: C8_11  and  N3_12 
REMARK    4  A    between atoms: N3_12  and  C9_13 
REMARK    5  A    between atoms: C12_16  and  N4_17 
REMARK    6  A    between atoms: N4_17  and  C13_18 
REMARK    7  A    between atoms: C13_18  and  C14_19 
ROOT
HETATM    1  C9  UNL     1      28.489   7.396  48.494  1.00  0.00     0.056 C 
HETATM    2  C10 UNL     1      29.401   6.496  48.086  1.00  0.00     0.033 C 
HETATM    3  C11 UNL     1      30.863   6.518  48.018  1.00  0.00     0.027 C 
HETATM    4  C12 UNL     1      31.692   7.523  47.811  1.00  0.00     0.011 C 
HETATM    5  C15 UNL     1      31.809   8.953  47.558  1.00  0.00     0.118 C 
HETATM    6  C16 UNL     1      30.886   9.753  48.375  1.00  0.00     0.071 A 
HETATM    7  N5  UNL     1      30.452  10.772  49.049  1.00  0.00    -0.247 NA
HETATM    8  C17 UNL     1      29.569   9.676  48.986  1.00  0.00     0.105 A 
HETATM    9  C18 UNL     1      28.615   8.765  49.038  1.00  0.00     0.102 C 
HETATM   10  C19 UNL     1      27.470   9.195  49.772  1.00  0.00     0.104 C 
HETATM   11  N6  UNL     1      26.540   9.553  50.348  1.00  0.00    -0.191 NA
ENDROOT
BRANCH   1  12
HETATM   12  N3  UNL     1      27.129   6.990  48.403  1.00  0.00    -0.355 N 
HETATM   13  H8  UNL     1      26.591   7.624  47.806  1.00  0.00     0.166 HD
BRANCH  12  14
HETATM   14  C8  UNL     1      26.594   5.861  49.052  1.00  0.00     0.034 A 
HETATM   15  C7  UNL     1      27.168   4.620  48.874  1.00  0.00     0.031 A 
HETATM   16  C6  UNL     1      26.608   3.544  49.530  1.00  0.00     0.023 A 
HETATM   17  C5  UNL     1      25.503   3.707  50.343  1.00  0.00     0.030 A 
HETATM   18  C21 UNL     1      24.931   4.960  50.517  1.00  0.00     0.053 A 
HETATM   19  C20 UNL     1      25.491   6.054  49.857  1.00  0.00     0.054 A 
HETATM   20 CL1  UNL     1      23.527   5.282  51.527  1.00  0.00    -0.083 Cl
BRANCH  17  21
HETATM   21  S1  UNL     1      24.669   2.417  51.256  1.00  0.00    -0.051 SA
BRANCH  21  22
HETATM   22  C4  UNL     1      25.791   1.718  52.460  1.00  0.00     0.172 A 
HETATM   23  N1  UNL     1      25.499   0.712  53.297  1.00  0.00    -0.339 N 
HETATM   24  C1  UNL     1      24.266  -0.023  53.430  1.00  0.00     0.158 C 
HETATM   25  C2  UNL     1      26.564   0.424  54.076  1.00  0.00     0.112 A 
HETATM   26  C3  UNL     1      27.565   1.307  53.692  1.00  0.00     0.136 A 
HETATM   27  N2  UNL     1      27.077   2.084  52.709  1.00  0.00    -0.235 NA
ENDBRANCH  21  22
ENDBRANCH  17  21
ENDBRANCH  12  14
ENDBRANCH   1  12
BRANCH   4  28
HETATM   28  N4  UNL     1      32.990   6.886  47.863  1.00  0.00    -0.387 N 
HETATM   29  H11 UNL     1      32.796   5.982  47.352  1.00  0.00     0.159 HD
BRANCH  28  30
HETATM   30  C13 UNL     1      34.314   7.160  48.380  1.00  0.00     0.188 C 
BRANCH  30  31
HETATM   31  C14 UNL     1      34.998   5.876  48.735  1.00  0.00     0.250 C 
HETATM   32  O1  UNL     1      35.930   5.780  49.501  1.00  0.00    -0.305 OA
ENDBRANCH  30  31
ENDBRANCH  28  30
ENDBRANCH   4  28
TORSDOF 7
ENDMDL
MODEL 9
REMARK VINA RESULT:      -7.4      3.687      9.397
REMARK  7 active torsions:
REMARK  status: ('A' for Active; 'I' for Inactive)
REMARK    1  A    between atoms: C4_6  and  S1_7 
REMARK    2  A    between atoms: S1_7  and  C5_8 
REMARK    3  A    between atoms: C8_11  and  N3_12 
REMARK    4  A    between atoms: N3_12  and  C9_13 
REMARK    5  A    between atoms: C12_16  and  N4_17 
REMARK    6  A    between atoms: N4_17  and  C13_18 
REMARK    7  A    between atoms: C13_18  and  C14_19 
ROOT
HETATM    1  C9  UNL     1      28.648   7.233  48.350  1.00  0.00     0.056 C 
HETATM    2  C10 UNL     1      29.458   6.254  47.909  1.00  0.00     0.033 C 
HETATM    3  C11 UNL     1      30.914   6.133  47.812  1.00  0.00     0.027 C 
HETATM    4  C12 UNL     1      31.836   7.054  47.605  1.00  0.00     0.011 C 
HETATM    5  C15 UNL     1      32.089   8.470  47.373  1.00  0.00     0.118 C 
HETATM    6  C16 UNL     1      31.265   9.343  48.220  1.00  0.00     0.071 A 
HETATM    7  N5  UNL     1      30.947  10.387  48.919  1.00  0.00    -0.247 NA
HETATM    8  C17 UNL     1      29.959   9.386  48.856  1.00  0.00     0.105 A 
HETATM    9  C18 UNL     1      28.920   8.573  48.913  1.00  0.00     0.102 C 
HETATM   10  C19 UNL     1      27.837   9.101  49.676  1.00  0.00     0.104 C 
HETATM   11  N6  UNL     1      26.958   9.540  50.277  1.00  0.00    -0.191 NA
ENDROOT
BRANCH   1  12
HETATM   12  N3  UNL     1      27.254   6.966  48.279  1.00  0.00    -0.355 N 
HETATM   13  H8  UNL     1      26.776   7.638  47.673  1.00  0.00     0.166 HD
BRANCH  12  14
HETATM   14  C8  UNL     1      26.614   5.912  48.958  1.00  0.00     0.034 A 
HETATM   15  C7  UNL     1      27.108   4.627  48.873  1.00  0.00     0.031 A 
HETATM   16  C6  UNL     1      26.447   3.628  49.555  1.00  0.00     0.023 A 
HETATM   17  C5  UNL     1      25.320   3.908  50.304  1.00  0.00     0.030 A 
HETATM   18  C21 UNL     1      24.829   5.204  50.386  1.00  0.00     0.053 A 
HETATM   19  C20 UNL     1      25.491   6.221  49.698  1.00  0.00     0.054 A 
HETATM   20 CL1  UNL     1      23.405   5.672  51.308  1.00  0.00    -0.083 Cl
BRANCH  17  21
HETATM   21  S1  UNL     1      24.359   2.727  51.240  1.00  0.00    -0.051 SA
BRANCH  21  22
HETATM   22  C4  UNL     1      23.048   2.077  50.212  1.00  0.00     0.172 A 
HETATM   23  N1  UNL     1      22.126   1.187  50.605  1.00  0.00    -0.339 N 
HETATM   24  C1  UNL     1      21.968   0.559  51.894  1.00  0.00     0.158 C 
HETATM   25  C2  UNL     1      21.281   0.906  49.591  1.00  0.00     0.112 A 
HETATM   26  C3  UNL     1      21.714   1.669  48.514  1.00  0.00     0.136 A 
HETATM   27  N2  UNL     1      22.787   2.375  48.911  1.00  0.00    -0.235 NA
ENDBRANCH  21  22
ENDBRANCH  17  21
ENDBRANCH  12  14
ENDBRANCH   1  12
BRANCH   4  28
HETATM   28  N4  UNL     1      33.064   6.291  47.620  1.00  0.00    -0.387 N 
HETATM   29  H11 UNL     1      33.521   6.616  46.725  1.00  0.00     0.159 HD
BRANCH  28  30
HETATM   30  C13 UNL     1      33.726   5.316  48.462  1.00  0.00     0.188 C 
BRANCH  30  31
HETATM   31  C14 UNL     1      34.706   4.526  47.652  1.00  0.00     0.250 C 
HETATM   32  O1  UNL     1      35.074   3.403  47.917  1.00  0.00    -0.305 OA
ENDBRANCH  30  31
ENDBRANCH  28  30
ENDBRANCH   4  28
TORSDOF 7
ENDMDL
