MODEL 1
REMARK VINA RESULT:      -8.6      0.000      0.000
REMARK  7 active torsions:
REMARK  status: ('A' for Active; 'I' for Inactive)
REMARK    1  A    between atoms: C2_2  and  C3_3 
REMARK       I    between atoms: C3_3  and  N1_5 
REMARK    2  A    between atoms: N1_5  and  C4_6 
REMARK    3  A    between atoms: C8_10  and  N2_11 
REMARK    4  A    between atoms: N2_11  and  C9_12 
REMARK    5  A    between atoms: N4_15  and  C11_16 
REMARK    6  A    between atoms: C18_25  and  O2_26 
REMARK    7  A    between atoms: C21_29  and  C22_30 
ROOT
HETATM    1  C9  UNL     1      26.611   4.966  49.063  1.00  0.00     0.134 A 
HETATM    2  N3  UNL     1      27.742   4.583  48.624  1.00  0.00    -0.252 NA
HETATM    3  C10 UNL     1      28.837   5.441  48.227  1.00  0.00     0.280 A 
HETATM    4  N4  UNL     1      28.486   6.849  48.401  1.00  0.00    -0.334 N 
HETATM    5  C20 UNL     1      27.230   7.300  48.888  1.00  0.00     0.106 A 
HETATM    6  C21 UNL     1      26.307   6.383  49.215  1.00  0.00     0.031 A 
ENDROOT
BRANCH   1   7
HETATM    7  N2  UNL     1      25.656   3.986  49.405  1.00  0.00    -0.341 N 
HETATM    8  H8  UNL     1      25.046   3.682  48.605  1.00  0.00     0.167 HD
BRANCH   7   9
HETATM    9  C8  UNL     1      25.486   3.428  50.699  1.00  0.00     0.035 A 
HETATM   10  C7  UNL     1      24.414   3.661  51.524  1.00  0.00     0.029 A 
HETATM   11  C6  UNL     1      24.319   3.089  52.776  1.00  0.00     0.004 A 
HETATM   12  C5  UNL     1      25.357   2.269  53.161  1.00  0.00     0.029 A 
HETATM   13  C4  UNL     1      26.454   1.986  52.406  1.00  0.00     0.037 A 
HETATM   14  C23 UNL     1      26.476   2.592  51.173  1.00  0.00     0.059 A 
BRANCH  13  15
HETATM   15  N1  UNL     1      27.544   1.156  52.763  1.00  0.00    -0.324 N 
HETATM   16  C3  UNL     1      28.629   1.440  53.602  1.00  0.00     0.241 C 
HETATM   17  O1  UNL     1      28.713   2.553  54.137  1.00  0.00    -0.269 OA
HETATM   18  H4  UNL     1      27.612   0.183  52.387  1.00  0.00     0.169 HD
BRANCH  16  19
HETATM   19  C2  UNL     1      29.709   0.515  53.916  1.00  0.00     0.048 C 
HETATM   20  C1  UNL     1      29.293  -0.708  53.630  1.00  0.00     0.037 C 
ENDBRANCH  16  19
ENDBRANCH  13  15
ENDBRANCH   7   9
ENDBRANCH   1   7
BRANCH   6  21
HETATM   21  C22 UNL     1      24.988   6.841  49.725  1.00  0.00     0.266 C 
HETATM   22  F1  UNL     1      25.000   7.011  51.095  1.00  0.00    -0.250 F 
ENDBRANCH   6  21
BRANCH   4  23
HETATM   23  C11 UNL     1      29.436   7.854  48.072  1.00  0.00     0.084 A 
HETATM   24  C12 UNL     1      28.982   8.776  47.239  1.00  0.00     0.119 A 
HETATM   25  N5  UNL     1      29.933   9.783  46.913  1.00  0.00    -0.376 N 
HETATM   26  C13 UNL     1      29.577  10.870  46.040  1.00  0.00     0.153 C 
HETATM   27  C16 UNL     1      31.289   9.934  47.325  1.00  0.00     0.137 A 
HETATM   28  C14 UNL     1      29.590  12.117  46.926  1.00  0.00     0.289 C 
HETATM   29  N6  UNL     1      30.988  12.370  47.226  1.00  0.00     0.087 N 
HETATM   30  C15 UNL     1      31.614  11.283  47.896  1.00  0.00     0.298 C 
HETATM   31  H16 UNL     1      31.454  12.480  46.278  1.00  0.00     0.316 HD
HETATM   32  C17 UNL     1      31.632   8.825  48.249  1.00  0.00     0.039 A 
HETATM   33  C18 UNL     1      30.795   7.853  48.609  1.00  0.00     0.094 A 
BRANCH  33  34
HETATM   34  O2  UNL     1      31.188   6.839  49.487  1.00  0.00    -0.354 OA
HETATM   35  C19 UNL     1      32.413   6.154  49.237  1.00  0.00     0.210 C 
ENDBRANCH  33  34
ENDBRANCH   4  23
TORSDOF 7
ENDMDL
MODEL 2
REMARK VINA RESULT:      -8.5      3.844      5.967
REMARK  7 active torsions:
REMARK  status: ('A' for Active; 'I' for Inactive)
REMARK    1  A    between atoms: C2_2  and  C3_3 
REMARK       I    between atoms: C3_3  and  N1_5 
REMARK    2  A    between atoms: N1_5  and  C4_6 
REMARK    3  A    between atoms: C8_10  and  N2_11 
REMARK    4  A    between atoms: N2_11  and  C9_12 
REMARK    5  A    between atoms: N4_15  and  C11_16 
REMARK    6  A    between atoms: C18_25  and  O2_26 
REMARK    7  A    between atoms: C21_29  and  C22_30 
ROOT
HETATM    1  C9  UNL     1      22.787   1.995  51.618  1.00  0.00     0.134 A 
HETATM    2  N3  UNL     1      23.249   2.768  52.516  1.00  0.00    -0.252 NA
HETATM    3  C10 UNL     1      23.696   4.131  52.320  1.00  0.00     0.280 A 
HETATM    4  N4  UNL     1      23.543   4.535  50.924  1.00  0.00    -0.334 N 
HETATM    5  C20 UNL     1      23.031   3.689  49.904  1.00  0.00     0.106 A 
HETATM    6  C21 UNL     1      22.659   2.443  50.236  1.00  0.00     0.031 A 
ENDROOT
BRANCH   1   7
HETATM    7  N2  UNL     1      22.398   0.692  51.989  1.00  0.00    -0.341 N 
HETATM    8  H8  UNL     1      21.728   0.235  51.319  1.00  0.00     0.167 HD
BRANCH   7   9
HETATM    9  C8  UNL     1      22.835   0.010  53.154  1.00  0.00     0.035 A 
HETATM   10  C7  UNL     1      22.010  -0.518  54.115  1.00  0.00     0.029 A 
HETATM   11  C6  UNL     1      22.507  -1.162  55.230  1.00  0.00     0.004 A 
HETATM   12  C5  UNL     1      23.877  -1.251  55.333  1.00  0.00     0.029 A 
HETATM   13  C4  UNL     1      24.765  -0.756  54.426  1.00  0.00     0.037 A 
HETATM   14  C23 UNL     1      24.194  -0.129  53.345  1.00  0.00     0.059 A 
BRANCH  13  15
HETATM   15  N1  UNL     1      26.178  -0.819  54.494  1.00  0.00    -0.324 N 
HETATM   16  C3  UNL     1      27.093   0.209  54.752  1.00  0.00     0.241 C 
HETATM   17  O1  UNL     1      26.681   1.358  54.955  1.00  0.00    -0.269 OA
HETATM   18  H4  UNL     1      26.673  -1.726  54.343  1.00  0.00     0.169 HD
BRANCH  16  19
HETATM   19  C2  UNL     1      28.540   0.048  54.806  1.00  0.00     0.048 C 
HETATM   20  C1  UNL     1      28.982  -0.073  53.564  1.00  0.00     0.037 C 
ENDBRANCH  16  19
ENDBRANCH  13  15
ENDBRANCH   7   9
ENDBRANCH   1   7
BRANCH   6  21
HETATM   21  C22 UNL     1      22.122   1.547  49.179  1.00  0.00     0.266 C 
HETATM   22  F1  UNL     1      22.585   1.897  47.927  1.00  0.00    -0.250 F 
ENDBRANCH   6  21
BRANCH   4  23
HETATM   23  C11 UNL     1      23.920   5.847  50.528  1.00  0.00     0.084 A 
HETATM   24  C12 UNL     1      25.173   5.948  50.114  1.00  0.00     0.119 A 
HETATM   25  N5  UNL     1      25.548   7.262  49.717  1.00  0.00    -0.376 N 
HETATM   26  C13 UNL     1      26.871   7.524  49.215  1.00  0.00     0.153 C 
HETATM   27  C16 UNL     1      24.795   8.473  49.717  1.00  0.00     0.137 A 
HETATM   28  C14 UNL     1      26.679   7.878  47.739  1.00  0.00     0.289 C 
HETATM   29  N6  UNL     1      26.049   9.186  47.728  1.00  0.00     0.087 N 
HETATM   30  C15 UNL     1      24.798   9.201  48.405  1.00  0.00     0.298 C 
HETATM   31  H16 UNL     1      26.717   9.814  48.263  1.00  0.00     0.316 HD
HETATM   32  C17 UNL     1      23.425   8.180  50.204  1.00  0.00     0.039 A 
HETATM   33  C18 UNL     1      22.997   6.977  50.585  1.00  0.00     0.094 A 
BRANCH  33  34
HETATM   34  O2  UNL     1      21.688   6.777  51.034  1.00  0.00    -0.354 OA
HETATM   35  C19 UNL     1      20.652   6.610  50.069  1.00  0.00     0.210 C 
ENDBRANCH  33  34
ENDBRANCH   4  23
TORSDOF 7
ENDMDL
MODEL 3
REMARK VINA RESULT:      -8.1      2.668      8.671
REMARK  7 active torsions:
REMARK  status: ('A' for Active; 'I' for Inactive)
REMARK    1  A    between atoms: C2_2  and  C3_3 
REMARK       I    between atoms: C3_3  and  N1_5 
REMARK    2  A    between atoms: N1_5  and  C4_6 
REMARK    3  A    between atoms: C8_10  and  N2_11 
REMARK    4  A    between atoms: N2_11  and  C9_12 
REMARK    5  A    between atoms: N4_15  and  C11_16 
REMARK    6  A    between atoms: C18_25  and  O2_26 
REMARK    7  A    between atoms: C21_29  and  C22_30 
ROOT
HETATM    1  C9  UNL     1      27.334   5.578  48.702  1.00  0.00     0.134 A 
HETATM    2  N3  UNL     1      27.493   4.316  48.725  1.00  0.00    -0.252 NA
HETATM    3  C10 UNL     1      26.657   3.364  49.424  1.00  0.00     0.280 A 
HETATM    4  N4  UNL     1      25.563   4.041  50.118  1.00  0.00    -0.334 N 
HETATM    5  C20 UNL     1      25.366   5.448  50.107  1.00  0.00     0.106 A 
HETATM    6  C21 UNL     1      26.230   6.207  49.415  1.00  0.00     0.031 A 
ENDROOT
BRANCH   1   7
HETATM    7  N2  UNL     1      28.249   6.357  47.965  1.00  0.00    -0.341 N 
HETATM    8  H8  UNL     1      27.905   6.643  47.014  1.00  0.00     0.167 HD
BRANCH   7   9
HETATM    9  C8  UNL     1      29.538   6.746  48.416  1.00  0.00     0.035 A 
HETATM   10  C7  UNL     1      29.877   8.006  48.843  1.00  0.00     0.029 A 
HETATM   11  C6  UNL     1      31.156   8.315  49.260  1.00  0.00     0.004 A 
HETATM   12  C5  UNL     1      32.080   7.294  49.228  1.00  0.00     0.029 A 
HETATM   13  C4  UNL     1      31.827   6.019  48.820  1.00  0.00     0.037 A 
HETATM   14  C23 UNL     1      30.532   5.790  48.420  1.00  0.00     0.059 A 
BRANCH  13  15
HETATM   15  N1  UNL     1      32.745   4.944  48.766  1.00  0.00    -0.324 N 
HETATM   16  C3  UNL     1      33.628   4.591  47.737  1.00  0.00     0.241 C 
HETATM   17  O1  UNL     1      33.662   5.268  46.702  1.00  0.00    -0.269 OA
HETATM   18  H4  UNL     1      32.830   4.281  49.570  1.00  0.00     0.169 HD
BRANCH  16  19
HETATM   19  C2  UNL     1      34.545   3.460  47.772  1.00  0.00     0.048 C 
HETATM   20  C1  UNL     1      35.034   3.296  46.553  1.00  0.00     0.037 C 
ENDBRANCH  16  19
ENDBRANCH  13  15
ENDBRANCH   7   9
ENDBRANCH   1   7
BRANCH   6  21
HETATM   21  C22 UNL     1      26.035   7.681  49.396  1.00  0.00     0.266 C 
HETATM   22  F1  UNL     1      26.880   8.321  50.280  1.00  0.00    -0.250 F 
ENDBRANCH   6  21
BRANCH   4  23
HETATM   23  C11 UNL     1      24.622   3.275  50.859  1.00  0.00     0.084 A 
HETATM   24  C12 UNL     1      23.393   3.308  50.370  1.00  0.00     0.119 A 
HETATM   25  N5  UNL     1      22.453   2.540  51.111  1.00  0.00    -0.376 N 
HETATM   26  C13 UNL     1      21.081   2.453  50.686  1.00  0.00     0.153 C 
HETATM   27  C16 UNL     1      22.628   1.768  52.297  1.00  0.00     0.137 A 
HETATM   28  C14 UNL     1      20.886   0.999  50.251  1.00  0.00     0.289 C 
HETATM   29  N6  UNL     1      20.909   0.218  51.475  1.00  0.00     0.087 N 
HETATM   30  C15 UNL     1      22.127   0.358  52.196  1.00  0.00     0.298 C 
HETATM   31  H16 UNL     1      20.129   0.623  52.071  1.00  0.00     0.316 HD
HETATM   32  C17 UNL     1      24.052   1.840  52.705  1.00  0.00     0.039 A 
HETATM   33  C18 UNL     1      24.992   2.529  52.059  1.00  0.00     0.094 A 
BRANCH  33  34
HETATM   34  O2  UNL     1      26.317   2.549  52.502  1.00  0.00    -0.354 OA
HETATM   35  C19 UNL     1      26.636   1.908  53.735  1.00  0.00     0.210 C 
ENDBRANCH  33  34
ENDBRANCH   4  23
TORSDOF 7
ENDMDL
MODEL 4
REMARK VINA RESULT:      -8.0      1.758      2.532
REMARK  7 active torsions:
REMARK  status: ('A' for Active; 'I' for Inactive)
REMARK    1  A    between atoms: C2_2  and  C3_3 
REMARK       I    between atoms: C3_3  and  N1_5 
REMARK    2  A    between atoms: N1_5  and  C4_6 
REMARK    3  A    between atoms: C8_10  and  N2_11 
REMARK    4  A    between atoms: N2_11  and  C9_12 
REMARK    5  A    between atoms: N4_15  and  C11_16 
REMARK    6  A    between atoms: C18_25  and  O2_26 
REMARK    7  A    between atoms: C21_29  and  C22_30 
ROOT
HETATM    1  C9  UNL     1      26.278   4.493  49.392  1.00  0.00     0.134 A 
HETATM    2  N3  UNL     1      27.430   4.338  48.876  1.00  0.00    -0.252 NA
HETATM    3  C10 UNL     1      28.262   5.384  48.322  1.00  0.00     0.280 A 
HETATM    4  N4  UNL     1      27.608   6.687  48.434  1.00  0.00    -0.334 N 
HETATM    5  C20 UNL     1      26.323   6.883  49.005  1.00  0.00     0.106 A 
HETATM    6  C21 UNL     1      25.665   5.812  49.477  1.00  0.00     0.031 A 
ENDROOT
BRANCH   1   7
HETATM    7  N2  UNL     1      25.605   3.356  49.886  1.00  0.00    -0.341 N 
HETATM    8  H8  UNL     1      25.044   2.840  49.162  1.00  0.00     0.167 HD
BRANCH   7   9
HETATM    9  C8  UNL     1      25.643   2.905  51.231  1.00  0.00     0.035 A 
HETATM   10  C7  UNL     1      24.644   3.094  52.154  1.00  0.00     0.029 A 
HETATM   11  C6  UNL     1      24.753   2.635  53.451  1.00  0.00     0.004 A 
HETATM   12  C5  UNL     1      25.917   1.974  53.777  1.00  0.00     0.029 A 
HETATM   13  C4  UNL     1      26.954   1.745  52.924  1.00  0.00     0.037 A 
HETATM   14  C23 UNL     1      26.770   2.232  51.652  1.00  0.00     0.059 A 
BRANCH  13  15
HETATM   15  N1  UNL     1      28.167   1.077  53.216  1.00  0.00    -0.324 N 
HETATM   16  C3  UNL     1      28.370  -0.261  53.577  1.00  0.00     0.241 C 
HETATM   17  O1  UNL     1      27.399  -1.022  53.676  1.00  0.00    -0.269 OA
HETATM   18  H4  UNL     1      29.076   1.591  53.176  1.00  0.00     0.169 HD
BRANCH  16  19
HETATM   19  C2  UNL     1      29.665  -0.865  53.858  1.00  0.00     0.048 C 
HETATM   20  C1  UNL     1      29.651  -2.099  53.378  1.00  0.00     0.037 C 
ENDBRANCH  16  19
ENDBRANCH  13  15
ENDBRANCH   7   9
ENDBRANCH   1   7
BRANCH   6  21
HETATM   21  C22 UNL     1      24.318   6.003  50.077  1.00  0.00     0.266 C 
HETATM   22  F1  UNL     1      24.397   6.407  51.394  1.00  0.00    -0.250 F 
ENDBRANCH   6  21
BRANCH   4  23
HETATM   23  C11 UNL     1      28.271   7.848  47.952  1.00  0.00     0.084 A 
HETATM   24  C12 UNL     1      29.384   8.145  48.603  1.00  0.00     0.119 A 
HETATM   25  N5  UNL     1      30.047   9.306  48.118  1.00  0.00    -0.376 N 
HETATM   26  C13 UNL     1      31.287   9.740  48.706  1.00  0.00     0.153 C 
HETATM   27  C16 UNL     1      29.688  10.199  47.065  1.00  0.00     0.137 A 
HETATM   28  C14 UNL     1      32.343   9.526  47.619  1.00  0.00     0.289 C 
HETATM   29  N6  UNL     1      32.078  10.536  46.610  1.00  0.00     0.087 N 
HETATM   30  C15 UNL     1      30.772  10.432  46.056  1.00  0.00     0.298 C 
HETATM   31  H16 UNL     1      32.139  11.461  47.129  1.00  0.00     0.316 HD
HETATM   32  C17 UNL     1      28.426   9.721  46.448  1.00  0.00     0.039 A 
HETATM   33  C18 UNL     1      27.753   8.640  46.839  1.00  0.00     0.094 A 
BRANCH  33  34
HETATM   34  O2  UNL     1      26.569   8.249  46.208  1.00  0.00    -0.354 OA
HETATM   35  C19 UNL     1      25.801   9.236  45.523  1.00  0.00     0.210 C 
ENDBRANCH  33  34
ENDBRANCH   4  23
TORSDOF 7
ENDMDL
MODEL 5
REMARK VINA RESULT:      -7.9      3.854      5.436
REMARK  7 active torsions:
REMARK  status: ('A' for Active; 'I' for Inactive)
REMARK    1  A    between atoms: C2_2  and  C3_3 
REMARK       I    between atoms: C3_3  and  N1_5 
REMARK    2  A    between atoms: N1_5  and  C4_6 
REMARK    3  A    between atoms: C8_10  and  N2_11 
REMARK    4  A    between atoms: N2_11  and  C9_12 
REMARK    5  A    between atoms: N4_15  and  C11_16 
REMARK    6  A    between atoms: C18_25  and  O2_26 
REMARK    7  A    between atoms: C21_29  and  C22_30 
ROOT
HETATM    1  C9  UNL     1      22.190   2.670  51.651  1.00  0.00     0.134 A 
HETATM    2  N3  UNL     1      22.618   3.717  52.233  1.00  0.00    -0.252 NA
HETATM    3  C10 UNL     1      23.350   4.799  51.610  1.00  0.00     0.280 A 
HETATM    4  N4  UNL     1      23.541   4.546  50.183  1.00  0.00    -0.334 N 
HETATM    5  C20 UNL     1      23.074   3.384  49.512  1.00  0.00     0.106 A 
HETATM    6  C21 UNL     1      22.411   2.460  50.226  1.00  0.00     0.031 A 
ENDROOT
BRANCH   1   7
HETATM    7  N2  UNL     1      21.492   1.714  52.418  1.00  0.00    -0.341 N 
HETATM    8  H8  UNL     1      20.446   1.772  52.331  1.00  0.00     0.167 HD
BRANCH   7   9
HETATM    9  C8  UNL     1      22.096   0.739  53.254  1.00  0.00     0.035 A 
HETATM   10  C7  UNL     1      21.451   0.039  54.243  1.00  0.00     0.029 A 
HETATM   11  C6  UNL     1      22.107  -0.890  55.025  1.00  0.00     0.004 A 
HETATM   12  C5  UNL     1      23.445  -1.083  54.765  1.00  0.00     0.029 A 
HETATM   13  C4  UNL     1      24.159  -0.432  53.805  1.00  0.00     0.037 A 
HETATM   14  C23 UNL     1      23.437   0.476  53.068  1.00  0.00     0.059 A 
BRANCH  13  15
HETATM   15  N1  UNL     1      25.533  -0.595  53.507  1.00  0.00    -0.324 N 
HETATM   16  C3  UNL     1      26.634   0.099  54.025  1.00  0.00     0.241 C 
HETATM   17  O1  UNL     1      26.455   0.994  54.860  1.00  0.00    -0.269 OA
HETATM   18  H4  UNL     1      25.842  -1.315  52.815  1.00  0.00     0.169 HD
BRANCH  16  19
HETATM   19  C2  UNL     1      28.024  -0.141  53.659  1.00  0.00     0.048 C 
HETATM   20  C1  UNL     1      28.605   1.034  53.477  1.00  0.00     0.037 C 
ENDBRANCH  16  19
ENDBRANCH  13  15
ENDBRANCH   7   9
ENDBRANCH   1   7
BRANCH   6  21
HETATM   21  C22 UNL     1      21.916   1.240  49.537  1.00  0.00     0.266 C 
HETATM   22  F1  UNL     1      20.743   1.479  48.850  1.00  0.00    -0.250 F 
ENDBRANCH   6  21
BRANCH   4  23
HETATM   23  C11 UNL     1      24.234   5.500  49.388  1.00  0.00     0.084 A 
HETATM   24  C12 UNL     1      23.443   6.344  48.745  1.00  0.00     0.119 A 
HETATM   25  N5  UNL     1      24.137   7.299  47.952  1.00  0.00    -0.376 N 
HETATM   26  C13 UNL     1      23.414   8.303  47.216  1.00  0.00     0.153 C 
HETATM   27  C16 UNL     1      25.536   7.469  47.732  1.00  0.00     0.137 A 
HETATM   28  C14 UNL     1      23.769   9.629  47.890  1.00  0.00     0.289 C 
HETATM   29  N6  UNL     1      25.154   9.889  47.542  1.00  0.00     0.087 N 
HETATM   30  C15 UNL     1      26.035   8.862  47.981  1.00  0.00     0.298 C 
HETATM   31  H16 UNL     1      25.170   9.900  46.480  1.00  0.00     0.316 HD
HETATM   32  C17 UNL     1      26.268   6.450  48.522  1.00  0.00     0.039 A 
HETATM   33  C18 UNL     1      25.691   5.530  49.293  1.00  0.00     0.094 A 
BRANCH  33  34
HETATM   34  O2  UNL     1      26.447   4.600  50.012  1.00  0.00    -0.354 OA
HETATM   35  C19 UNL     1      26.753   3.348  49.401  1.00  0.00     0.210 C 
ENDBRANCH  33  34
ENDBRANCH   4  23
TORSDOF 7
ENDMDL
MODEL 6
REMARK VINA RESULT:      -7.9      4.306      6.245
REMARK  7 active torsions:
REMARK  status: ('A' for Active; 'I' for Inactive)
REMARK    1  A    between atoms: C2_2  and  C3_3 
REMARK       I    between atoms: C3_3  and  N1_5 
REMARK    2  A    between atoms: N1_5  and  C4_6 
REMARK    3  A    between atoms: C8_10  and  N2_11 
REMARK    4  A    between atoms: N2_11  and  C9_12 
REMARK    5  A    between atoms: N4_15  and  C11_16 
REMARK    6  A    between atoms: C18_25  and  O2_26 
REMARK    7  A    between atoms: C21_29  and  C22_30 
ROOT
HETATM    1  C9  UNL     1      22.445   1.422  51.415  1.00  0.00     0.134 A 
HETATM    2  N3  UNL     1      23.581   1.559  50.859  1.00  0.00    -0.252 NA
HETATM    3  C10 UNL     1      24.060   2.743  50.180  1.00  0.00     0.280 A 
HETATM    4  N4  UNL     1      23.057   3.806  50.213  1.00  0.00    -0.334 N 
HETATM    5  C20 UNL     1      21.782   3.676  50.826  1.00  0.00     0.106 A 
HETATM    6  C21 UNL     1      21.476   2.510  51.417  1.00  0.00     0.031 A 
ENDROOT
BRANCH   1   7
HETATM    7  N2  UNL     1      22.144   0.191  52.035  1.00  0.00    -0.341 N 
HETATM    8  H8  UNL     1      21.395  -0.363  51.549  1.00  0.00     0.167 HD
BRANCH   7   9
HETATM    9  C8  UNL     1      22.762  -0.302  53.213  1.00  0.00     0.035 A 
HETATM   10  C7  UNL     1      22.095  -0.745  54.328  1.00  0.00     0.029 A 
HETATM   11  C6  UNL     1      22.764  -1.204  55.444  1.00  0.00     0.004 A 
HETATM   12  C5  UNL     1      24.140  -1.198  55.386  1.00  0.00     0.029 A 
HETATM   13  C4  UNL     1      24.878  -0.776  54.322  1.00  0.00     0.037 A 
HETATM   14  C23 UNL     1      24.141  -0.334  53.250  1.00  0.00     0.059 A 
BRANCH  13  15
HETATM   15  N1  UNL     1      26.290  -0.747  54.222  1.00  0.00    -0.324 N 
HETATM   16  C3  UNL     1      27.173   0.295  54.533  1.00  0.00     0.241 C 
HETATM   17  O1  UNL     1      26.726   1.368  54.957  1.00  0.00    -0.269 OA
HETATM   18  H4  UNL     1      26.812  -1.584  53.876  1.00  0.00     0.169 HD
BRANCH  16  19
HETATM   19  C2  UNL     1      28.622   0.232  54.400  1.00  0.00     0.048 C 
HETATM   20  C1  UNL     1      28.909  -0.721  53.527  1.00  0.00     0.037 C 
ENDBRANCH  16  19
ENDBRANCH  13  15
ENDBRANCH   7   9
ENDBRANCH   1   7
BRANCH   6  21
HETATM   21  C22 UNL     1      20.145   2.360  52.062  1.00  0.00     0.266 C 
HETATM   22  F1  UNL     1      20.257   2.097  53.413  1.00  0.00    -0.250 F 
ENDBRANCH   6  21
BRANCH   4  23
HETATM   23  C11 UNL     1      23.342   5.058  49.603  1.00  0.00     0.084 A 
HETATM   24  C12 UNL     1      23.883   5.947  50.421  1.00  0.00     0.119 A 
HETATM   25  N5  UNL     1      24.169   7.198  49.809  1.00  0.00    -0.376 N 
HETATM   26  C13 UNL     1      24.788   8.257  50.563  1.00  0.00     0.153 C 
HETATM   27  C16 UNL     1      23.944   7.642  48.472  1.00  0.00     0.137 A 
HETATM   28  C14 UNL     1      26.182   8.423  49.954  1.00  0.00     0.289 C 
HETATM   29  N6  UNL     1      25.970   9.020  48.648  1.00  0.00     0.087 N 
HETATM   30  C15 UNL     1      25.155   8.219  47.801  1.00  0.00     0.298 C 
HETATM   31  H16 UNL     1      25.448   9.924  48.843  1.00  0.00     0.316 HD
HETATM   32  C17 UNL     1      23.337   6.531  47.699  1.00  0.00     0.039 A 
HETATM   33  C18 UNL     1      23.049   5.329  48.199  1.00  0.00     0.094 A 
BRANCH  33  34
HETATM   34  O2  UNL     1      22.478   4.328  47.408  1.00  0.00    -0.354 OA
HETATM   35  C19 UNL     1      21.986   4.675  46.115  1.00  0.00     0.210 C 
ENDBRANCH  33  34
ENDBRANCH   4  23
TORSDOF 7
ENDMDL
MODEL 7
REMARK VINA RESULT:      -7.8      3.122      4.625
REMARK  7 active torsions:
REMARK  status: ('A' for Active; 'I' for Inactive)
REMARK    1  A    between atoms: C2_2  and  C3_3 
REMARK       I    between atoms: C3_3  and  N1_5 
REMARK    2  A    between atoms: N1_5  and  C4_6 
REMARK    3  A    between atoms: C8_10  and  N2_11 
REMARK    4  A    between atoms: N2_11  and  C9_12 
REMARK    5  A    between atoms: N4_15  and  C11_16 
REMARK    6  A    between atoms: C18_25  and  O2_26 
REMARK    7  A    between atoms: C21_29  and  C22_30 
ROOT
HETATM    1  C9  UNL     1      23.503   3.186  50.536  1.00  0.00     0.134 A 
HETATM    2  N3  UNL     1      24.338   3.315  49.586  1.00  0.00    -0.252 NA
HETATM    3  C10 UNL     1      24.883   4.562  49.093  1.00  0.00     0.280 A 
HETATM    4  N4  UNL     1      24.351   5.698  49.845  1.00  0.00    -0.334 N 
HETATM    5  C20 UNL     1      23.417   5.578  50.909  1.00  0.00     0.106 A 
HETATM    6  C21 UNL     1      22.997   4.350  51.253  1.00  0.00     0.031 A 
ENDROOT
BRANCH   1   7
HETATM    7  N2  UNL     1      23.078   1.888  50.885  1.00  0.00    -0.341 N 
HETATM    8  H8  UNL     1      22.294   1.517  50.290  1.00  0.00     0.167 HD
BRANCH   7   9
HETATM    9  C8  UNL     1      23.619   1.108  51.940  1.00  0.00     0.035 A 
HETATM   10  C7  UNL     1      22.885   0.494  52.924  1.00  0.00     0.029 A 
HETATM   11  C6  UNL     1      23.481  -0.243  53.927  1.00  0.00     0.004 A 
HETATM   12  C5  UNL     1      24.855  -0.336  53.892  1.00  0.00     0.029 A 
HETATM   13  C4  UNL     1      25.656   0.240  52.953  1.00  0.00     0.037 A 
HETATM   14  C23 UNL     1      24.989   0.958  51.989  1.00  0.00     0.059 A 
BRANCH  13  15
HETATM   15  N1  UNL     1      27.068   0.175  52.882  1.00  0.00    -0.324 N 
HETATM   16  C3  UNL     1      28.016   0.550  53.844  1.00  0.00     0.241 C 
HETATM   17  O1  UNL     1      27.637   1.012  54.927  1.00  0.00    -0.269 OA
HETATM   18  H4  UNL     1      27.537  -0.193  52.025  1.00  0.00     0.169 HD
BRANCH  16  19
HETATM   19  C2  UNL     1      29.460   0.443  53.682  1.00  0.00     0.048 C 
HETATM   20  C1  UNL     1      29.757  -0.836  53.517  1.00  0.00     0.037 C 
ENDBRANCH  16  19
ENDBRANCH  13  15
ENDBRANCH   7   9
ENDBRANCH   1   7
BRANCH   6  21
HETATM   21  C22 UNL     1      22.019   4.210  52.364  1.00  0.00     0.266 C 
HETATM   22  F1  UNL     1      20.755   3.909  51.899  1.00  0.00    -0.250 F 
ENDBRANCH   6  21
BRANCH   4  23
HETATM   23  C11 UNL     1      24.772   7.015  49.517  1.00  0.00     0.084 A 
HETATM   24  C12 UNL     1      25.854   7.414  50.166  1.00  0.00     0.119 A 
HETATM   25  N5  UNL     1      26.276   8.732  49.835  1.00  0.00    -0.376 N 
HETATM   26  C13 UNL     1      27.455   9.295  50.437  1.00  0.00     0.153 C 
HETATM   27  C16 UNL     1      25.704   9.682  48.940  1.00  0.00     0.137 A 
HETATM   28  C14 UNL     1      28.465   9.429  49.295  1.00  0.00     0.289 C 
HETATM   29  N6  UNL     1      27.968  10.505  48.457  1.00  0.00     0.087 N 
HETATM   30  C15 UNL     1      26.669  10.246  47.939  1.00  0.00     0.298 C 
HETATM   31  H16 UNL     1      27.899  11.344  49.104  1.00  0.00     0.316 HD
HETATM   32  C17 UNL     1      24.509   9.077  48.303  1.00  0.00     0.039 A 
HETATM   33  C18 UNL     1      24.059   7.848  48.553  1.00  0.00     0.094 A 
BRANCH  33  34
HETATM   34  O2  UNL     1      22.923   7.342  47.912  1.00  0.00    -0.354 OA
HETATM   35  C19 UNL     1      22.797   7.520  46.503  1.00  0.00     0.210 C 
ENDBRANCH  33  34
ENDBRANCH   4  23
TORSDOF 7
ENDMDL
MODEL 8
REMARK VINA RESULT:      -7.8      7.331     11.398
REMARK  7 active torsions:
REMARK  status: ('A' for Active; 'I' for Inactive)
REMARK    1  A    between atoms: C2_2  and  C3_3 
REMARK       I    between atoms: C3_3  and  N1_5 
REMARK    2  A    between atoms: N1_5  and  C4_6 
REMARK    3  A    between atoms: C8_10  and  N2_11 
REMARK    4  A    between atoms: N2_11  and  C9_12 
REMARK    5  A    between atoms: N4_15  and  C11_16 
REMARK    6  A    between atoms: C18_25  and  O2_26 
REMARK    7  A    between atoms: C21_29  and  C22_30 
ROOT
HETATM    1  C9  UNL     1      19.987   1.965  51.075  1.00  0.00     0.134 A 
HETATM    2  N3  UNL     1      20.158   1.932  52.334  1.00  0.00    -0.252 NA
HETATM    3  C10 UNL     1      21.365   1.526  53.020  1.00  0.00     0.280 A 
HETATM    4  N4  UNL     1      22.407   1.151  52.066  1.00  0.00    -0.334 N 
HETATM    5  C20 UNL     1      22.239   1.178  50.655  1.00  0.00     0.106 A 
HETATM    6  C21 UNL     1      21.056   1.576  50.163  1.00  0.00     0.031 A 
ENDROOT
BRANCH   1   7
HETATM    7  N2  UNL     1      18.738   2.391  50.577  1.00  0.00    -0.341 N 
HETATM    8  H8  UNL     1      18.790   3.225  49.939  1.00  0.00     0.167 HD
BRANCH   7   9
HETATM    9  C8  UNL     1      17.490   1.787  50.881  1.00  0.00     0.035 A 
HETATM   10  C7  UNL     1      17.037   0.603  50.355  1.00  0.00     0.029 A 
HETATM   11  C6  UNL     1      15.805   0.080  50.691  1.00  0.00     0.004 A 
HETATM   12  C5  UNL     1      15.048   0.806  51.583  1.00  0.00     0.029 A 
HETATM   13  C4  UNL     1      15.421   1.986  52.150  1.00  0.00     0.037 A 
HETATM   14  C23 UNL     1      16.660   2.442  51.766  1.00  0.00     0.059 A 
BRANCH  13  15
HETATM   15  N1  UNL     1      14.675   2.767  53.065  1.00  0.00    -0.324 N 
HETATM   16  C3  UNL     1      13.702   3.740  52.802  1.00  0.00     0.241 C 
HETATM   17  O1  UNL     1      13.407   4.009  51.631  1.00  0.00    -0.269 OA
HETATM   18  H4  UNL     1      14.815   2.653  54.094  1.00  0.00     0.169 HD
BRANCH  16  19
HETATM   19  C2  UNL     1      12.978   4.496  53.816  1.00  0.00     0.048 C 
HETATM   20  C1  UNL     1      12.051   3.702  54.329  1.00  0.00     0.037 C 
ENDBRANCH  16  19
ENDBRANCH  13  15
ENDBRANCH   7   9
ENDBRANCH   1   7
BRANCH   6  21
HETATM   21  C22 UNL     1      20.866   1.609  48.689  1.00  0.00     0.266 C 
HETATM   22  F1  UNL     1      21.825   0.865  48.032  1.00  0.00    -0.250 F 
ENDBRANCH   6  21
BRANCH   4  23
HETATM   23  C11 UNL     1      23.677   0.728  52.544  1.00  0.00     0.084 A 
HETATM   24  C12 UNL     1      24.690   1.464  52.114  1.00  0.00     0.119 A 
HETATM   25  N5  UNL     1      25.960   1.041  52.595  1.00  0.00    -0.376 N 
HETATM   26  C13 UNL     1      27.154   1.760  52.238  1.00  0.00     0.153 C 
HETATM   27  C16 UNL     1      26.304  -0.054  53.441  1.00  0.00     0.137 A 
HETATM   28  C14 UNL     1      27.644   2.397  53.541  1.00  0.00     0.289 C 
HETATM   29  N6  UNL     1      28.141   1.300  54.351  1.00  0.00     0.087 N 
HETATM   30  C15 UNL     1      27.146   0.321  54.625  1.00  0.00     0.298 C 
HETATM   31  H16 UNL     1      28.894   0.842  53.757  1.00  0.00     0.316 HD
HETATM   32  C17 UNL     1      25.062  -0.766  53.827  1.00  0.00     0.039 A 
HETATM   33  C18 UNL     1      23.838  -0.425  53.426  1.00  0.00     0.094 A 
BRANCH  33  34
HETATM   34  O2  UNL     1      22.710  -1.145  53.832  1.00  0.00    -0.354 OA
HETATM   35  C19 UNL     1      22.560  -1.459  55.214  1.00  0.00     0.210 C 
ENDBRANCH  33  34
ENDBRANCH   4  23
TORSDOF 7
ENDMDL
MODEL 9
REMARK VINA RESULT:      -7.7      5.067      6.301
REMARK  7 active torsions:
REMARK  status: ('A' for Active; 'I' for Inactive)
REMARK    1  A    between atoms: C2_2  and  C3_3 
REMARK       I    between atoms: C3_3  and  N1_5 
REMARK    2  A    between atoms: N1_5  and  C4_6 
REMARK    3  A    between atoms: C8_10  and  N2_11 
REMARK    4  A    between atoms: N2_11  and  C9_12 
REMARK    5  A    between atoms: N4_15  and  C11_16 
REMARK    6  A    between atoms: C18_25  and  O2_26 
REMARK    7  A    between atoms: C21_29  and  C22_30 
ROOT
HETATM    1  C9  UNL     1      24.181   4.049  51.207  1.00  0.00     0.134 A 
HETATM    2  N3  UNL     1      22.981   4.469  51.190  1.00  0.00    -0.252 NA
HETATM    3  C10 UNL     1      22.308   5.079  50.064  1.00  0.00     0.280 A 
HETATM    4  N4  UNL     1      23.194   5.155  48.904  1.00  0.00    -0.334 N 
HETATM    5  C20 UNL     1      24.538   4.694  48.900  1.00  0.00     0.106 A 
HETATM    6  C21 UNL     1      25.028   4.151  50.026  1.00  0.00     0.031 A 
ENDROOT
BRANCH   1   7
HETATM    7  N2  UNL     1      24.676   3.478  52.398  1.00  0.00    -0.341 N 
HETATM    8  H8  UNL     1      25.071   4.176  53.078  1.00  0.00     0.167 HD
BRANCH   7   9
HETATM    9  C8  UNL     1      24.672   2.092  52.702  1.00  0.00     0.035 A 
HETATM   10  C7  UNL     1      23.560   1.363  53.043  1.00  0.00     0.029 A 
HETATM   11  C6  UNL     1      23.633   0.016  53.335  1.00  0.00     0.004 A 
HETATM   12  C5  UNL     1      24.880  -0.565  53.267  1.00  0.00     0.029 A 
HETATM   13  C4  UNL     1      26.031   0.085  52.937  1.00  0.00     0.037 A 
HETATM   14  C23 UNL     1      25.877   1.422  52.660  1.00  0.00     0.059 A 
BRANCH  13  15
HETATM   15  N1  UNL     1      27.331  -0.469  52.860  1.00  0.00    -0.324 N 
HETATM   16  C3  UNL     1      28.302  -0.579  53.864  1.00  0.00     0.241 C 
HETATM   17  O1  UNL     1      28.059  -0.150  54.998  1.00  0.00    -0.269 OA
HETATM   18  H4  UNL     1      27.681  -0.872  51.961  1.00  0.00     0.169 HD
BRANCH  16  19
HETATM   19  C2  UNL     1      29.621  -1.172  53.692  1.00  0.00     0.048 C 
HETATM   20  C1  UNL     1      29.455  -2.415  53.264  1.00  0.00     0.037 C 
ENDBRANCH  16  19
ENDBRANCH  13  15
ENDBRANCH   7   9
ENDBRANCH   1   7
BRANCH   6  21
HETATM   21  C22 UNL     1      26.433   3.666  50.036  1.00  0.00     0.266 C 
HETATM   22  F1  UNL     1      27.170   4.208  49.003  1.00  0.00    -0.250 F 
ENDBRANCH   6  21
BRANCH   4  23
HETATM   23  C11 UNL     1      22.714   5.718  47.690  1.00  0.00     0.084 A 
HETATM   24  C12 UNL     1      22.913   7.022  47.582  1.00  0.00     0.119 A 
HETATM   25  N5  UNL     1      22.435   7.583  46.366  1.00  0.00    -0.376 N 
HETATM   26  C13 UNL     1      22.605   8.985  46.090  1.00  0.00     0.153 C 
HETATM   27  C16 UNL     1      21.763   6.966  45.270  1.00  0.00     0.137 A 
HETATM   28  C14 UNL     1      23.595   9.048  44.925  1.00  0.00     0.289 C 
HETATM   29  N6  UNL     1      22.867   8.563  43.766  1.00  0.00     0.087 N 
HETATM   30  C15 UNL     1      22.386   7.235  43.933  1.00  0.00     0.298 C 
HETATM   31  H16 UNL     1      22.026   9.207  43.684  1.00  0.00     0.316 HD
HETATM   32  C17 UNL     1      21.623   5.516  45.554  1.00  0.00     0.039 A 
HETATM   33  C18 UNL     1      22.054   4.917  46.663  1.00  0.00     0.094 A 
BRANCH  33  34
HETATM   34  O2  UNL     1      21.888   3.543  46.861  1.00  0.00    -0.354 OA
HETATM   35  C19 UNL     1      20.642   3.070  47.366  1.00  0.00     0.210 C 
ENDBRANCH  33  34
ENDBRANCH   4  23
TORSDOF 7
ENDMDL
