MODEL 1
REMARK VINA RESULT:      -7.7      0.000      0.000
REMARK  3 active torsions:
REMARK  status: ('A' for Active; 'I' for Inactive)
REMARK    1  A    between atoms: P1_2  and  C2_3 
REMARK    2  A    between atoms: C2_3  and  C3_5 
REMARK    3  A    between atoms: C3_5  and  C4_6 
ROOT
HETATM    1  C4  UNL     1      26.444   0.841  53.296  1.00  0.00     0.017 C 
HETATM    2  C5  UNL     1      25.257   0.626  52.774  1.00  0.00     0.148 C 
HETATM    3  C6  UNL     1      24.197  -0.405  52.980  1.00  0.00     0.094 C 
HETATM    4  C7  UNL     1      23.090  -0.040  53.840  1.00  0.00    -0.024 C 
HETATM    5  C8  UNL     1      21.780   0.269  54.096  1.00  0.00    -0.024 C 
HETATM    6  C9  UNL     1      21.653   0.092  52.669  1.00  0.00     0.053 C 
HETATM    7  C10 UNL     1      20.580   0.298  51.946  1.00  0.00    -0.040 C 
HETATM    8  C11 UNL     1      21.509  -0.142  50.849  1.00  0.00     0.011 C 
HETATM    9  C12 UNL     1      19.531   0.659  50.906  1.00  0.00     0.005 C 
HETATM   10  C13 UNL     1      19.640   1.308  49.711  1.00  0.00     0.087 C 
HETATM   11  P2  UNL     1      21.183   1.990  48.945  1.00  0.00    -0.123 P 
HETATM   12  C14 UNL     1      21.966   3.271  50.067  1.00  0.00    -0.015 A 
HETATM   13  C15 UNL     1      23.125   3.455  50.760  1.00  0.00     0.091 A 
HETATM   14  N1  UNL     1      23.206   4.690  51.504  1.00  0.00    -0.385 N 
HETATM   15  C16 UNL     1      22.292   5.823  51.592  1.00  0.00     0.147 A 
HETATM   16  C17 UNL     1      21.057   5.521  50.810  1.00  0.00    -0.007 A 
HETATM   17  C18 UNL     1      21.008   4.363  50.166  1.00  0.00     0.011 A 
HETATM   18  C19 UNL     1      24.289   2.532  50.832  1.00  0.00     0.405 A 
HETATM   19  O2  UNL     1      23.837   2.173  51.996  1.00  0.00    -0.138 OA
HETATM   20  N2  UNL     1      24.864   1.564  51.714  1.00  0.00     0.121 N 
HETATM   21  H18 UNL     1      20.800   2.620  47.688  1.00  0.00     0.052 HD
HETATM   22  H19 UNL     1      24.060   4.764  52.071  1.00  0.00     0.159 HD
HETATM   23  H24 UNL     1      25.670   1.360  50.997  1.00  0.00     0.329 HD
ENDROOT
BRANCH   1  24
HETATM   24  C3  UNL     1      26.950  -0.051  54.326  1.00  0.00     0.112 C 
BRANCH  24  25
HETATM   25  C2  UNL     1      28.414   0.114  54.499  1.00  0.00     0.151 C 
HETATM   26  O1  UNL     1      28.146   0.940  55.332  1.00  0.00    -0.293 OA
BRANCH  25  27
HETATM   27  P1  UNL     1      29.488  -0.927  53.458  1.00  0.00    -0.059 P 
HETATM   28  C1  UNL     1      28.683  -2.544  53.083  1.00  0.00     0.049 C 
HETATM   29  H4  UNL     1      30.734  -1.146  54.155  1.00  0.00     0.065 HD
ENDBRANCH  25  27
ENDBRANCH  24  25
ENDBRANCH   1  24
TORSDOF 3
ENDMDL
MODEL 2
REMARK VINA RESULT:      -7.7      3.088      6.303
REMARK  3 active torsions:
REMARK  status: ('A' for Active; 'I' for Inactive)
REMARK    1  A    between atoms: P1_2  and  C2_3 
REMARK    2  A    between atoms: C2_3  and  C3_5 
REMARK    3  A    between atoms: C3_5  and  C4_6 
ROOT
HETATM    1  C4  UNL     1      24.377   7.270  51.156  1.00  0.00     0.017 C 
HETATM    2  C5  UNL     1      23.660   6.179  51.000  1.00  0.00     0.148 C 
HETATM    3  C6  UNL     1      22.704   5.698  49.961  1.00  0.00     0.094 C 
HETATM    4  C7  UNL     1      23.223   4.776  48.971  1.00  0.00    -0.024 C 
HETATM    5  C8  UNL     1      23.328   3.554  48.362  1.00  0.00    -0.024 C 
HETATM    6  C9  UNL     1      22.384   3.172  49.386  1.00  0.00     0.053 C 
HETATM    7  C10 UNL     1      21.926   1.966  49.618  1.00  0.00    -0.040 C 
HETATM    8  C11 UNL     1      21.177   2.703  50.695  1.00  0.00     0.011 C 
HETATM    9  C12 UNL     1      21.427   0.646  50.183  1.00  0.00     0.005 C 
HETATM   10  C13 UNL     1      21.331   0.200  51.469  1.00  0.00     0.087 C 
HETATM   11  P2  UNL     1      21.808   1.115  53.009  1.00  0.00    -0.123 P 
HETATM   12  C14 UNL     1      23.626   1.567  52.971  1.00  0.00    -0.015 A 
HETATM   13  C15 UNL     1      24.403   2.687  52.965  1.00  0.00     0.091 A 
HETATM   14  N1  UNL     1      25.826   2.446  52.925  1.00  0.00    -0.385 N 
HETATM   15  C16 UNL     1      26.594   1.207  52.966  1.00  0.00     0.147 A 
HETATM   16  C17 UNL     1      25.657   0.045  52.963  1.00  0.00    -0.007 A 
HETATM   17  C18 UNL     1      24.357   0.309  52.967  1.00  0.00     0.011 A 
HETATM   18  C19 UNL     1      23.947   4.102  52.987  1.00  0.00     0.405 A 
HETATM   19  O2  UNL     1      24.186   4.121  51.710  1.00  0.00    -0.138 OA
HETATM   20  N2  UNL     1      23.763   5.206  52.096  1.00  0.00     0.121 N 
HETATM   21  H18 UNL     1      21.555   0.225  54.135  1.00  0.00     0.052 HD
HETATM   22  H19 UNL     1      26.380   3.308  52.849  1.00  0.00     0.159 HD
HETATM   23  H24 UNL     1      23.386   5.831  52.916  1.00  0.00     0.329 HD
ENDROOT
BRANCH   1  24
HETATM   24  C3  UNL     1      24.320   8.318  50.151  1.00  0.00     0.112 C 
BRANCH  24  25
HETATM   25  C2  UNL     1      25.646   8.516  49.514  1.00  0.00     0.151 C 
HETATM   26  O1  UNL     1      25.820   9.388  50.326  1.00  0.00    -0.293 OA
BRANCH  25  27
HETATM   27  P1  UNL     1      26.053   7.431  48.109  1.00  0.00    -0.059 P 
HETATM   28  C1  UNL     1      26.800   5.846  48.688  1.00  0.00     0.049 C 
HETATM   29  H4  UNL     1      26.979   8.124  47.244  1.00  0.00     0.065 HD
ENDBRANCH  25  27
ENDBRANCH  24  25
ENDBRANCH   1  24
TORSDOF 3
ENDMDL
MODEL 3
REMARK VINA RESULT:      -7.5      3.184      4.514
REMARK  3 active torsions:
REMARK  status: ('A' for Active; 'I' for Inactive)
REMARK    1  A    between atoms: P1_2  and  C2_3 
REMARK    2  A    between atoms: C2_3  and  C3_5 
REMARK    3  A    between atoms: C3_5  and  C4_6 
ROOT
HETATM    1  C4  UNL     1      26.783   2.177  51.107  1.00  0.00     0.017 C 
HETATM    2  C5  UNL     1      25.695   2.883  50.891  1.00  0.00     0.148 C 
HETATM    3  C6  UNL     1      24.300   2.837  51.416  1.00  0.00     0.094 C 
HETATM    4  C7  UNL     1      23.969   3.767  52.476  1.00  0.00    -0.024 C 
HETATM    5  C8  UNL     1      23.328   4.857  53.002  1.00  0.00    -0.024 C 
HETATM    6  C9  UNL     1      22.804   4.962  51.661  1.00  0.00     0.053 C 
HETATM    7  C10 UNL     1      22.039   5.917  51.192  1.00  0.00    -0.040 C 
HETATM    8  C11 UNL     1      22.141   5.078  49.948  1.00  0.00     0.011 C 
HETATM    9  C12 UNL     1      21.327   7.000  50.396  1.00  0.00     0.005 C 
HETATM   10  C13 UNL     1      21.583   7.520  49.161  1.00  0.00     0.087 C 
HETATM   11  P2  UNL     1      22.954   7.042  48.009  1.00  0.00    -0.123 P 
HETATM   12  C14 UNL     1      24.622   7.321  48.816  1.00  0.00    -0.015 A 
HETATM   13  C15 UNL     1      25.707   6.594  49.206  1.00  0.00     0.091 A 
HETATM   14  N1  UNL     1      26.772   7.357  49.812  1.00  0.00    -0.385 N 
HETATM   15  C16 UNL     1      26.931   8.792  50.018  1.00  0.00     0.147 A 
HETATM   16  C17 UNL     1      25.694   9.495  49.569  1.00  0.00    -0.007 A 
HETATM   17  C18 UNL     1      24.726   8.755  49.047  1.00  0.00     0.011 A 
HETATM   18  C19 UNL     1      25.900   5.125  49.080  1.00  0.00     0.405 A 
HETATM   19  O2  UNL     1      25.596   5.053  50.342  1.00  0.00    -0.138 OA
HETATM   20  N2  UNL     1      25.831   3.941  49.880  1.00  0.00     0.121 N 
HETATM   21  H18 UNL     1      22.841   7.889  46.829  1.00  0.00     0.052 HD
HETATM   22  H19 UNL     1      27.542   6.771  50.159  1.00  0.00     0.159 HD
HETATM   23  H24 UNL     1      26.094   3.317  49.015  1.00  0.00     0.329 HD
ENDROOT
BRANCH   1  24
HETATM   24  C3  UNL     1      26.751   1.080  52.059  1.00  0.00     0.112 C 
BRANCH  24  25
HETATM   25  C2  UNL     1      27.875   1.180  53.024  1.00  0.00     0.151 C 
HETATM   26  O1  UNL     1      28.054   2.286  52.583  1.00  0.00    -0.293 OA
BRANCH  25  27
HETATM   27  P1  UNL     1      28.175  -0.266  54.089  1.00  0.00    -0.059 P 
HETATM   28  C1  UNL     1      29.734  -1.130  53.613  1.00  0.00     0.049 C 
HETATM   29  H4  UNL     1      27.055  -1.170  53.967  1.00  0.00     0.065 HD
ENDBRANCH  25  27
ENDBRANCH  24  25
ENDBRANCH   1  24
TORSDOF 3
ENDMDL
MODEL 4
REMARK VINA RESULT:      -7.4      2.221      4.225
REMARK  3 active torsions:
REMARK  status: ('A' for Active; 'I' for Inactive)
REMARK    1  A    between atoms: P1_2  and  C2_3 
REMARK    2  A    between atoms: C2_3  and  C3_5 
REMARK    3  A    between atoms: C3_5  and  C4_6 
ROOT
HETATM    1  C4  UNL     1      25.292   0.099  52.572  1.00  0.00     0.017 C 
HETATM    2  C5  UNL     1      25.179   1.347  52.173  1.00  0.00     0.148 C 
HETATM    3  C6  UNL     1      26.151   2.438  51.869  1.00  0.00     0.094 C 
HETATM    4  C7  UNL     1      26.476   2.652  50.473  1.00  0.00    -0.024 C 
HETATM    5  C8  UNL     1      26.466   3.362  49.302  1.00  0.00    -0.024 C 
HETATM    6  C9  UNL     1      25.692   4.292  50.089  1.00  0.00     0.053 C 
HETATM    7  C10 UNL     1      25.123   5.393  49.665  1.00  0.00    -0.040 C 
HETATM    8  C11 UNL     1      24.712   5.469  51.110  1.00  0.00     0.011 C 
HETATM    9  C12 UNL     1      24.230   6.584  49.354  1.00  0.00     0.005 C 
HETATM   10  C13 UNL     1      22.961   6.883  49.757  1.00  0.00     0.087 C 
HETATM   11  P2  UNL     1      21.873   5.873  50.867  1.00  0.00    -0.123 P 
HETATM   12  C14 UNL     1      21.575   4.175  50.132  1.00  0.00    -0.015 A 
HETATM   13  C15 UNL     1      21.822   2.870  50.435  1.00  0.00     0.091 A 
HETATM   14  N1  UNL     1      21.350   1.914  49.461  1.00  0.00    -0.385 N 
HETATM   15  C16 UNL     1      20.583   2.089  48.233  1.00  0.00     0.147 A 
HETATM   16  C17 UNL     1      20.372   3.546  47.988  1.00  0.00    -0.007 A 
HETATM   17  C18 UNL     1      20.848   4.394  48.890  1.00  0.00     0.011 A 
HETATM   18  C19 UNL     1      22.519   2.339  51.636  1.00  0.00     0.405 A 
HETATM   19  O2  UNL     1      23.562   2.195  50.875  1.00  0.00    -0.138 OA
HETATM   20  N2  UNL     1      23.799   1.829  52.021  1.00  0.00     0.121 N 
HETATM   21  H18 UNL     1      20.604   6.578  50.985  1.00  0.00     0.052 HD
HETATM   22  H19 UNL     1      21.616   0.946  49.683  1.00  0.00     0.159 HD
HETATM   23  H24 UNL     1      23.457   1.697  53.057  1.00  0.00     0.329 HD
ENDROOT
BRANCH   1  24
HETATM   24  C3  UNL     1      26.610  -0.469  52.793  1.00  0.00     0.112 C 
BRANCH  24  25
HETATM   25  C2  UNL     1      27.023  -0.321  54.211  1.00  0.00     0.151 C 
HETATM   26  O1  UNL     1      25.960  -0.812  54.491  1.00  0.00    -0.293 OA
BRANCH  25  27
HETATM   27  P1  UNL     1      28.662   0.413  54.518  1.00  0.00    -0.059 P 
HETATM   28  C1  UNL     1      29.975  -0.479  53.577  1.00  0.00     0.049 C 
HETATM   29  H4  UNL     1      28.939   0.346  55.933  1.00  0.00     0.065 HD
ENDBRANCH  25  27
ENDBRANCH  24  25
ENDBRANCH   1  24
TORSDOF 3
ENDMDL
MODEL 5
REMARK VINA RESULT:      -7.4      3.380      5.672
REMARK  3 active torsions:
REMARK  status: ('A' for Active; 'I' for Inactive)
REMARK    1  A    between atoms: P1_2  and  C2_3 
REMARK    2  A    between atoms: C2_3  and  C3_5 
REMARK    3  A    between atoms: C3_5  and  C4_6 
ROOT
HETATM    1  C4  UNL     1      23.715   1.224  51.883  1.00  0.00     0.017 C 
HETATM    2  C5  UNL     1      24.122   2.378  51.401  1.00  0.00     0.148 C 
HETATM    3  C6  UNL     1      25.408   3.133  51.449  1.00  0.00     0.094 C 
HETATM    4  C7  UNL     1      26.272   3.028  50.291  1.00  0.00    -0.024 C 
HETATM    5  C8  UNL     1      26.899   3.514  49.175  1.00  0.00    -0.024 C 
HETATM    6  C9  UNL     1      26.194   4.722  49.533  1.00  0.00     0.053 C 
HETATM    7  C10 UNL     1      26.165   5.843  48.854  1.00  0.00    -0.040 C 
HETATM    8  C11 UNL     1      25.292   6.255  50.007  1.00  0.00     0.011 C 
HETATM    9  C12 UNL     1      25.834   7.146  48.145  1.00  0.00     0.005 C 
HETATM   10  C13 UNL     1      24.651   7.807  47.990  1.00  0.00     0.087 C 
HETATM   11  P2  UNL     1      22.989   7.291  48.627  1.00  0.00    -0.123 P 
HETATM   12  C14 UNL     1      22.506   5.619  47.932  1.00  0.00    -0.015 A 
HETATM   13  C15 UNL     1      22.236   4.361  48.382  1.00  0.00     0.091 A 
HETATM   14  N1  UNL     1      21.902   3.401  47.357  1.00  0.00    -0.385 N 
HETATM   15  C16 UNL     1      21.727   3.552  45.917  1.00  0.00     0.147 A 
HETATM   16  C17 UNL     1      22.051   4.955  45.525  1.00  0.00    -0.007 A 
HETATM   17  C18 UNL     1      22.385   5.798  46.493  1.00  0.00     0.011 A 
HETATM   18  C19 UNL     1      22.257   3.883  49.790  1.00  0.00     0.405 A 
HETATM   19  O2  UNL     1      23.417   3.366  49.519  1.00  0.00    -0.138 OA
HETATM   20  N2  UNL     1      23.098   3.149  50.683  1.00  0.00     0.121 N 
HETATM   21  H18 UNL     1      22.027   8.293  48.187  1.00  0.00     0.052 HD
HETATM   22  H19 UNL     1      21.775   2.449  47.722  1.00  0.00     0.159 HD
HETATM   23  H24 UNL     1      22.376   3.277  51.501  1.00  0.00     0.329 HD
ENDROOT
BRANCH   1  24
HETATM   24  C3  UNL     1      24.635   0.397  52.644  1.00  0.00     0.112 C 
BRANCH  24  25
HETATM   25  C2  UNL     1      23.904  -0.461  53.609  1.00  0.00     0.151 C 
HETATM   26  O1  UNL     1      24.942  -0.530  54.216  1.00  0.00    -0.293 OA
BRANCH  25  27
HETATM   27  P1  UNL     1      22.146  -0.781  53.258  1.00  0.00    -0.059 P 
HETATM   28  C1  UNL     1      21.057   0.122  54.442  1.00  0.00     0.049 C 
HETATM   29  H4  UNL     1      21.907  -2.202  53.355  1.00  0.00     0.065 HD
ENDBRANCH  25  27
ENDBRANCH  24  25
ENDBRANCH   1  24
TORSDOF 3
ENDMDL
MODEL 6
REMARK VINA RESULT:      -7.3      3.229      5.962
REMARK  3 active torsions:
REMARK  status: ('A' for Active; 'I' for Inactive)
REMARK    1  A    between atoms: P1_2  and  C2_3 
REMARK    2  A    between atoms: C2_3  and  C3_5 
REMARK    3  A    between atoms: C3_5  and  C4_6 
ROOT
HETATM    1  C4  UNL     1      25.280   5.447  49.786  1.00  0.00     0.017 C 
HETATM    2  C5  UNL     1      24.141   4.791  49.825  1.00  0.00     0.148 C 
HETATM    3  C6  UNL     1      23.050   4.535  48.841  1.00  0.00     0.094 C 
HETATM    4  C7  UNL     1      23.071   3.257  48.159  1.00  0.00    -0.024 C 
HETATM    5  C8  UNL     1      22.594   2.005  47.875  1.00  0.00    -0.024 C 
HETATM    6  C9  UNL     1      21.601   2.364  48.860  1.00  0.00     0.053 C 
HETATM    7  C10 UNL     1      20.647   1.596  49.327  1.00  0.00    -0.040 C 
HETATM    8  C11 UNL     1      20.339   2.840  50.113  1.00  0.00     0.011 C 
HETATM    9  C12 UNL     1      19.612   0.834  50.139  1.00  0.00     0.005 C 
HETATM   10  C13 UNL     1      19.349   0.828  51.478  1.00  0.00     0.087 C 
HETATM   11  P2  UNL     1      20.222   1.799  52.793  1.00  0.00    -0.123 P 
HETATM   12  C14 UNL     1      22.045   1.368  52.832  1.00  0.00    -0.015 A 
HETATM   13  C15 UNL     1      23.247   1.979  52.636  1.00  0.00     0.091 A 
HETATM   14  N1  UNL     1      24.402   1.128  52.800  1.00  0.00    -0.385 N 
HETATM   15  C16 UNL     1      24.520  -0.265  53.215  1.00  0.00     0.147 A 
HETATM   16  C17 UNL     1      23.156  -0.843  53.396  1.00  0.00    -0.007 A 
HETATM   17  C18 UNL     1      22.121  -0.037  53.204  1.00  0.00     0.011 A 
HETATM   18  C19 UNL     1      23.488   3.400  52.271  1.00  0.00     0.405 A 
HETATM   19  O2  UNL     1      23.684   2.978  51.058  1.00  0.00    -0.138 OA
HETATM   20  N2  UNL     1      23.811   4.196  51.128  1.00  0.00     0.121 N 
HETATM   21  H18 UNL     1      19.614   1.443  54.068  1.00  0.00     0.052 HD
HETATM   22  H19 UNL     1      25.287   1.600  52.575  1.00  0.00     0.159 HD
HETATM   23  H24 UNL     1      23.777   5.113  51.731  1.00  0.00     0.329 HD
ENDROOT
BRANCH   1  24
HETATM   24  C3  UNL     1      25.687   6.108  48.559  1.00  0.00     0.112 C 
BRANCH  24  25
HETATM   25  C2  UNL     1      27.142   6.404  48.571  1.00  0.00     0.151 C 
HETATM   26  O1  UNL     1      27.307   5.212  48.538  1.00  0.00    -0.293 OA
BRANCH  25  27
HETATM   27  P1  UNL     1      27.623   8.160  48.619  1.00  0.00    -0.059 P 
HETATM   28  C1  UNL     1      27.074   8.957  50.190  1.00  0.00     0.049 C 
HETATM   29  H4  UNL     1      27.025   8.834  47.490  1.00  0.00     0.065 HD
ENDBRANCH  25  27
ENDBRANCH  24  25
ENDBRANCH   1  24
TORSDOF 3
ENDMDL
MODEL 7
REMARK VINA RESULT:      -7.1      2.036      2.764
REMARK  3 active torsions:
REMARK  status: ('A' for Active; 'I' for Inactive)
REMARK    1  A    between atoms: P1_2  and  C2_3 
REMARK    2  A    between atoms: C2_3  and  C3_5 
REMARK    3  A    between atoms: C3_5  and  C4_6 
ROOT
HETATM    1  C4  UNL     1      25.066   0.991  52.743  1.00  0.00     0.017 C 
HETATM    2  C5  UNL     1      24.097   1.407  51.957  1.00  0.00     0.148 C 
HETATM    3  C6  UNL     1      22.668   1.021  51.767  1.00  0.00     0.094 C 
HETATM    4  C7  UNL     1      21.675   1.844  52.426  1.00  0.00    -0.024 C 
HETATM    5  C8  UNL     1      20.644   2.744  52.452  1.00  0.00    -0.024 C 
HETATM    6  C9  UNL     1      20.827   2.713  51.020  1.00  0.00     0.053 C 
HETATM    7  C10 UNL     1      20.201   3.449  50.135  1.00  0.00    -0.040 C 
HETATM    8  C11 UNL     1      21.070   2.657  49.197  1.00  0.00     0.011 C 
HETATM    9  C12 UNL     1      19.753   4.321  48.973  1.00  0.00     0.005 C 
HETATM   10  C13 UNL     1      20.458   4.884  47.949  1.00  0.00     0.087 C 
HETATM   11  P2  UNL     1      22.281   4.754  47.643  1.00  0.00    -0.123 P 
HETATM   12  C14 UNL     1      23.244   5.438  49.097  1.00  0.00    -0.015 A 
HETATM   13  C15 UNL     1      24.131   5.001  50.036  1.00  0.00     0.091 A 
HETATM   14  N1  UNL     1      24.577   6.004  50.973  1.00  0.00    -0.385 N 
HETATM   15  C16 UNL     1      24.306   7.435  51.053  1.00  0.00     0.147 A 
HETATM   16  C17 UNL     1      23.324   7.811  49.994  1.00  0.00    -0.007 A 
HETATM   17  C18 UNL     1      22.914   6.853  49.173  1.00  0.00     0.011 A 
HETATM   18  C19 UNL     1      24.669   3.624  50.196  1.00  0.00     0.405 A 
HETATM   19  O2  UNL     1      23.816   3.484  51.165  1.00  0.00    -0.138 OA
HETATM   20  N2  UNL     1      24.476   2.462  51.007  1.00  0.00     0.121 N 
HETATM   21  H18 UNL     1      22.576   5.544  46.454  1.00  0.00     0.052 HD
HETATM   22  H19 UNL     1      25.187   5.627  51.709  1.00  0.00     0.159 HD
HETATM   23  H24 UNL     1      25.252   1.920  50.450  1.00  0.00     0.329 HD
ENDROOT
BRANCH   1  24
HETATM   24  C3  UNL     1      24.812  -0.077  53.694  1.00  0.00     0.112 C 
BRANCH  24  25
HETATM   25  C2  UNL     1      26.016  -0.355  54.516  1.00  0.00     0.151 C 
HETATM   26  O1  UNL     1      25.330  -1.139  55.119  1.00  0.00    -0.293 OA
BRANCH  25  27
HETATM   27  P1  UNL     1      27.529   0.568  54.095  1.00  0.00    -0.059 P 
HETATM   28  C1  UNL     1      28.975  -0.566  53.932  1.00  0.00     0.049 C 
HETATM   29  H4  UNL     1      27.780   1.540  55.134  1.00  0.00     0.065 HD
ENDBRANCH  25  27
ENDBRANCH  24  25
ENDBRANCH   1  24
TORSDOF 3
ENDMDL
MODEL 8
REMARK VINA RESULT:      -7.1      6.342      8.430
REMARK  3 active torsions:
REMARK  status: ('A' for Active; 'I' for Inactive)
REMARK    1  A    between atoms: P1_2  and  C2_3 
REMARK    2  A    between atoms: C2_3  and  C3_5 
REMARK    3  A    between atoms: C3_5  and  C4_6 
ROOT
HETATM    1  C4  UNL     1      26.504   3.259  49.847  1.00  0.00     0.017 C 
HETATM    2  C5  UNL     1      26.476   4.416  49.223  1.00  0.00     0.148 C 
HETATM    3  C6  UNL     1      25.433   5.461  49.007  1.00  0.00     0.094 C 
HETATM    4  C7  UNL     1      25.472   6.614  49.883  1.00  0.00    -0.024 C 
HETATM    5  C8  UNL     1      25.668   7.940  50.165  1.00  0.00    -0.024 C 
HETATM    6  C9  UNL     1      25.995   7.998  48.760  1.00  0.00     0.053 C 
HETATM    7  C10 UNL     1      26.432   9.042  48.100  1.00  0.00    -0.040 C 
HETATM    8  C11 UNL     1      26.404   8.055  46.966  1.00  0.00     0.011 C 
HETATM    9  C12 UNL     1      27.125  10.050  47.197  1.00  0.00     0.005 C 
HETATM   10  C13 UNL     1      28.148   9.902  46.307  1.00  0.00     0.087 C 
HETATM   11  P2  UNL     1      29.061   8.341  45.902  1.00  0.00    -0.123 P 
HETATM   12  C14 UNL     1      29.879   7.638  47.435  1.00  0.00    -0.015 A 
HETATM   13  C15 UNL     1      29.818   6.516  48.206  1.00  0.00     0.091 A 
HETATM   14  N1  UNL     1      30.719   6.496  49.334  1.00  0.00    -0.385 N 
HETATM   15  C16 UNL     1      31.747   7.438  49.761  1.00  0.00     0.147 A 
HETATM   16  C17 UNL     1      31.728   8.629  48.863  1.00  0.00    -0.007 A 
HETATM   17  C18 UNL     1      30.864   8.623  47.857  1.00  0.00     0.011 A 
HETATM   18  C19 UNL     1      28.933   5.336  48.013  1.00  0.00     0.405 A 
HETATM   19  O2  UNL     1      28.191   5.833  48.957  1.00  0.00    -0.138 OA
HETATM   20  N2  UNL     1      27.722   4.781  48.534  1.00  0.00     0.121 N 
HETATM   21  H18 UNL     1      30.085   8.681  44.923  1.00  0.00     0.052 HD
HETATM   22  H19 UNL     1      30.597   5.670  49.934  1.00  0.00     0.159 HD
HETATM   23  H24 UNL     1      27.783   3.939  47.833  1.00  0.00     0.329 HD
ENDROOT
BRANCH   1  24
HETATM   24  C3  UNL     1      25.313   2.780  50.528  1.00  0.00     0.112 C 
BRANCH  24  25
HETATM   25  C2  UNL     1      25.529   2.721  51.996  1.00  0.00     0.151 C 
HETATM   26  O1  UNL     1      24.589   3.469  52.086  1.00  0.00    -0.293 OA
BRANCH  25  27
HETATM   27  P1  UNL     1      26.902   1.679  52.584  1.00  0.00    -0.059 P 
HETATM   28  C1  UNL     1      26.707  -0.063  52.010  1.00  0.00     0.049 C 
HETATM   29  H4  UNL     1      26.928   1.722  54.027  1.00  0.00     0.065 HD
ENDBRANCH  25  27
ENDBRANCH  24  25
ENDBRANCH   1  24
TORSDOF 3
ENDMDL
MODEL 9
REMARK VINA RESULT:      -6.9      5.117      7.400
REMARK  3 active torsions:
REMARK  status: ('A' for Active; 'I' for Inactive)
REMARK    1  A    between atoms: P1_2  and  C2_3 
REMARK    2  A    between atoms: C2_3  and  C3_5 
REMARK    3  A    between atoms: C3_5  and  C4_6 
ROOT
HETATM    1  C4  UNL     1      28.455   5.439  48.430  1.00  0.00     0.017 C 
HETATM    2  C5  UNL     1      27.332   6.048  48.741  1.00  0.00     0.148 C 
HETATM    3  C6  UNL     1      26.807   7.432  48.549  1.00  0.00     0.094 C 
HETATM    4  C7  UNL     1      25.911   7.641  47.431  1.00  0.00    -0.024 C 
HETATM    5  C8  UNL     1      24.694   7.912  46.862  1.00  0.00    -0.024 C 
HETATM    6  C9  UNL     1      24.269   7.957  48.241  1.00  0.00     0.053 C 
HETATM    7  C10 UNL     1      23.043   8.114  48.677  1.00  0.00    -0.040 C 
HETATM    8  C11 UNL     1      23.745   8.017  50.004  1.00  0.00     0.011 C 
HETATM    9  C12 UNL     1      21.701   8.083  49.391  1.00  0.00     0.005 C 
HETATM   10  C13 UNL     1      21.251   7.311  50.421  1.00  0.00     0.087 C 
HETATM   11  P2  UNL     1      22.187   5.985  51.317  1.00  0.00    -0.123 P 
HETATM   12  C14 UNL     1      22.723   4.639  50.130  1.00  0.00    -0.015 A 
HETATM   13  C15 UNL     1      23.878   4.089  49.657  1.00  0.00     0.091 A 
HETATM   14  N1  UNL     1      23.703   3.021  48.703  1.00  0.00    -0.385 N 
HETATM   15  C16 UNL     1      22.501   2.365  48.201  1.00  0.00     0.147 A 
HETATM   16  C17 UNL     1      21.297   3.041  48.768  1.00  0.00    -0.007 A 
HETATM   17  C18 UNL     1      21.500   4.039  49.618  1.00  0.00     0.011 A 
HETATM   18  C19 UNL     1      25.270   4.473  50.011  1.00  0.00     0.405 A 
HETATM   19  O2  UNL     1      25.300   5.116  48.882  1.00  0.00    -0.138 OA
HETATM   20  N2  UNL     1      26.364   5.227  49.482  1.00  0.00     0.121 N 
HETATM   21  H18 UNL     1      21.286   5.420  52.313  1.00  0.00     0.052 HD
HETATM   22  H19 UNL     1      24.590   2.678  48.313  1.00  0.00     0.159 HD
HETATM   23  H24 UNL     1      26.971   5.008  50.371  1.00  0.00     0.329 HD
ENDROOT
BRANCH   1  24
HETATM   24  C3  UNL     1      29.499   6.168  47.731  1.00  0.00     0.112 C 
BRANCH  24  25
HETATM   25  C2  UNL     1      30.674   6.390  48.611  1.00  0.00     0.151 C 
HETATM   26  O1  UNL     1      30.666   5.200  48.793  1.00  0.00    -0.293 OA
BRANCH  25  27
HETATM   27  P1  UNL     1      31.255   8.108  48.788  1.00  0.00    -0.059 P 
HETATM   28  C1  UNL     1      29.877   9.227  49.290  1.00  0.00     0.049 C 
HETATM   29  H4  UNL     1      31.806   8.541  47.525  1.00  0.00     0.065 HD
ENDBRANCH  25  27
ENDBRANCH  24  25
ENDBRANCH   1  24
TORSDOF 3
ENDMDL
