MODEL 1
REMARK VINA RESULT:      -8.1      0.000      0.000
REMARK  6 active torsions:
REMARK  status: ('A' for Active; 'I' for Inactive)
REMARK    1  A    between atoms: O1_1  and  C1_2 
REMARK    2  A    between atoms: C1_2  and  C2_3 
REMARK    3  A    between atoms: C2_3  and  C10_13 
REMARK    4  A    between atoms: C3_4  and  C4_5 
REMARK    5  A    between atoms: C7_8  and  O2_9 
REMARK    6  A    between atoms: C8_10  and  O3_11 
ROOT
HETATM    1  C2  UNL     1      23.901   0.852  52.923  1.00  0.00    -0.033 C 
HETATM    2  C3  UNL     1      24.711  -0.104  53.319  1.00  0.00     0.018 C 
ENDROOT
BRANCH   1   3
HETATM    3  C1  UNL     1      24.196   2.213  52.415  1.00  0.00     0.200 C 
BRANCH   3   4
HETATM    4  O1  UNL     1      24.684   3.078  53.390  1.00  0.00    -0.397 OA
HETATM    5  H1  UNL     1      24.052   3.845  53.476  1.00  0.00     0.209 HD
ENDBRANCH   3   4
ENDBRANCH   1   3
BRANCH   1   6
HETATM    6  C10 UNL     1      22.448   0.579  52.993  1.00  0.00     0.115 C 
HETATM    7  C11 UNL     1      22.047  -0.352  54.112  1.00  0.00     0.056 C 
HETATM    8  C12 UNL     1      20.605  -0.738  54.071  1.00  0.00    -0.024 C 
HETATM    9  C13 UNL     1      19.409  -0.746  53.460  1.00  0.00    -0.004 C 
HETATM   10  C14 UNL     1      18.721  -0.307  52.250  1.00  0.00    -0.000 C 
HETATM   11  C15 UNL     1      18.878   0.294  51.088  1.00  0.00     0.001 C 
HETATM   12  C16 UNL     1      19.920   0.904  50.271  1.00  0.00     0.017 C 
HETATM   13  C17 UNL     1      21.205   0.971  50.583  1.00  0.00     0.083 C 
HETATM   14  N1  UNL     1      21.742   0.442  51.775  1.00  0.00    -0.390 N 
HETATM   15  H19 UNL     1      21.471  -0.558  51.662  1.00  0.00     0.159 HD
ENDBRANCH   1   6
BRANCH   2  16
HETATM   16  C4  UNL     1      26.142  -0.279  53.444  1.00  0.00    -0.033 A 
HETATM   17  C5  UNL     1      26.796  -1.332  52.816  1.00  0.00     0.014 A 
HETATM   18  C6  UNL     1      28.151  -1.537  52.955  1.00  0.00     0.040 A 
HETATM   19  C7  UNL     1      28.908  -0.689  53.731  1.00  0.00     0.098 A 
HETATM   20  C8  UNL     1      28.322   0.391  54.390  1.00  0.00     0.099 A 
HETATM   21  C9  UNL     1      26.966   0.544  54.215  1.00  0.00     0.050 A 
BRANCH  19  22
HETATM   22  O2  UNL     1      30.281  -0.887  53.876  1.00  0.00    -0.358 OA
HETATM   23  H7  UNL     1      30.948  -0.118  53.948  1.00  0.00     0.217 HD
ENDBRANCH  19  22
BRANCH  20  24
HETATM   24  O3  UNL     1      29.053   1.263  55.177  1.00  0.00    -0.358 OA
HETATM   25  H8  UNL     1      28.745   1.594  56.085  1.00  0.00     0.217 HD
ENDBRANCH  20  24
ENDBRANCH   2  16
TORSDOF 6
ENDMDL
MODEL 2
REMARK VINA RESULT:      -8.0      4.054      6.731
REMARK  6 active torsions:
REMARK  status: ('A' for Active; 'I' for Inactive)
REMARK    1  A    between atoms: O1_1  and  C1_2 
REMARK    2  A    between atoms: C1_2  and  C2_3 
REMARK    3  A    between atoms: C2_3  and  C10_13 
REMARK    4  A    between atoms: C3_4  and  C4_5 
REMARK    5  A    between atoms: C7_8  and  O2_9 
REMARK    6  A    between atoms: C8_10  and  O3_11 
ROOT
HETATM    1  C2  UNL     1      24.306   3.512  51.626  1.00  0.00    -0.033 C 
HETATM    2  C3  UNL     1      24.520   2.228  51.807  1.00  0.00     0.018 C 
ENDROOT
BRANCH   1   3
HETATM    3  C1  UNL     1      23.359   4.433  52.295  1.00  0.00     0.200 C 
BRANCH   3   4
HETATM    4  O1  UNL     1      23.892   5.067  53.413  1.00  0.00    -0.397 OA
HETATM    5  H1  UNL     1      24.589   5.713  53.107  1.00  0.00     0.209 HD
ENDBRANCH   3   4
ENDBRANCH   1   3
BRANCH   1   6
HETATM    6  C10 UNL     1      25.106   4.188  50.580  1.00  0.00     0.115 C 
HETATM    7  C11 UNL     1      26.263   3.368  50.057  1.00  0.00     0.056 C 
HETATM    8  C12 UNL     1      27.147   4.123  49.121  1.00  0.00    -0.024 C 
HETATM    9  C13 UNL     1      27.516   5.266  48.520  1.00  0.00    -0.004 C 
HETATM   10  C14 UNL     1      27.205   6.690  48.442  1.00  0.00    -0.000 C 
HETATM   11  C15 UNL     1      26.437   7.645  48.927  1.00  0.00     0.001 C 
HETATM   12  C16 UNL     1      25.379   7.846  49.909  1.00  0.00     0.017 C 
HETATM   13  C17 UNL     1      24.882   6.916  50.709  1.00  0.00     0.083 C 
HETATM   14  N1  UNL     1      25.330   5.579  50.715  1.00  0.00    -0.390 N 
HETATM   15  H19 UNL     1      26.334   5.729  50.951  1.00  0.00     0.159 HD
ENDBRANCH   1   6
BRANCH   2  16
HETATM   16  C4  UNL     1      23.987   1.188  52.662  1.00  0.00    -0.033 A 
HETATM   17  C5  UNL     1      22.624   0.931  52.717  1.00  0.00     0.014 A 
HETATM   18  C6  UNL     1      22.095  -0.028  53.552  1.00  0.00     0.040 A 
HETATM   19  C7  UNL     1      22.917  -0.773  54.367  1.00  0.00     0.098 A 
HETATM   20  C8  UNL     1      24.297  -0.572  54.365  1.00  0.00     0.099 A 
HETATM   21  C9  UNL     1      24.766   0.400  53.512  1.00  0.00     0.050 A 
BRANCH  19  22
HETATM   22  O2  UNL     1      22.391  -1.747  55.215  1.00  0.00    -0.358 OA
HETATM   23  H7  UNL     1      22.514  -2.748  55.054  1.00  0.00     0.217 HD
ENDBRANCH  19  22
BRANCH  20  24
HETATM   24  O3  UNL     1      25.152  -1.302  55.171  1.00  0.00    -0.358 OA
HETATM   25  H8  UNL     1      26.071  -0.980  55.453  1.00  0.00     0.217 HD
ENDBRANCH  20  24
ENDBRANCH   2  16
TORSDOF 6
ENDMDL
MODEL 3
REMARK VINA RESULT:      -7.9      1.337      1.794
REMARK  6 active torsions:
REMARK  status: ('A' for Active; 'I' for Inactive)
REMARK    1  A    between atoms: O1_1  and  C1_2 
REMARK    2  A    between atoms: C1_2  and  C2_3 
REMARK    3  A    between atoms: C2_3  and  C10_13 
REMARK    4  A    between atoms: C3_4  and  C4_5 
REMARK    5  A    between atoms: C7_8  and  O2_9 
REMARK    6  A    between atoms: C8_10  and  O3_11 
ROOT
HETATM    1  C2  UNL     1      23.364  -0.748  54.081  1.00  0.00    -0.033 C 
HETATM    2  C3  UNL     1      24.387  -0.304  53.387  1.00  0.00     0.018 C 
ENDROOT
BRANCH   1   3
HETATM    3  C1  UNL     1      23.321  -1.568  55.314  1.00  0.00     0.200 C 
BRANCH   3   4
HETATM    4  O1  UNL     1      24.377  -1.320  56.186  1.00  0.00    -0.397 OA
HETATM    5  H1  UNL     1      24.108  -0.587  56.807  1.00  0.00     0.209 HD
ENDBRANCH   3   4
ENDBRANCH   1   3
BRANCH   1   6
HETATM    6  C10 UNL     1      22.012  -0.415  53.578  1.00  0.00     0.115 C 
HETATM    7  C11 UNL     1      20.900  -1.211  54.219  1.00  0.00     0.056 C 
HETATM    8  C12 UNL     1      19.566  -0.974  53.592  1.00  0.00    -0.024 C 
HETATM    9  C13 UNL     1      18.802  -0.436  52.627  1.00  0.00    -0.004 C 
HETATM   10  C14 UNL     1      18.864   0.363  51.407  1.00  0.00    -0.000 C 
HETATM   11  C15 UNL     1      19.676   0.962  50.561  1.00  0.00     0.001 C 
HETATM   12  C16 UNL     1      21.099   1.177  50.332  1.00  0.00     0.017 C 
HETATM   13  C17 UNL     1      22.083   0.687  51.071  1.00  0.00     0.083 C 
HETATM   14  N1  UNL     1      21.870  -0.132  52.199  1.00  0.00    -0.390 N 
HETATM   15  H19 UNL     1      21.356  -0.920  51.752  1.00  0.00     0.159 HD
ENDBRANCH   1   6
BRANCH   2  16
HETATM   16  C4  UNL     1      25.830  -0.391  53.475  1.00  0.00    -0.033 A 
HETATM   17  C5  UNL     1      26.532  -1.387  52.809  1.00  0.00     0.014 A 
HETATM   18  C6  UNL     1      27.900  -1.509  52.911  1.00  0.00     0.040 A 
HETATM   19  C7  UNL     1      28.622  -0.631  53.688  1.00  0.00     0.098 A 
HETATM   20  C8  UNL     1      27.986   0.395  54.386  1.00  0.00     0.099 A 
HETATM   21  C9  UNL     1      26.619   0.466  54.245  1.00  0.00     0.050 A 
BRANCH  19  22
HETATM   22  O2  UNL     1      30.008  -0.746  53.797  1.00  0.00    -0.358 OA
HETATM   23  H7  UNL     1      30.533  -1.526  53.400  1.00  0.00     0.217 HD
ENDBRANCH  19  22
BRANCH  20  24
HETATM   24  O3  UNL     1      28.680   1.294  55.175  1.00  0.00    -0.358 OA
HETATM   25  H8  UNL     1      28.779   1.200  56.180  1.00  0.00     0.217 HD
ENDBRANCH  20  24
ENDBRANCH   2  16
TORSDOF 6
ENDMDL
MODEL 4
REMARK VINA RESULT:      -7.9      2.589      7.401
REMARK  6 active torsions:
REMARK  status: ('A' for Active; 'I' for Inactive)
REMARK    1  A    between atoms: O1_1  and  C1_2 
REMARK    2  A    between atoms: C1_2  and  C2_3 
REMARK    3  A    between atoms: C2_3  and  C10_13 
REMARK    4  A    between atoms: C3_4  and  C4_5 
REMARK    5  A    between atoms: C7_8  and  O2_9 
REMARK    6  A    between atoms: C8_10  and  O3_11 
ROOT
HETATM    1  C2  UNL     1      24.918   1.310  53.206  1.00  0.00    -0.033 C 
HETATM    2  C3  UNL     1      24.044   0.370  52.926  1.00  0.00     0.018 C 
ENDROOT
BRANCH   1   3
HETATM    3  C1  UNL     1      24.759   2.782  53.271  1.00  0.00     0.200 C 
BRANCH   3   4
HETATM    4  O1  UNL     1      24.747   3.397  52.023  1.00  0.00    -0.397 OA
HETATM    5  H1  UNL     1      25.668   3.723  51.822  1.00  0.00     0.209 HD
ENDBRANCH   3   4
ENDBRANCH   1   3
BRANCH   1   6
HETATM    6  C10 UNL     1      26.305   0.880  53.493  1.00  0.00     0.115 C 
HETATM    7  C11 UNL     1      27.289   2.017  53.636  1.00  0.00     0.056 C 
HETATM    8  C12 UNL     1      28.704   1.560  53.769  1.00  0.00    -0.024 C 
HETATM    9  C13 UNL     1      29.631   0.588  53.747  1.00  0.00    -0.004 C 
HETATM   10  C14 UNL     1      29.806  -0.844  53.523  1.00  0.00    -0.000 C 
HETATM   11  C15 UNL     1      29.187  -1.958  53.189  1.00  0.00     0.001 C 
HETATM   12  C16 UNL     1      27.865  -2.437  52.807  1.00  0.00     0.017 C 
HETATM   13  C17 UNL     1      26.784  -1.685  52.659  1.00  0.00     0.083 C 
HETATM   14  N1  UNL     1      26.780  -0.289  52.853  1.00  0.00    -0.390 N 
HETATM   15  H19 UNL     1      27.489  -0.009  52.141  1.00  0.00     0.159 HD
ENDBRANCH   1   6
BRANCH   2  16
HETATM   16  C4  UNL     1      22.641   0.316  52.576  1.00  0.00    -0.033 A 
HETATM   17  C5  UNL     1      22.179   0.829  51.371  1.00  0.00     0.014 A 
HETATM   18  C6  UNL     1      20.843   0.820  51.038  1.00  0.00     0.040 A 
HETATM   19  C7  UNL     1      19.912   0.291  51.903  1.00  0.00     0.098 A 
HETATM   20  C8  UNL     1      20.301  -0.245  53.131  1.00  0.00     0.099 A 
HETATM   21  C9  UNL     1      21.648  -0.207  53.408  1.00  0.00     0.050 A 
BRANCH  19  22
HETATM   22  O2  UNL     1      18.557   0.276  51.573  1.00  0.00    -0.358 OA
HETATM   23  H7  UNL     1      18.220   0.161  50.617  1.00  0.00     0.217 HD
ENDBRANCH  19  22
BRANCH  20  24
HETATM   24  O3  UNL     1      19.392  -0.784  54.023  1.00  0.00    -0.358 OA
HETATM   25  H8  UNL     1      19.659  -1.305  54.851  1.00  0.00     0.217 HD
ENDBRANCH  20  24
ENDBRANCH   2  16
TORSDOF 6
ENDMDL
MODEL 5
REMARK VINA RESULT:      -7.7      1.041      2.147
REMARK  6 active torsions:
REMARK  status: ('A' for Active; 'I' for Inactive)
REMARK    1  A    between atoms: O1_1  and  C1_2 
REMARK    2  A    between atoms: C1_2  and  C2_3 
REMARK    3  A    between atoms: C2_3  and  C10_13 
REMARK    4  A    between atoms: C3_4  and  C4_5 
REMARK    5  A    between atoms: C7_8  and  O2_9 
REMARK    6  A    between atoms: C8_10  and  O3_11 
ROOT
HETATM    1  C2  UNL     1      24.316   1.305  52.444  1.00  0.00    -0.033 C 
HETATM    2  C3  UNL     1      25.199   0.390  52.773  1.00  0.00     0.018 C 
ENDROOT
BRANCH   1   3
HETATM    3  C1  UNL     1      24.480   2.758  52.202  1.00  0.00     0.200 C 
BRANCH   3   4
HETATM    4  O1  UNL     1      24.554   3.512  53.369  1.00  0.00    -0.397 OA
HETATM    5  H1  UNL     1      24.870   2.922  54.107  1.00  0.00     0.209 HD
ENDBRANCH   3   4
ENDBRANCH   1   3
BRANCH   1   6
HETATM    6  C10 UNL     1      22.911   0.865  52.295  1.00  0.00     0.115 C 
HETATM    7  C11 UNL     1      22.050   1.805  51.485  1.00  0.00     0.056 C 
HETATM    8  C12 UNL     1      20.606   1.426  51.477  1.00  0.00    -0.024 C 
HETATM    9  C13 UNL     1      19.589   0.666  51.918  1.00  0.00    -0.004 C 
HETATM   10  C14 UNL     1      19.265  -0.417  52.841  1.00  0.00    -0.000 C 
HETATM   11  C15 UNL     1      19.755  -1.217  53.767  1.00  0.00     0.001 C 
HETATM   12  C16 UNL     1      21.004  -1.492  54.466  1.00  0.00     0.017 C 
HETATM   13  C17 UNL     1      22.143  -0.837  54.300  1.00  0.00     0.083 C 
HETATM   14  N1  UNL     1      22.292   0.242  53.405  1.00  0.00    -0.390 N 
HETATM   15  H19 UNL     1      21.578   0.895  53.793  1.00  0.00     0.159 HD
ENDBRANCH   1   6
BRANCH   2  16
HETATM   16  C4  UNL     1      26.622   0.355  53.038  1.00  0.00    -0.033 A 
HETATM   17  C5  UNL     1      27.356  -0.811  52.870  1.00  0.00     0.014 A 
HETATM   18  C6  UNL     1      28.703  -0.874  53.153  1.00  0.00     0.040 A 
HETATM   19  C7  UNL     1      29.370   0.237  53.617  1.00  0.00     0.098 A 
HETATM   20  C8  UNL     1      28.699   1.445  53.809  1.00  0.00     0.099 A 
HETATM   21  C9  UNL     1      27.356   1.446  53.510  1.00  0.00     0.050 A 
BRANCH  19  22
HETATM   22  O2  UNL     1      30.733   0.184  53.905  1.00  0.00    -0.358 OA
HETATM   23  H7  UNL     1      31.425  -0.179  53.249  1.00  0.00     0.217 HD
ENDBRANCH  19  22
BRANCH  20  24
HETATM   24  O3  UNL     1      29.338   2.580  54.274  1.00  0.00    -0.358 OA
HETATM   25  H8  UNL     1      29.532   3.391  53.697  1.00  0.00     0.217 HD
ENDBRANCH  20  24
ENDBRANCH   2  16
TORSDOF 6
ENDMDL
MODEL 6
REMARK VINA RESULT:      -7.5      2.682      7.522
REMARK  6 active torsions:
REMARK  status: ('A' for Active; 'I' for Inactive)
REMARK    1  A    between atoms: O1_1  and  C1_2 
REMARK    2  A    between atoms: C1_2  and  C2_3 
REMARK    3  A    between atoms: C2_3  and  C10_13 
REMARK    4  A    between atoms: C3_4  and  C4_5 
REMARK    5  A    between atoms: C7_8  and  O2_9 
REMARK    6  A    between atoms: C8_10  and  O3_11 
ROOT
HETATM    1  C2  UNL     1      24.532   0.813  52.430  1.00  0.00    -0.033 C 
HETATM    2  C3  UNL     1      23.591  -0.069  52.678  1.00  0.00     0.018 C 
ENDROOT
BRANCH   1   3
HETATM    3  C1  UNL     1      24.434   2.226  51.995  1.00  0.00     0.200 C 
BRANCH   3   4
HETATM    4  O1  UNL     1      24.225   3.119  53.041  1.00  0.00    -0.397 OA
HETATM    5  H1  UNL     1      23.580   3.816  52.737  1.00  0.00     0.209 HD
ENDBRANCH   3   4
ENDBRANCH   1   3
BRANCH   1   6
HETATM    6  C10 UNL     1      25.935   0.365  52.578  1.00  0.00     0.115 C 
HETATM    7  C11 UNL     1      26.098  -1.133  52.686  1.00  0.00     0.056 C 
HETATM    8  C12 UNL     1      27.498  -1.554  52.991  1.00  0.00    -0.024 C 
HETATM    9  C13 UNL     1      28.766  -1.260  53.322  1.00  0.00    -0.004 C 
HETATM   10  C14 UNL     1      29.654  -0.147  53.643  1.00  0.00    -0.000 C 
HETATM   11  C15 UNL     1      29.713   1.156  53.824  1.00  0.00     0.001 C 
HETATM   12  C16 UNL     1      28.851   2.331  53.819  1.00  0.00     0.017 C 
HETATM   13  C17 UNL     1      27.542   2.327  53.615  1.00  0.00     0.083 C 
HETATM   14  N1  UNL     1      26.799   1.153  53.375  1.00  0.00    -0.390 N 
HETATM   15  H19 UNL     1      27.008   0.628  54.251  1.00  0.00     0.159 HD
ENDBRANCH   1   6
BRANCH   2  16
HETATM   16  C4  UNL     1      22.144  -0.095  52.648  1.00  0.00    -0.033 A 
HETATM   17  C5  UNL     1      21.412  -0.611  53.709  1.00  0.00     0.014 A 
HETATM   18  C6  UNL     1      20.036  -0.678  53.683  1.00  0.00     0.040 A 
HETATM   19  C7  UNL     1      19.337  -0.225  52.587  1.00  0.00     0.098 A 
HETATM   20  C8  UNL     1      20.004   0.308  51.484  1.00  0.00     0.099 A 
HETATM   21  C9  UNL     1      21.377   0.348  51.568  1.00  0.00     0.050 A 
BRANCH  19  22
HETATM   22  O2  UNL     1      17.944  -0.288  52.551  1.00  0.00    -0.358 OA
HETATM   23  H7  UNL     1      17.416  -1.090  52.897  1.00  0.00     0.217 HD
ENDBRANCH  19  22
BRANCH  20  24
HETATM   24  O3  UNL     1      19.333   0.772  50.367  1.00  0.00    -0.358 OA
HETATM   25  H8  UNL     1      18.345   0.999  50.360  1.00  0.00     0.217 HD
ENDBRANCH  20  24
ENDBRANCH   2  16
TORSDOF 6
ENDMDL
MODEL 7
REMARK VINA RESULT:      -7.4      1.767      2.376
REMARK  6 active torsions:
REMARK  status: ('A' for Active; 'I' for Inactive)
REMARK    1  A    between atoms: O1_1  and  C1_2 
REMARK    2  A    between atoms: C1_2  and  C2_3 
REMARK    3  A    between atoms: C2_3  and  C10_13 
REMARK    4  A    between atoms: C3_4  and  C4_5 
REMARK    5  A    between atoms: C7_8  and  O2_9 
REMARK    6  A    between atoms: C8_10  and  O3_11 
ROOT
HETATM    1  C2  UNL     1      24.289   1.297  52.149  1.00  0.00    -0.033 C 
HETATM    2  C3  UNL     1      24.855   0.355  52.869  1.00  0.00     0.018 C 
ENDROOT
BRANCH   1   3
HETATM    3  C1  UNL     1      24.889   2.314  51.254  1.00  0.00     0.200 C 
BRANCH   3   4
HETATM    4  O1  UNL     1      25.320   3.458  51.919  1.00  0.00    -0.397 OA
HETATM    5  H1  UNL     1      25.159   4.246  51.330  1.00  0.00     0.209 HD
ENDBRANCH   3   4
ENDBRANCH   1   3
BRANCH   1   6
HETATM    6  C10 UNL     1      22.816   1.412  52.226  1.00  0.00     0.115 C 
HETATM    7  C11 UNL     1      22.086   0.092  52.145  1.00  0.00     0.056 C 
HETATM    8  C12 UNL     1      20.603   0.240  52.067  1.00  0.00    -0.024 C 
HETATM    9  C13 UNL     1      19.504   1.003  51.943  1.00  0.00    -0.004 C 
HETATM   10  C14 UNL     1      19.064   2.383  51.768  1.00  0.00    -0.000 C 
HETATM   11  C15 UNL     1      19.474   3.624  51.599  1.00  0.00     0.001 C 
HETATM   12  C16 UNL     1      20.705   4.391  51.466  1.00  0.00     0.017 C 
HETATM   13  C17 UNL     1      21.931   3.889  51.459  1.00  0.00     0.083 C 
HETATM   14  N1  UNL     1      22.204   2.511  51.577  1.00  0.00    -0.390 N 
HETATM   15  H19 UNL     1      21.686   2.156  50.746  1.00  0.00     0.159 HD
ENDBRANCH   1   6
BRANCH   2  16
HETATM   16  C4  UNL     1      26.205  -0.105  53.118  1.00  0.00    -0.033 A 
HETATM   17  C5  UNL     1      27.184   0.760  53.592  1.00  0.00     0.014 A 
HETATM   18  C6  UNL     1      28.482   0.350  53.799  1.00  0.00     0.040 A 
HETATM   19  C7  UNL     1      28.852  -0.950  53.539  1.00  0.00     0.098 A 
HETATM   20  C8  UNL     1      27.925  -1.876  53.063  1.00  0.00     0.099 A 
HETATM   21  C9  UNL     1      26.644  -1.408  52.875  1.00  0.00     0.050 A 
BRANCH  19  22
HETATM   22  O2  UNL     1      30.165  -1.374  53.747  1.00  0.00    -0.358 OA
HETATM   23  H7  UNL     1      30.505  -2.290  53.451  1.00  0.00     0.217 HD
ENDBRANCH  19  22
BRANCH  20  24
HETATM   24  O3  UNL     1      28.263  -3.189  52.792  1.00  0.00    -0.358 OA
HETATM   25  H8  UNL     1      27.843  -3.736  52.049  1.00  0.00     0.217 HD
ENDBRANCH  20  24
ENDBRANCH   2  16
TORSDOF 6
ENDMDL
MODEL 8
REMARK VINA RESULT:      -7.3      3.124      4.293
REMARK  6 active torsions:
REMARK  status: ('A' for Active; 'I' for Inactive)
REMARK    1  A    between atoms: O1_1  and  C1_2 
REMARK    2  A    between atoms: C1_2  and  C2_3 
REMARK    3  A    between atoms: C2_3  and  C10_13 
REMARK    4  A    between atoms: C3_4  and  C4_5 
REMARK    5  A    between atoms: C7_8  and  O2_9 
REMARK    6  A    between atoms: C8_10  and  O3_11 
ROOT
HETATM    1  C2  UNL     1      25.463   2.488  51.166  1.00  0.00    -0.033 C 
HETATM    2  C3  UNL     1      25.666   1.655  52.161  1.00  0.00     0.018 C 
ENDROOT
BRANCH   1   3
HETATM    3  C1  UNL     1      26.360   2.908  50.065  1.00  0.00     0.200 C 
BRANCH   3   4
HETATM    4  O1  UNL     1      27.220   3.945  50.411  1.00  0.00    -0.397 OA
HETATM    5  H1  UNL     1      26.985   4.258  51.328  1.00  0.00     0.209 HD
ENDBRANCH   3   4
ENDBRANCH   1   3
BRANCH   1   6
HETATM    6  C10 UNL     1      24.142   3.154  51.101  1.00  0.00     0.115 C 
HETATM    7  C11 UNL     1      23.028   2.270  50.592  1.00  0.00     0.056 C 
HETATM    8  C12 UNL     1      21.742   3.000  50.387  1.00  0.00    -0.024 C 
HETATM    9  C13 UNL     1      21.033   4.141  50.344  1.00  0.00    -0.004 C 
HETATM   10  C14 UNL     1      21.154   5.588  50.491  1.00  0.00    -0.000 C 
HETATM   11  C15 UNL     1      22.000   6.575  50.704  1.00  0.00     0.001 C 
HETATM   12  C16 UNL     1      23.423   6.808  50.920  1.00  0.00     0.017 C 
HETATM   13  C17 UNL     1      24.366   5.878  50.920  1.00  0.00     0.083 C 
HETATM   14  N1  UNL     1      24.104   4.510  50.701  1.00  0.00    -0.390 N 
HETATM   15  H19 UNL     1      23.678   4.561  49.751  1.00  0.00     0.159 HD
ENDBRANCH   1   6
BRANCH   2  16
HETATM   16  C4  UNL     1      26.757   0.825  52.626  1.00  0.00    -0.033 A 
HETATM   17  C5  UNL     1      27.924   1.385  53.129  1.00  0.00     0.014 A 
HETATM   18  C6  UNL     1      28.987   0.612  53.540  1.00  0.00     0.040 A 
HETATM   19  C7  UNL     1      28.921  -0.760  53.465  1.00  0.00     0.098 A 
HETATM   20  C8  UNL     1      27.781  -1.395  52.972  1.00  0.00     0.099 A 
HETATM   21  C9  UNL     1      26.753  -0.571  52.576  1.00  0.00     0.050 A 
BRANCH  19  22
HETATM   22  O2  UNL     1      29.992  -1.552  53.880  1.00  0.00    -0.358 OA
HETATM   23  H7  UNL     1      30.089  -1.896  54.836  1.00  0.00     0.217 HD
ENDBRANCH  19  22
BRANCH  20  24
HETATM   24  O3  UNL     1      27.681  -2.772  52.884  1.00  0.00    -0.358 OA
HETATM   25  H8  UNL     1      27.227  -3.254  52.116  1.00  0.00     0.217 HD
ENDBRANCH  20  24
ENDBRANCH   2  16
TORSDOF 6
ENDMDL
MODEL 9
REMARK VINA RESULT:      -7.3      1.995      3.039
REMARK  6 active torsions:
REMARK  status: ('A' for Active; 'I' for Inactive)
REMARK    1  A    between atoms: O1_1  and  C1_2 
REMARK    2  A    between atoms: C1_2  and  C2_3 
REMARK    3  A    between atoms: C2_3  and  C10_13 
REMARK    4  A    between atoms: C3_4  and  C4_5 
REMARK    5  A    between atoms: C7_8  and  O2_9 
REMARK    6  A    between atoms: C8_10  and  O3_11 
ROOT
HETATM    1  C2  UNL     1      24.447   0.689  52.557  1.00  0.00    -0.033 C 
HETATM    2  C3  UNL     1      25.741   0.885  52.439  1.00  0.00     0.018 C 
ENDROOT
BRANCH   1   3
HETATM    3  C1  UNL     1      23.697  -0.412  53.205  1.00  0.00     0.200 C 
BRANCH   3   4
HETATM    4  O1  UNL     1      22.706   0.026  54.077  1.00  0.00    -0.397 OA
HETATM    5  H1  UNL     1      23.086   0.748  54.651  1.00  0.00     0.209 HD
ENDBRANCH   3   4
ENDBRANCH   1   3
BRANCH   1   6
HETATM    6  C10 UNL     1      23.552   1.695  51.943  1.00  0.00     0.115 C 
HETATM    7  C11 UNL     1      23.598   3.051  52.607  1.00  0.00     0.056 C 
HETATM    8  C12 UNL     1      22.579   4.004  52.076  1.00  0.00    -0.024 C 
HETATM    9  C13 UNL     1      21.510   4.272  51.308  1.00  0.00    -0.004 C 
HETATM   10  C14 UNL     1      20.552   3.654  50.396  1.00  0.00    -0.000 C 
HETATM   11  C15 UNL     1      20.176   2.516  49.850  1.00  0.00     0.001 C 
HETATM   12  C16 UNL     1      20.520   1.100  49.855  1.00  0.00     0.017 C 
HETATM   13  C17 UNL     1      21.471   0.539  50.588  1.00  0.00     0.083 C 
HETATM   14  N1  UNL     1      22.287   1.262  51.483  1.00  0.00    -0.390 N 
HETATM   15  H19 UNL     1      21.555   1.651  52.115  1.00  0.00     0.159 HD
ENDBRANCH   1   6
BRANCH   2  16
HETATM   16  C4  UNL     1      26.946   0.192  52.840  1.00  0.00    -0.033 A 
HETATM   17  C5  UNL     1      28.040   0.884  53.345  1.00  0.00     0.014 A 
HETATM   18  C6  UNL     1      29.209   0.246  53.697  1.00  0.00     0.040 A 
HETATM   19  C7  UNL     1      29.327  -1.119  53.558  1.00  0.00     0.098 A 
HETATM   20  C8  UNL     1      28.271  -1.880  53.059  1.00  0.00     0.099 A 
HETATM   21  C9  UNL     1      27.130  -1.188  52.724  1.00  0.00     0.050 A 
BRANCH  19  22
HETATM   22  O2  UNL     1      30.506  -1.774  53.912  1.00  0.00    -0.358 OA
HETATM   23  H7  UNL     1      31.256  -1.966  53.246  1.00  0.00     0.217 HD
ENDBRANCH  19  22
BRANCH  20  24
HETATM   24  O3  UNL     1      28.356  -3.253  52.906  1.00  0.00    -0.358 OA
HETATM   25  H8  UNL     1      29.213  -3.780  53.035  1.00  0.00     0.217 HD
ENDBRANCH  20  24
ENDBRANCH   2  16
TORSDOF 6
ENDMDL
