MODEL 1
REMARK VINA RESULT:      -9.5      0.000      0.000
REMARK  5 active torsions:
REMARK  status: ('A' for Active; 'I' for Inactive)
REMARK    1  A    between atoms: N1_2  and  C2_3 
REMARK    2  A    between atoms: N1_2  and  N2_5 
REMARK    3  A    between atoms: C6_10  and  C7_11 
REMARK    4  A    between atoms: C11_15  and  N3_16 
REMARK    5  A    between atoms: N3_16  and  C12_17 
ROOT
HETATM    1  C7  UNL     1      24.198  -0.541  53.799  1.00  0.00    -0.029 A 
HETATM    2  C8  UNL     1      23.191  -1.015  54.604  1.00  0.00     0.010 A 
HETATM    3  C9  UNL     1      21.835  -0.955  54.373  1.00  0.00     0.018 A 
HETATM    4  C10 UNL     1      21.417  -0.362  53.224  1.00  0.00     0.039 A 
HETATM    5  C11 UNL     1      20.085  -0.248  52.878  1.00  0.00     0.142 A 
HETATM    6  N4  UNL     1      19.714   0.331  51.741  1.00  0.00    -0.224 NA
HETATM    7  C18 UNL     1      20.625   0.831  50.884  1.00  0.00     0.236 A 
HETATM    8  N5  UNL     1      21.930   0.738  51.188  1.00  0.00    -0.241 NA
HETATM    9  C19 UNL     1      22.349   0.156  52.333  1.00  0.00     0.072 A 
HETATM   10  C20 UNL     1      23.668   0.052  52.642  1.00  0.00     0.042 A 
ENDROOT
BRANCH   1  11
HETATM   11  C6  UNL     1      25.637  -0.614  53.983  1.00  0.00     0.159 C 
HETATM   12  N2  UNL     1      26.339   0.528  54.384  1.00  0.00    -0.311 N 
HETATM   13  C3  UNL     1      27.655   0.192  54.861  1.00  0.00     0.170 C 
HETATM   14  C4  UNL     1      28.372  -0.781  53.961  1.00  0.00     0.189 C 
HETATM   15  O2  UNL     1      27.600  -1.638  53.245  1.00  0.00    -0.387 OA
HETATM   16  C5  UNL     1      26.390  -1.212  52.790  1.00  0.00     0.199 C 
BRANCH  12  17
HETATM   17  N1  UNL     1      26.171   1.749  53.850  1.00  0.00    -0.274 N 
HETATM   18  C1  UNL     1      25.209   2.817  53.549  1.00  0.00     0.180 C 
BRANCH  17  19
HETATM   19  C2  UNL     1      27.425   2.253  53.325  1.00  0.00     0.370 C 
HETATM   20  O1  UNL     1      27.513   2.429  52.078  1.00  0.00    -0.282 OA
ENDBRANCH  17  19
ENDBRANCH  12  17
ENDBRANCH   1  11
BRANCH   5  21
HETATM   21  N3  UNL     1      19.102  -0.759  53.766  1.00  0.00    -0.340 N 
HETATM   22  H14 UNL     1      19.332  -0.531  54.759  1.00  0.00     0.167 HD
BRANCH  21  23
HETATM   23  C12 UNL     1      17.939  -1.490  53.383  1.00  0.00     0.035 A 
HETATM   24  C13 UNL     1      16.958  -0.846  52.662  1.00  0.00     0.032 A 
HETATM   25  C14 UNL     1      15.837  -1.583  52.283  1.00  0.00     0.046 A 
HETATM   26  C15 UNL     1      15.756  -2.907  52.641  1.00  0.00     0.138 A 
HETATM   27  F1  UNL     1      14.661  -3.636  52.271  1.00  0.00    -0.204 F 
HETATM   28  C16 UNL     1      16.764  -3.516  53.367  1.00  0.00     0.074 A 
HETATM   29 CL1  UNL     1      16.579  -5.202  53.778  1.00  0.00    -0.081 Cl
HETATM   30  C17 UNL     1      17.877  -2.812  53.750  1.00  0.00     0.056 A 
ENDBRANCH  21  23
ENDBRANCH   5  21
TORSDOF 5
ENDMDL
MODEL 2
REMARK VINA RESULT:      -9.3      6.878      9.639
REMARK  5 active torsions:
REMARK  status: ('A' for Active; 'I' for Inactive)
REMARK    1  A    between atoms: N1_2  and  C2_3 
REMARK    2  A    between atoms: N1_2  and  N2_5 
REMARK    3  A    between atoms: C6_10  and  C7_11 
REMARK    4  A    between atoms: C11_15  and  N3_16 
REMARK    5  A    between atoms: N3_16  and  C12_17 
ROOT
HETATM    1  C7  UNL     1      28.013   6.477  48.314  1.00  0.00    -0.029 A 
HETATM    2  C8  UNL     1      28.006   5.106  48.410  1.00  0.00     0.010 A 
HETATM    3  C9  UNL     1      27.086   4.317  49.062  1.00  0.00     0.018 A 
HETATM    4  C10 UNL     1      26.057   4.940  49.696  1.00  0.00     0.039 A 
HETATM    5  C11 UNL     1      25.070   4.256  50.377  1.00  0.00     0.142 A 
HETATM    6  N4  UNL     1      24.074   4.899  50.978  1.00  0.00    -0.224 NA
HETATM    7  C18 UNL     1      23.992   6.243  50.946  1.00  0.00     0.236 A 
HETATM    8  N5  UNL     1      24.936   6.941  50.292  1.00  0.00    -0.241 NA
HETATM    9  C19 UNL     1      25.963   6.326  49.668  1.00  0.00     0.072 A 
HETATM   10  C20 UNL     1      26.917   7.026  48.999  1.00  0.00     0.042 A 
ENDROOT
BRANCH   1  11
HETATM   11  C6  UNL     1      28.938   7.347  47.609  1.00  0.00     0.159 C 
HETATM   12  N2  UNL     1      30.225   6.887  47.311  1.00  0.00    -0.311 N 
HETATM   13  C3  UNL     1      30.858   7.713  46.315  1.00  0.00     0.170 C 
HETATM   14  C4  UNL     1      30.696   9.186  46.590  1.00  0.00     0.189 C 
HETATM   15  O2  UNL     1      29.584   9.564  47.272  1.00  0.00    -0.387 OA
HETATM   16  C5  UNL     1      29.088   8.737  48.233  1.00  0.00     0.199 C 
BRANCH  12  17
HETATM   17  N1  UNL     1      31.025   6.251  48.183  1.00  0.00    -0.274 N 
HETATM   18  C1  UNL     1      31.589   6.262  49.538  1.00  0.00     0.180 C 
BRANCH  17  19
HETATM   19  C2  UNL     1      31.610   5.074  47.572  1.00  0.00     0.370 C 
HETATM   20  O1  UNL     1      32.115   4.204  48.335  1.00  0.00    -0.282 OA
ENDBRANCH  17  19
ENDBRANCH  12  17
ENDBRANCH   1  11
BRANCH   5  21
HETATM   21  N3  UNL     1      25.134   2.839  50.434  1.00  0.00    -0.340 N 
HETATM   22  H14 UNL     1      24.890   2.410  49.515  1.00  0.00     0.167 HD
BRANCH  21  23
HETATM   23  C12 UNL     1      25.487   2.071  51.584  1.00  0.00     0.035 A 
HETATM   24  C13 UNL     1      24.485   1.469  52.313  1.00  0.00     0.032 A 
HETATM   25  C14 UNL     1      24.853   0.710  53.423  1.00  0.00     0.046 A 
HETATM   26  C15 UNL     1      26.184   0.594  53.741  1.00  0.00     0.138 A 
HETATM   27  F1  UNL     1      26.552  -0.150  54.827  1.00  0.00    -0.204 F 
HETATM   28  C16 UNL     1      27.160   1.216  52.982  1.00  0.00     0.074 A 
HETATM   29 CL1  UNL     1      28.826   1.016  53.460  1.00  0.00    -0.081 Cl
HETATM   30  C17 UNL     1      26.823   1.968  51.885  1.00  0.00     0.056 A 
ENDBRANCH  21  23
ENDBRANCH   5  21
TORSDOF 5
ENDMDL
MODEL 3
REMARK VINA RESULT:      -9.2      6.109      8.909
REMARK  5 active torsions:
REMARK  status: ('A' for Active; 'I' for Inactive)
REMARK    1  A    between atoms: N1_2  and  C2_3 
REMARK    2  A    between atoms: N1_2  and  N2_5 
REMARK    3  A    between atoms: C6_10  and  C7_11 
REMARK    4  A    between atoms: C11_15  and  N3_16 
REMARK    5  A    between atoms: N3_16  and  C12_17 
ROOT
HETATM    1  C7  UNL     1      23.691   1.302  52.703  1.00  0.00    -0.029 A 
HETATM    2  C8  UNL     1      24.381   2.486  52.795  1.00  0.00     0.010 A 
HETATM    3  C9  UNL     1      24.482   3.473  51.840  1.00  0.00     0.018 A 
HETATM    4  C10 UNL     1      23.837   3.278  50.660  1.00  0.00     0.039 A 
HETATM    5  C11 UNL     1      23.858   4.197  49.630  1.00  0.00     0.142 A 
HETATM    6  N4  UNL     1      23.208   3.975  48.493  1.00  0.00    -0.224 NA
HETATM    7  C18 UNL     1      22.505   2.843  48.301  1.00  0.00     0.236 A 
HETATM    8  N5  UNL     1      22.462   1.925  49.282  1.00  0.00    -0.241 NA
HETATM    9  C19 UNL     1      23.108   2.113  50.454  1.00  0.00     0.072 A 
HETATM   10  C20 UNL     1      23.062   1.193  51.452  1.00  0.00     0.042 A 
ENDROOT
BRANCH   1  11
HETATM   11  C6  UNL     1      23.526   0.252  53.692  1.00  0.00     0.159 C 
HETATM   12  N2  UNL     1      24.652  -0.273  54.335  1.00  0.00    -0.311 N 
HETATM   13  C3  UNL     1      24.285  -1.015  55.512  1.00  0.00     0.170 C 
HETATM   14  C4  UNL     1      23.126  -1.949  55.275  1.00  0.00     0.189 C 
HETATM   15  O2  UNL     1      22.235  -1.590  54.315  1.00  0.00    -0.387 OA
HETATM   16  C5  UNL     1      22.686  -0.935  53.211  1.00  0.00     0.199 C 
BRANCH  12  17
HETATM   17  N1  UNL     1      25.785  -0.634  53.708  1.00  0.00    -0.274 N 
HETATM   18  C1  UNL     1      26.379  -1.513  52.693  1.00  0.00     0.180 C 
BRANCH  17  19
HETATM   19  C2  UNL     1      26.914   0.111  54.228  1.00  0.00     0.370 C 
HETATM   20  O1  UNL     1      27.807  -0.531  54.849  1.00  0.00    -0.282 OA
ENDBRANCH  17  19
ENDBRANCH  12  17
ENDBRANCH   1  11
BRANCH   5  21
HETATM   21  N3  UNL     1      24.599   5.397  49.801  1.00  0.00    -0.340 N 
HETATM   22  H14 UNL     1      24.088   6.076  50.408  1.00  0.00     0.167 HD
BRANCH  21  23
HETATM   23  C12 UNL     1      25.878   5.670  49.232  1.00  0.00     0.035 A 
HETATM   24  C13 UNL     1      26.773   4.633  49.084  1.00  0.00     0.032 A 
HETATM   25  C14 UNL     1      28.011   4.918  48.510  1.00  0.00     0.046 A 
HETATM   26  C15 UNL     1      28.286   6.205  48.120  1.00  0.00     0.138 A 
HETATM   27  F1  UNL     1      29.497   6.491  47.555  1.00  0.00    -0.204 F 
HETATM   28  C16 UNL     1      27.359   7.219  48.288  1.00  0.00     0.074 A 
HETATM   29 CL1  UNL     1      27.793   8.826  47.765  1.00  0.00    -0.081 Cl
HETATM   30  C17 UNL     1      26.134   6.964  48.849  1.00  0.00     0.056 A 
ENDBRANCH  21  23
ENDBRANCH   5  21
TORSDOF 5
ENDMDL
MODEL 4
REMARK VINA RESULT:      -8.6      5.399      8.603
REMARK  5 active torsions:
REMARK  status: ('A' for Active; 'I' for Inactive)
REMARK    1  A    between atoms: N1_2  and  C2_3 
REMARK    2  A    between atoms: N1_2  and  N2_5 
REMARK    3  A    between atoms: C6_10  and  C7_11 
REMARK    4  A    between atoms: C11_15  and  N3_16 
REMARK    5  A    between atoms: N3_16  and  C12_17 
ROOT
HETATM    1  C7  UNL     1      23.575   3.583  49.827  1.00  0.00    -0.029 A 
HETATM    2  C8  UNL     1      24.620   3.699  50.711  1.00  0.00     0.010 A 
HETATM    3  C9  UNL     1      24.899   2.891  51.790  1.00  0.00     0.018 A 
HETATM    4  C10 UNL     1      24.059   1.851  52.033  1.00  0.00     0.039 A 
HETATM    5  C11 UNL     1      24.238   0.968  53.079  1.00  0.00     0.142 A 
HETATM    6  N4  UNL     1      23.399  -0.043  53.281  1.00  0.00    -0.224 NA
HETATM    7  C18 UNL     1      22.341  -0.243  52.473  1.00  0.00     0.236 A 
HETATM    8  N5  UNL     1      22.135   0.597  51.444  1.00  0.00    -0.241 NA
HETATM    9  C19 UNL     1      22.964   1.636  51.204  1.00  0.00     0.072 A 
HETATM   10  C20 UNL     1      22.766   2.485  50.161  1.00  0.00     0.042 A 
ENDROOT
BRANCH   1  11
HETATM   11  C6  UNL     1      23.262   4.386  48.659  1.00  0.00     0.159 C 
HETATM   12  N2  UNL     1      23.226   5.780  48.770  1.00  0.00    -0.311 N 
HETATM   13  C3  UNL     1      23.266   6.410  47.476  1.00  0.00     0.170 C 
HETATM   14  C4  UNL     1      22.327   5.770  46.486  1.00  0.00     0.189 C 
HETATM   15  O2  UNL     1      22.053   4.452  46.663  1.00  0.00    -0.387 OA
HETATM   16  C5  UNL     1      21.985   3.958  47.930  1.00  0.00     0.199 C 
BRANCH  12  17
HETATM   17  N1  UNL     1      22.609   6.447  49.760  1.00  0.00    -0.274 N 
HETATM   18  C1  UNL     1      21.378   6.576  50.549  1.00  0.00     0.180 C 
BRANCH  17  19
HETATM   19  C2  UNL     1      23.468   7.492  50.282  1.00  0.00     0.370 C 
HETATM   20  O1  UNL     1      24.162   7.229  51.303  1.00  0.00    -0.282 OA
ENDBRANCH  17  19
ENDBRANCH  12  17
ENDBRANCH   1  11
BRANCH   5  21
HETATM   21  N3  UNL     1      25.342   1.158  53.953  1.00  0.00    -0.340 N 
HETATM   22  H14 UNL     1      25.067   1.703  54.799  1.00  0.00     0.167 HD
BRANCH  21  23
HETATM   23  C12 UNL     1      26.666   0.676  53.732  1.00  0.00     0.035 A 
HETATM   24  C13 UNL     1      27.718   1.562  53.815  1.00  0.00     0.032 A 
HETATM   25  C14 UNL     1      29.004   1.067  53.612  1.00  0.00     0.046 A 
HETATM   26  C15 UNL     1      29.171  -0.268  53.340  1.00  0.00     0.138 A 
HETATM   27  F1  UNL     1      30.431  -0.761  53.142  1.00  0.00    -0.204 F 
HETATM   28  C16 UNL     1      28.088  -1.125  53.264  1.00  0.00     0.074 A 
HETATM   29 CL1  UNL     1      28.392  -2.807  52.912  1.00  0.00    -0.081 Cl
HETATM   30  C17 UNL     1      26.811  -0.663  53.461  1.00  0.00     0.056 A 
ENDBRANCH  21  23
ENDBRANCH   5  21
TORSDOF 5
ENDMDL
MODEL 5
REMARK VINA RESULT:      -8.6      6.755      9.652
REMARK  5 active torsions:
REMARK  status: ('A' for Active; 'I' for Inactive)
REMARK    1  A    between atoms: N1_2  and  C2_3 
REMARK    2  A    between atoms: N1_2  and  N2_5 
REMARK    3  A    between atoms: C6_10  and  C7_11 
REMARK    4  A    between atoms: C11_15  and  N3_16 
REMARK    5  A    between atoms: N3_16  and  C12_17 
ROOT
HETATM    1  C7  UNL     1      26.273   6.638  48.435  1.00  0.00    -0.029 A 
HETATM    2  C8  UNL     1      26.880   5.408  48.518  1.00  0.00     0.010 A 
HETATM    3  C9  UNL     1      26.528   4.353  49.330  1.00  0.00     0.018 A 
HETATM    4  C10 UNL     1      25.462   4.521  50.156  1.00  0.00     0.039 A 
HETATM    5  C11 UNL     1      25.010   3.535  51.010  1.00  0.00     0.142 A 
HETATM    6  N4  UNL     1      23.958   3.733  51.797  1.00  0.00    -0.224 NA
HETATM    7  C18 UNL     1      23.295   4.905  51.794  1.00  0.00     0.236 A 
HETATM    8  N5  UNL     1      23.708   5.888  50.976  1.00  0.00    -0.241 NA
HETATM    9  C19 UNL     1      24.771   5.727  50.159  1.00  0.00     0.072 A 
HETATM   10  C20 UNL     1      25.188   6.714  49.324  1.00  0.00     0.042 A 
ENDROOT
BRANCH   1  11
HETATM   11  C6  UNL     1      26.585   7.763  47.571  1.00  0.00     0.159 C 
HETATM   12  N2  UNL     1      27.740   8.515  47.809  1.00  0.00    -0.311 N 
HETATM   13  C3  UNL     1      28.076   9.332  46.672  1.00  0.00     0.170 C 
HETATM   14  C4  UNL     1      26.884  10.056  46.102  1.00  0.00     0.189 C 
HETATM   15  O2  UNL     1      25.673   9.463  46.259  1.00  0.00    -0.387 OA
HETATM   16  C5  UNL     1      25.430   8.753  47.394  1.00  0.00     0.199 C 
BRANCH  12  17
HETATM   17  N1  UNL     1      28.124   8.957  49.019  1.00  0.00    -0.274 N 
HETATM   18  C1  UNL     1      27.677   9.524  50.298  1.00  0.00     0.180 C 
BRANCH  17  19
HETATM   19  C2  UNL     1      29.564   8.877  49.158  1.00  0.00     0.370 C 
HETATM   20  O1  UNL     1      30.169   9.888  49.612  1.00  0.00    -0.282 OA
ENDBRANCH  17  19
ENDBRANCH  12  17
ENDBRANCH   1  11
BRANCH   5  21
HETATM   21  N3  UNL     1      25.694   2.291  51.041  1.00  0.00    -0.340 N 
HETATM   22  H14 UNL     1      25.723   1.849  50.096  1.00  0.00     0.167 HD
BRANCH  21  23
HETATM   23  C12 UNL     1      26.281   1.697  52.197  1.00  0.00     0.035 A 
HETATM   24  C13 UNL     1      27.556   2.072  52.562  1.00  0.00     0.032 A 
HETATM   25  C14 UNL     1      28.105   1.492  53.704  1.00  0.00     0.046 A 
HETATM   26  C15 UNL     1      27.362   0.580  54.412  1.00  0.00     0.138 A 
HETATM   27  F1  UNL     1      27.892   0.009  55.535  1.00  0.00    -0.204 F 
HETATM   28  C16 UNL     1      26.084   0.229  54.011  1.00  0.00     0.074 A 
HETATM   29 CL1  UNL     1      25.212  -0.938  54.971  1.00  0.00    -0.081 Cl
HETATM   30  C17 UNL     1      25.522   0.787  52.891  1.00  0.00     0.056 A 
ENDBRANCH  21  23
ENDBRANCH   5  21
TORSDOF 5
ENDMDL
MODEL 6
REMARK VINA RESULT:      -8.5      7.361     10.789
REMARK  5 active torsions:
REMARK  status: ('A' for Active; 'I' for Inactive)
REMARK    1  A    between atoms: N1_2  and  C2_3 
REMARK    2  A    between atoms: N1_2  and  N2_5 
REMARK    3  A    between atoms: C6_10  and  C7_11 
REMARK    4  A    between atoms: C11_15  and  N3_16 
REMARK    5  A    between atoms: N3_16  and  C12_17 
ROOT
HETATM    1  C7  UNL     1      24.082   3.349  51.020  1.00  0.00    -0.029 A 
HETATM    2  C8  UNL     1      25.029   3.307  50.025  1.00  0.00     0.010 A 
HETATM    3  C9  UNL     1      25.626   4.373  49.392  1.00  0.00     0.018 A 
HETATM    4  C10 UNL     1      25.255   5.623  49.774  1.00  0.00     0.039 A 
HETATM    5  C11 UNL     1      25.788   6.769  49.218  1.00  0.00     0.142 A 
HETATM    6  N4  UNL     1      25.406   7.975  49.623  1.00  0.00    -0.224 NA
HETATM    7  C18 UNL     1      24.481   8.125  50.591  1.00  0.00     0.236 A 
HETATM    8  N5  UNL     1      23.940   7.032  51.154  1.00  0.00    -0.241 NA
HETATM    9  C19 UNL     1      24.302   5.787  50.772  1.00  0.00     0.072 A 
HETATM   10  C20 UNL     1      23.765   4.678  51.343  1.00  0.00     0.042 A 
ENDROOT
BRANCH   1  11
HETATM   11  C6  UNL     1      23.453   2.257  51.741  1.00  0.00     0.159 C 
HETATM   12  N2  UNL     1      24.156   1.611  52.764  1.00  0.00    -0.311 N 
HETATM   13  C3  UNL     1      23.275   0.829  53.591  1.00  0.00     0.170 C 
HETATM   14  C4  UNL     1      22.304   0.000  52.789  1.00  0.00     0.189 C 
HETATM   15  O2  UNL     1      21.947   0.482  51.571  1.00  0.00    -0.387 OA
HETATM   16  C5  UNL     1      22.867   1.167  50.838  1.00  0.00     0.199 C 
BRANCH  12  17
HETATM   17  N1  UNL     1      25.433   1.205  52.670  1.00  0.00    -0.274 N 
HETATM   18  C1  UNL     1      26.360   0.264  52.028  1.00  0.00     0.180 C 
BRANCH  17  19
HETATM   19  C2  UNL     1      26.278   1.969  53.565  1.00  0.00     0.370 C 
HETATM   20  O1  UNL     1      26.561   1.461  54.686  1.00  0.00    -0.282 OA
ENDBRANCH  17  19
ENDBRANCH  12  17
ENDBRANCH   1  11
BRANCH   5  21
HETATM   21  N3  UNL     1      26.759   6.641  48.190  1.00  0.00    -0.340 N 
HETATM   22  H14 UNL     1      26.313   6.438  47.268  1.00  0.00     0.167 HD
BRANCH  21  23
HETATM   23  C12 UNL     1      28.169   6.773  48.361  1.00  0.00     0.035 A 
HETATM   24  C13 UNL     1      28.959   5.649  48.248  1.00  0.00     0.032 A 
HETATM   25  C14 UNL     1      30.336   5.803  48.403  1.00  0.00     0.046 A 
HETATM   26  C15 UNL     1      30.844   7.052  48.659  1.00  0.00     0.138 A 
HETATM   27  F1  UNL     1      32.193   7.210  48.809  1.00  0.00    -0.204 F 
HETATM   28  C16 UNL     1      30.016   8.155  48.766  1.00  0.00     0.074 A 
HETATM   29 CL1  UNL     1      30.747   9.705  49.094  1.00  0.00    -0.081 Cl
HETATM   30  C17 UNL     1      28.658   8.031  48.617  1.00  0.00     0.056 A 
ENDBRANCH  21  23
ENDBRANCH   5  21
TORSDOF 5
ENDMDL
MODEL 7
REMARK VINA RESULT:      -8.4      7.729     11.757
REMARK  5 active torsions:
REMARK  status: ('A' for Active; 'I' for Inactive)
REMARK    1  A    between atoms: N1_2  and  C2_3 
REMARK    2  A    between atoms: N1_2  and  N2_5 
REMARK    3  A    between atoms: C6_10  and  C7_11 
REMARK    4  A    between atoms: C11_15  and  N3_16 
REMARK    5  A    between atoms: N3_16  and  C12_17 
ROOT
HETATM    1  C7  UNL     1      25.338   3.832  50.186  1.00  0.00    -0.029 A 
HETATM    2  C8  UNL     1      26.417   3.590  49.371  1.00  0.00     0.010 A 
HETATM    3  C9  UNL     1      27.236   4.519  48.768  1.00  0.00     0.018 A 
HETATM    4  C10 UNL     1      26.968   5.833  48.988  1.00  0.00     0.039 A 
HETATM    5  C11 UNL     1      27.722   6.855  48.445  1.00  0.00     0.142 A 
HETATM    6  N4  UNL     1      27.434   8.129  48.689  1.00  0.00    -0.224 NA
HETATM    7  C18 UNL     1      26.395   8.472  49.473  1.00  0.00     0.236 A 
HETATM    8  N5  UNL     1      25.639   7.503  50.018  1.00  0.00    -0.241 NA
HETATM    9  C19 UNL     1      25.898   6.196  49.796  1.00  0.00     0.072 A 
HETATM   10  C20 UNL     1      25.142   5.213  50.351  1.00  0.00     0.042 A 
ENDROOT
BRANCH   1  11
HETATM   11  C6  UNL     1      24.471   2.889  50.871  1.00  0.00     0.159 C 
HETATM   12  N2  UNL     1      23.314   2.429  50.234  1.00  0.00    -0.311 N 
HETATM   13  C3  UNL     1      22.789   1.257  50.885  1.00  0.00     0.170 C 
HETATM   14  C4  UNL     1      22.744   1.394  52.385  1.00  0.00     0.189 C 
HETATM   15  O2  UNL     1      23.668   2.209  52.955  1.00  0.00    -0.387 OA
HETATM   16  C5  UNL     1      24.066   3.324  52.283  1.00  0.00     0.199 C 
BRANCH  12  17
HETATM   17  N1  UNL     1      22.440   3.216  49.584  1.00  0.00    -0.274 N 
HETATM   18  C1  UNL     1      21.383   4.225  49.726  1.00  0.00     0.180 C 
BRANCH  17  19
HETATM   19  C2  UNL     1      22.526   3.001  48.153  1.00  0.00     0.370 C 
HETATM   20  O1  UNL     1      21.462   3.085  47.480  1.00  0.00    -0.282 OA
ENDBRANCH  17  19
ENDBRANCH  12  17
ENDBRANCH   1  11
BRANCH   5  21
HETATM   21  N3  UNL     1      28.819   6.523  47.607  1.00  0.00    -0.340 N 
HETATM   22  H14 UNL     1      28.524   6.436  46.610  1.00  0.00     0.167 HD
BRANCH  21  23
HETATM   23  C12 UNL     1      30.164   6.331  48.041  1.00  0.00     0.035 A 
HETATM   24  C13 UNL     1      30.781   7.335  48.756  1.00  0.00     0.032 A 
HETATM   25  C14 UNL     1      32.090   7.120  49.184  1.00  0.00     0.046 A 
HETATM   26  C15 UNL     1      32.706   5.931  48.880  1.00  0.00     0.138 A 
HETATM   27  F1  UNL     1      33.988   5.713  49.299  1.00  0.00    -0.204 F 
HETATM   28  C16 UNL     1      32.051   4.949  48.158  1.00  0.00     0.074 A 
HETATM   29 CL1  UNL     1      32.910   3.469  47.815  1.00  0.00    -0.081 Cl
HETATM   30  C17 UNL     1      30.763   5.136  47.726  1.00  0.00     0.056 A 
ENDBRANCH  21  23
ENDBRANCH   5  21
TORSDOF 5
ENDMDL
MODEL 8
REMARK VINA RESULT:      -8.3      7.564     11.462
REMARK  5 active torsions:
REMARK  status: ('A' for Active; 'I' for Inactive)
REMARK    1  A    between atoms: N1_2  and  C2_3 
REMARK    2  A    between atoms: N1_2  and  N2_5 
REMARK    3  A    between atoms: C6_10  and  C7_11 
REMARK    4  A    between atoms: C11_15  and  N3_16 
REMARK    5  A    between atoms: N3_16  and  C12_17 
ROOT
HETATM    1  C7  UNL     1      25.088   4.083  50.297  1.00  0.00    -0.029 A 
HETATM    2  C8  UNL     1      26.149   3.808  49.469  1.00  0.00     0.010 A 
HETATM    3  C9  UNL     1      26.991   4.710  48.859  1.00  0.00     0.018 A 
HETATM    4  C10 UNL     1      26.770   6.032  49.083  1.00  0.00     0.039 A 
HETATM    5  C11 UNL     1      27.550   7.029  48.534  1.00  0.00     0.142 A 
HETATM    6  N4  UNL     1      27.308   8.312  48.782  1.00  0.00    -0.224 NA
HETATM    7  C18 UNL     1      26.289   8.687  49.579  1.00  0.00     0.236 A 
HETATM    8  N5  UNL     1      25.508   7.744  50.131  1.00  0.00    -0.241 NA
HETATM    9  C19 UNL     1      25.721   6.429  49.904  1.00  0.00     0.072 A 
HETATM   10  C20 UNL     1      24.939   5.470  50.466  1.00  0.00     0.042 A 
ENDROOT
BRANCH   1  11
HETATM   11  C6  UNL     1      24.197   3.169  50.990  1.00  0.00     0.159 C 
HETATM   12  N2  UNL     1      24.634   2.535  52.158  1.00  0.00    -0.311 N 
HETATM   13  C3  UNL     1      23.531   1.972  52.892  1.00  0.00     0.170 C 
HETATM   14  C4  UNL     1      22.571   1.214  52.012  1.00  0.00     0.189 C 
HETATM   15  O2  UNL     1      22.475   1.618  50.718  1.00  0.00    -0.387 OA
HETATM   16  C5  UNL     1      23.587   2.089  50.092  1.00  0.00     0.199 C 
BRANCH  12  17
HETATM   17  N1  UNL     1      25.833   1.945  52.300  1.00  0.00    -0.274 N 
HETATM   18  C1  UNL     1      27.282   2.157  52.400  1.00  0.00     0.180 C 
BRANCH  17  19
HETATM   19  C2  UNL     1      25.687   0.504  52.365  1.00  0.00     0.370 C 
HETATM   20  O1  UNL     1      26.588  -0.204  51.836  1.00  0.00    -0.282 OA
ENDBRANCH  17  19
ENDBRANCH  12  17
ENDBRANCH   1  11
BRANCH   5  21
HETATM   21  N3  UNL     1      28.628   6.664  47.683  1.00  0.00    -0.340 N 
HETATM   22  H14 UNL     1      28.313   6.561  46.694  1.00  0.00     0.167 HD
BRANCH  21  23
HETATM   23  C12 UNL     1      29.977   6.459  48.097  1.00  0.00     0.035 A 
HETATM   24  C13 UNL     1      30.610   7.451  48.813  1.00  0.00     0.032 A 
HETATM   25  C14 UNL     1      31.923   7.224  49.221  1.00  0.00     0.046 A 
HETATM   26  C15 UNL     1      32.527   6.033  48.898  1.00  0.00     0.138 A 
HETATM   27  F1  UNL     1      33.813   5.803  49.298  1.00  0.00    -0.204 F 
HETATM   28  C16 UNL     1      31.856   5.062  48.176  1.00  0.00     0.074 A 
HETATM   29 CL1  UNL     1      32.699   3.580  47.809  1.00  0.00    -0.081 Cl
HETATM   30  C17 UNL     1      30.563   5.262  47.764  1.00  0.00     0.056 A 
ENDBRANCH  21  23
ENDBRANCH   5  21
TORSDOF 5
ENDMDL
MODEL 9
REMARK VINA RESULT:      -8.2      6.477      8.815
REMARK  5 active torsions:
REMARK  status: ('A' for Active; 'I' for Inactive)
REMARK    1  A    between atoms: N1_2  and  C2_3 
REMARK    2  A    between atoms: N1_2  and  N2_5 
REMARK    3  A    between atoms: C6_10  and  C7_11 
REMARK    4  A    between atoms: C11_15  and  N3_16 
REMARK    5  A    between atoms: N3_16  and  C12_17 
ROOT
HETATM    1  C7  UNL     1      26.927   6.451  48.192  1.00  0.00    -0.029 A 
HETATM    2  C8  UNL     1      27.285   5.166  48.522  1.00  0.00     0.010 A 
HETATM    3  C9  UNL     1      26.678   4.336  49.438  1.00  0.00     0.018 A 
HETATM    4  C10 UNL     1      25.599   4.819  50.109  1.00  0.00     0.039 A 
HETATM    5  C11 UNL     1      24.903   4.080  51.045  1.00  0.00     0.142 A 
HETATM    6  N4  UNL     1      23.847   4.582  51.675  1.00  0.00    -0.224 NA
HETATM    7  C18 UNL     1      23.416   5.834  51.426  1.00  0.00     0.236 A 
HETATM    8  N5  UNL     1      24.070   6.582  50.521  1.00  0.00    -0.241 NA
HETATM    9  C19 UNL     1      25.147   6.108  49.857  1.00  0.00     0.072 A 
HETATM   10  C20 UNL     1      25.807   6.858  48.936  1.00  0.00     0.042 A 
ENDROOT
BRANCH   1  11
HETATM   11  C6  UNL     1      27.511   7.347  47.211  1.00  0.00     0.159 C 
HETATM   12  N2  UNL     1      28.780   7.890  47.442  1.00  0.00    -0.311 N 
HETATM   13  C3  UNL     1      29.341   8.441  46.237  1.00  0.00     0.170 C 
HETATM   14  C4  UNL     1      28.358   9.284  45.467  1.00  0.00     0.189 C 
HETATM   15  O2  UNL     1      27.043   8.968  45.598  1.00  0.00    -0.387 OA
HETATM   16  C5  UNL     1      26.595   8.502  46.795  1.00  0.00     0.199 C 
BRANCH  12  17
HETATM   17  N1  UNL     1      29.173   8.431  48.608  1.00  0.00    -0.274 N 
HETATM   18  C1  UNL     1      28.841   9.387  49.672  1.00  0.00     0.180 C 
BRANCH  17  19
HETATM   19  C2  UNL     1      30.458   7.896  49.010  1.00  0.00     0.370 C 
HETATM   20  O1  UNL     1      31.274   8.679  49.571  1.00  0.00    -0.282 OA
ENDBRANCH  17  19
ENDBRANCH  12  17
ENDBRANCH   1  11
BRANCH   5  21
HETATM   21  N3  UNL     1      25.339   2.759  51.334  1.00  0.00    -0.340 N 
HETATM   22  H14 UNL     1      26.335   2.618  51.055  1.00  0.00     0.167 HD
BRANCH  21  23
HETATM   23  C12 UNL     1      24.544   1.737  51.932  1.00  0.00     0.035 A 
HETATM   24  C13 UNL     1      23.280   1.504  51.436  1.00  0.00     0.032 A 
HETATM   25  C14 UNL     1      22.526   0.490  52.024  1.00  0.00     0.046 A 
HETATM   26  C15 UNL     1      23.067  -0.229  53.062  1.00  0.00     0.138 A 
HETATM   27  F1  UNL     1      22.335  -1.227  53.641  1.00  0.00    -0.204 F 
HETATM   28  C16 UNL     1      24.341   0.038  53.531  1.00  0.00     0.074 A 
HETATM   29 CL1  UNL     1      24.949  -0.924  54.853  1.00  0.00    -0.081 Cl
HETATM   30  C17 UNL     1      25.103   1.030  52.968  1.00  0.00     0.056 A 
ENDBRANCH  21  23
ENDBRANCH   5  21
TORSDOF 5
ENDMDL
