MODEL 1
REMARK VINA RESULT:      -7.9      0.000      0.000
REMARK  6 active torsions:
REMARK  status: ('A' for Active; 'I' for Inactive)
REMARK    1  A    between atoms: O1_2  and  C2_3 
REMARK    2  A    between atoms: C2_3  and  C3_4 
REMARK    3  A    between atoms: C4_5  and  C5_6 
REMARK       I    between atoms: C5_6  and  N1_8 
REMARK    4  A    between atoms: N1_8  and  C6_9 
REMARK    5  A    between atoms: C13_18  and  N4_19 
REMARK    6  A    between atoms: N4_19  and  C14_20 
ROOT
HETATM    1  C6  UNL     1      24.571   3.896  51.064  1.00  0.00     0.112 A 
HETATM    2  C7  UNL     1      24.890   3.965  49.598  1.00  0.00     0.058 A 
HETATM    3  C8  UNL     1      23.846   3.282  48.800  1.00  0.00     0.008 A 
HETATM    4  C9  UNL     1      22.752   2.668  49.181  1.00  0.00     0.065 A 
HETATM    5  N2  UNL     1      21.964   2.123  48.229  1.00  0.00    -0.259 NA
HETATM    6  C10 UNL     1      20.836   1.491  48.626  1.00  0.00     0.142 A 
HETATM    7  C11 UNL     1      20.494   1.400  49.971  1.00  0.00     0.089 A 
HETATM    8  C12 UNL     1      19.286   0.723  50.389  1.00  0.00     0.103 C 
HETATM    9  N3  UNL     1      18.321   0.166  50.715  1.00  0.00    -0.191 NA
HETATM   10  C13 UNL     1      21.279   1.946  50.958  1.00  0.00     0.067 A 
HETATM   11  C20 UNL     1      22.417   2.580  50.504  1.00  0.00     0.019 A 
HETATM   12  C21 UNL     1      23.294   3.162  51.300  1.00  0.00     0.014 A 
ENDROOT
BRANCH  10  13
HETATM   13  N4  UNL     1      21.015   1.904  52.349  1.00  0.00    -0.354 N 
HETATM   14  H12 UNL     1      20.597   2.708  52.840  1.00  0.00     0.166 HD
BRANCH  13  15
HETATM   15  C14 UNL     1      21.332   0.733  53.091  1.00  0.00     0.033 A 
HETATM   16  C15 UNL     1      20.388  -0.196  53.503  1.00  0.00     0.029 A 
HETATM   17  C16 UNL     1      20.742  -1.329  54.227  1.00  0.00     0.004 A 
HETATM   18  C17 UNL     1      22.079  -1.529  54.543  1.00  0.00     0.019 A 
HETATM   19  C18 UNL     1      23.058  -0.637  54.159  1.00  0.00     0.013 A 
HETATM   20 BR1  UNL     1      24.885  -0.935  54.605  1.00  0.00    -0.051 Br
HETATM   21  C19 UNL     1      22.640   0.458  53.447  1.00  0.00     0.048 A 
ENDBRANCH  13  15
ENDBRANCH  10  13
BRANCH   1  22
HETATM   22  N1  UNL     1      25.599   3.117  51.723  1.00  0.00    -0.342 N 
HETATM   23  C5  UNL     1      25.726   2.706  53.076  1.00  0.00     0.297 C 
HETATM   24  O2  UNL     1      24.829   3.046  53.891  1.00  0.00    -0.258 OA
HETATM   25  H6  UNL     1      26.329   2.855  51.004  1.00  0.00     0.164 HD
BRANCH  23  26
HETATM   26  C4  UNL     1      26.877   1.927  53.434  1.00  0.00    -0.003 C 
HETATM   27  C3  UNL     1      27.839   1.268  53.745  1.00  0.00    -0.070 C 
BRANCH  27  28
HETATM   28  C2  UNL     1      28.999   0.451  54.108  1.00  0.00     0.261 C 
BRANCH  28  29
HETATM   29  O1  UNL     1      28.505  -0.871  54.198  1.00  0.00    -0.384 OA
HETATM   30  C1  UNL     1      29.388  -1.623  53.389  1.00  0.00     0.202 C 
ENDBRANCH  28  29
ENDBRANCH  27  28
ENDBRANCH  23  26
ENDBRANCH   1  22
TORSDOF 6
ENDMDL
MODEL 2
REMARK VINA RESULT:      -7.9      7.597     11.214
REMARK  6 active torsions:
REMARK  status: ('A' for Active; 'I' for Inactive)
REMARK    1  A    between atoms: O1_2  and  C2_3 
REMARK    2  A    between atoms: C2_3  and  C3_4 
REMARK    3  A    between atoms: C4_5  and  C5_6 
REMARK       I    between atoms: C5_6  and  N1_8 
REMARK    4  A    between atoms: N1_8  and  C6_9 
REMARK    5  A    between atoms: C13_18  and  N4_19 
REMARK    6  A    between atoms: N4_19  and  C14_20 
ROOT
HETATM    1  C6  UNL     1      28.151   5.521  48.211  1.00  0.00     0.112 A 
HETATM    2  C7  UNL     1      27.560   6.872  48.497  1.00  0.00     0.058 A 
HETATM    3  C8  UNL     1      28.625   7.883  48.686  1.00  0.00     0.008 A 
HETATM    4  C9  UNL     1      29.930   7.761  48.638  1.00  0.00     0.065 A 
HETATM    5  N2  UNL     1      30.681   8.863  48.850  1.00  0.00    -0.259 NA
HETATM    6  C10 UNL     1      32.026   8.733  48.800  1.00  0.00     0.142 A 
HETATM    7  C11 UNL     1      32.623   7.505  48.538  1.00  0.00     0.089 A 
HETATM    8  C12 UNL     1      34.063   7.372  48.484  1.00  0.00     0.103 C 
HETATM    9  N3  UNL     1      35.219   7.274  48.456  1.00  0.00    -0.191 NA
HETATM   10  C13 UNL     1      31.882   6.369  48.317  1.00  0.00     0.067 A 
HETATM   11  C20 UNL     1      30.516   6.552  48.379  1.00  0.00     0.019 A 
HETATM   12  C21 UNL     1      29.641   5.581  48.197  1.00  0.00     0.014 A 
ENDROOT
BRANCH  10  13
HETATM   13  N4  UNL     1      32.398   5.078  48.044  1.00  0.00    -0.354 N 
HETATM   14  H12 UNL     1      32.256   4.294  48.697  1.00  0.00     0.166 HD
BRANCH  13  15
HETATM   15  C14 UNL     1      33.131   4.853  46.846  1.00  0.00     0.033 A 
HETATM   16  C15 UNL     1      34.256   4.044  46.773  1.00  0.00     0.029 A 
HETATM   17  C16 UNL     1      34.943   3.850  45.580  1.00  0.00     0.004 A 
HETATM   18  C17 UNL     1      34.485   4.487  44.434  1.00  0.00     0.019 A 
HETATM   19  C18 UNL     1      33.373   5.302  44.452  1.00  0.00     0.013 A 
HETATM   20 BR1  UNL     1      32.767   6.165  42.865  1.00  0.00    -0.051 Br
HETATM   21  C19 UNL     1      32.743   5.450  45.660  1.00  0.00     0.048 A 
ENDBRANCH  13  15
ENDBRANCH  10  13
BRANCH   1  22
HETATM   22  N1  UNL     1      27.805   4.628  49.297  1.00  0.00    -0.342 N 
HETATM   23  C5  UNL     1      26.569   4.016  49.637  1.00  0.00     0.297 C 
HETATM   24  O2  UNL     1      25.567   4.250  48.913  1.00  0.00    -0.258 OA
HETATM   25  H6  UNL     1      28.672   4.460  49.878  1.00  0.00     0.164 HD
BRANCH  23  26
HETATM   26  C4  UNL     1      26.538   3.165  50.792  1.00  0.00    -0.003 C 
HETATM   27  C3  UNL     1      26.520   2.443  51.759  1.00  0.00    -0.070 C 
BRANCH  27  28
HETATM   28  C2  UNL     1      26.514   1.581  52.943  1.00  0.00     0.261 C 
BRANCH  28  29
HETATM   29  O1  UNL     1      27.127   2.348  53.960  1.00  0.00    -0.384 OA
HETATM   30  C1  UNL     1      28.507   2.277  53.659  1.00  0.00     0.202 C 
ENDBRANCH  28  29
ENDBRANCH  27  28
ENDBRANCH  23  26
ENDBRANCH   1  22
TORSDOF 6
ENDMDL
MODEL 3
REMARK VINA RESULT:      -7.8      3.052      6.019
REMARK  6 active torsions:
REMARK  status: ('A' for Active; 'I' for Inactive)
REMARK    1  A    between atoms: O1_2  and  C2_3 
REMARK    2  A    between atoms: C2_3  and  C3_4 
REMARK    3  A    between atoms: C4_5  and  C5_6 
REMARK       I    between atoms: C5_6  and  N1_8 
REMARK    4  A    between atoms: N1_8  and  C6_9 
REMARK    5  A    between atoms: C13_18  and  N4_19 
REMARK    6  A    between atoms: N4_19  and  C14_20 
ROOT
HETATM    1  C6  UNL     1      26.744   1.888  51.552  1.00  0.00     0.112 A 
HETATM    2  C7  UNL     1      27.792   1.872  52.626  1.00  0.00     0.058 A 
HETATM    3  C8  UNL     1      27.320   1.122  53.811  1.00  0.00     0.008 A 
HETATM    4  C9  UNL     1      26.181   0.509  54.030  1.00  0.00     0.065 A 
HETATM    5  N2  UNL     1      26.009  -0.108  55.220  1.00  0.00    -0.259 NA
HETATM    6  C10 UNL     1      24.833  -0.739  55.441  1.00  0.00     0.142 A 
HETATM    7  C11 UNL     1      23.830  -0.755  54.479  1.00  0.00     0.089 A 
HETATM    8  C12 UNL     1      22.574  -1.432  54.721  1.00  0.00     0.103 C 
HETATM    9  N3  UNL     1      21.566  -1.968  54.931  1.00  0.00    -0.191 NA
HETATM   10  C13 UNL     1      23.981  -0.135  53.262  1.00  0.00     0.067 A 
HETATM   11  C20 UNL     1      25.195   0.494  53.083  1.00  0.00     0.019 A 
HETATM   12  C21 UNL     1      25.525   1.143  51.982  1.00  0.00     0.014 A 
ENDROOT
BRANCH  10  13
HETATM   13  N4  UNL     1      23.019  -0.097  52.222  1.00  0.00    -0.354 N 
HETATM   14  H12 UNL     1      22.919  -0.875  51.554  1.00  0.00     0.166 HD
BRANCH  13  15
HETATM   15  C14 UNL     1      22.170   1.037  52.090  1.00  0.00     0.033 A 
HETATM   16  C15 UNL     1      21.144   1.337  52.974  1.00  0.00     0.029 A 
HETATM   17  C16 UNL     1      20.337   2.457  52.808  1.00  0.00     0.004 A 
HETATM   18  C17 UNL     1      20.570   3.293  51.725  1.00  0.00     0.019 A 
HETATM   19  C18 UNL     1      21.576   3.041  50.816  1.00  0.00     0.013 A 
HETATM   20 BR1  UNL     1      21.875   4.205  49.338  1.00  0.00    -0.051 Br
HETATM   21  C19 UNL     1      22.334   1.920  51.039  1.00  0.00     0.048 A 
ENDBRANCH  13  15
ENDBRANCH  10  13
BRANCH   1  22
HETATM   22  N1  UNL     1      26.314   3.256  51.347  1.00  0.00    -0.342 N 
HETATM   23  C5  UNL     1      25.654   3.866  50.248  1.00  0.00     0.297 C 
HETATM   24  O2  UNL     1      25.367   3.152  49.252  1.00  0.00    -0.258 OA
HETATM   25  H6  UNL     1      26.575   3.818  52.204  1.00  0.00     0.164 HD
BRANCH  23  26
HETATM   26  C4  UNL     1      25.354   5.267  50.340  1.00  0.00    -0.003 C 
HETATM   27  C3  UNL     1      25.113   6.447  50.412  1.00  0.00    -0.070 C 
BRANCH  27  28
HETATM   28  C2  UNL     1      24.807   7.878  50.479  1.00  0.00     0.261 C 
BRANCH  28  29
HETATM   29  O1  UNL     1      23.463   7.947  50.913  1.00  0.00    -0.384 OA
HETATM   30  C1  UNL     1      22.733   8.208  49.730  1.00  0.00     0.202 C 
ENDBRANCH  28  29
ENDBRANCH  27  28
ENDBRANCH  23  26
ENDBRANCH   1  22
TORSDOF 6
ENDMDL
MODEL 4
REMARK VINA RESULT:      -7.7      3.311      4.973
REMARK  6 active torsions:
REMARK  status: ('A' for Active; 'I' for Inactive)
REMARK    1  A    between atoms: O1_2  and  C2_3 
REMARK    2  A    between atoms: C2_3  and  C3_4 
REMARK    3  A    between atoms: C4_5  and  C5_6 
REMARK       I    between atoms: C5_6  and  N1_8 
REMARK    4  A    between atoms: N1_8  and  C6_9 
REMARK    5  A    between atoms: C13_18  and  N4_19 
REMARK    6  A    between atoms: N4_19  and  C14_20 
ROOT
HETATM    1  C6  UNL     1      24.213   5.043  49.893  1.00  0.00     0.112 A 
HETATM    2  C7  UNL     1      23.322   4.780  48.713  1.00  0.00     0.058 A 
HETATM    3  C8  UNL     1      22.575   3.514  48.891  1.00  0.00     0.008 A 
HETATM    4  C9  UNL     1      22.588   2.651  49.878  1.00  0.00     0.065 A 
HETATM    5  N2  UNL     1      21.795   1.562  49.782  1.00  0.00    -0.259 NA
HETATM    6  C10 UNL     1      21.811   0.675  50.803  1.00  0.00     0.142 A 
HETATM    7  C11 UNL     1      22.617   0.873  51.919  1.00  0.00     0.089 A 
HETATM    8  C12 UNL     1      22.630  -0.079  53.008  1.00  0.00     0.103 C 
HETATM    9  N3  UNL     1      22.641  -0.856  53.871  1.00  0.00    -0.191 NA
HETATM   10  C13 UNL     1      23.432   1.973  52.040  1.00  0.00     0.067 A 
HETATM   11  C20 UNL     1      23.381   2.847  50.975  1.00  0.00     0.019 A 
HETATM   12  C21 UNL     1      24.092   3.958  50.908  1.00  0.00     0.014 A 
ENDROOT
BRANCH  10  13
HETATM   13  N4  UNL     1      24.285   2.259  53.134  1.00  0.00    -0.354 N 
HETATM   14  H12 UNL     1      23.970   2.841  53.923  1.00  0.00     0.166 HD
BRANCH  13  15
HETATM   15  C14 UNL     1      25.609   1.737  53.150  1.00  0.00     0.033 A 
HETATM   16  C15 UNL     1      26.735   2.505  53.408  1.00  0.00     0.029 A 
HETATM   17  C16 UNL     1      28.012   1.954  53.415  1.00  0.00     0.004 A 
HETATM   18  C17 UNL     1      28.155   0.598  53.154  1.00  0.00     0.019 A 
HETATM   19  C18 UNL     1      27.069  -0.210  52.890  1.00  0.00     0.013 A 
HETATM   20 BR1  UNL     1      27.294  -2.068  52.535  1.00  0.00    -0.051 Br
HETATM   21  C19 UNL     1      25.840   0.397  52.900  1.00  0.00     0.048 A 
ENDBRANCH  13  15
ENDBRANCH  10  13
BRANCH   1  22
HETATM   22  N1  UNL     1      25.591   5.010  49.446  1.00  0.00    -0.342 N 
HETATM   23  C5  UNL     1      26.403   6.022  48.872  1.00  0.00     0.297 C 
HETATM   24  O2  UNL     1      25.902   7.162  48.692  1.00  0.00    -0.258 OA
HETATM   25  H6  UNL     1      25.971   4.037  49.615  1.00  0.00     0.164 HD
BRANCH  23  26
HETATM   26  C4  UNL     1      27.755   5.681  48.527  1.00  0.00    -0.003 C 
HETATM   27  C3  UNL     1      28.889   5.384  48.242  1.00  0.00    -0.070 C 
BRANCH  27  28
HETATM   28  C2  UNL     1      30.259   5.017  47.875  1.00  0.00     0.261 C 
BRANCH  28  29
HETATM   29  O1  UNL     1      31.049   5.382  48.989  1.00  0.00    -0.384 OA
HETATM   30  C1  UNL     1      32.378   5.194  48.544  1.00  0.00     0.202 C 
ENDBRANCH  28  29
ENDBRANCH  27  28
ENDBRANCH  23  26
ENDBRANCH   1  22
TORSDOF 6
ENDMDL
MODEL 5
REMARK VINA RESULT:      -7.7      1.927      2.182
REMARK  6 active torsions:
REMARK  status: ('A' for Active; 'I' for Inactive)
REMARK    1  A    between atoms: O1_2  and  C2_3 
REMARK    2  A    between atoms: C2_3  and  C3_4 
REMARK    3  A    between atoms: C4_5  and  C5_6 
REMARK       I    between atoms: C5_6  and  N1_8 
REMARK    4  A    between atoms: N1_8  and  C6_9 
REMARK    5  A    between atoms: C13_18  and  N4_19 
REMARK    6  A    between atoms: N4_19  and  C14_20 
ROOT
HETATM    1  C6  UNL     1      24.074   3.340  50.870  1.00  0.00     0.112 A 
HETATM    2  C7  UNL     1      24.316   3.492  49.396  1.00  0.00     0.058 A 
HETATM    3  C8  UNL     1      23.069   3.260  48.632  1.00  0.00     0.008 A 
HETATM    4  C9  UNL     1      21.862   2.960  49.047  1.00  0.00     0.065 A 
HETATM    5  N2  UNL     1      20.892   2.801  48.121  1.00  0.00    -0.259 NA
HETATM    6  C10 UNL     1      19.648   2.492  48.554  1.00  0.00     0.142 A 
HETATM    7  C11 UNL     1      19.371   2.341  49.908  1.00  0.00     0.089 A 
HETATM    8  C12 UNL     1      18.039   2.011  50.365  1.00  0.00     0.103 C 
HETATM    9  N3  UNL     1      16.968   1.734  50.719  1.00  0.00    -0.191 NA
HETATM   10  C13 UNL     1      20.341   2.498  50.869  1.00  0.00     0.067 A 
HETATM   11  C20 UNL     1      21.591   2.812  50.379  1.00  0.00     0.019 A 
HETATM   12  C21 UNL     1      22.649   3.000  51.146  1.00  0.00     0.014 A 
ENDROOT
BRANCH  10  13
HETATM   13  N4  UNL     1      20.155   2.364  52.267  1.00  0.00    -0.354 N 
HETATM   14  H12 UNL     1      19.845   3.158  52.846  1.00  0.00     0.166 HD
BRANCH  13  15
HETATM   15  C14 UNL     1      20.403   1.111  52.893  1.00  0.00     0.033 A 
HETATM   16  C15 UNL     1      21.620   0.761  53.460  1.00  0.00     0.029 A 
HETATM   17  C16 UNL     1      21.819  -0.475  54.063  1.00  0.00     0.004 A 
HETATM   18  C17 UNL     1      20.766  -1.380  54.096  1.00  0.00     0.019 A 
HETATM   19  C18 UNL     1      19.536  -1.083  53.548  1.00  0.00     0.013 A 
HETATM   20 BR1  UNL     1      18.108  -2.342  53.607  1.00  0.00    -0.051 Br
HETATM   21  C19 UNL     1      19.408   0.153  52.969  1.00  0.00     0.048 A 
ENDBRANCH  13  15
ENDBRANCH  10  13
BRANCH   1  22
HETATM   22  N1  UNL     1      24.846   2.212  51.349  1.00  0.00    -0.342 N 
HETATM   23  C5  UNL     1      26.250   2.023  51.444  1.00  0.00     0.297 C 
HETATM   24  O2  UNL     1      27.006   2.954  51.063  1.00  0.00    -0.258 OA
HETATM   25  H6  UNL     1      24.174   1.456  51.657  1.00  0.00     0.164 HD
BRANCH  23  26
HETATM   26  C4  UNL     1      26.724   0.774  51.971  1.00  0.00    -0.003 C 
HETATM   27  C3  UNL     1      27.131  -0.276  52.405  1.00  0.00    -0.070 C 
BRANCH  27  28
HETATM   28  C2  UNL     1      27.636  -1.538  52.949  1.00  0.00     0.261 C 
BRANCH  28  29
HETATM   29  O1  UNL     1      28.429  -1.169  54.060  1.00  0.00    -0.384 OA
HETATM   30  C1  UNL     1      29.739  -1.080  53.532  1.00  0.00     0.202 C 
ENDBRANCH  28  29
ENDBRANCH  27  28
ENDBRANCH  23  26
ENDBRANCH   1  22
TORSDOF 6
ENDMDL
MODEL 6
REMARK VINA RESULT:      -7.7      2.867      5.214
REMARK  6 active torsions:
REMARK  status: ('A' for Active; 'I' for Inactive)
REMARK    1  A    between atoms: O1_2  and  C2_3 
REMARK    2  A    between atoms: C2_3  and  C3_4 
REMARK    3  A    between atoms: C4_5  and  C5_6 
REMARK       I    between atoms: C5_6  and  N1_8 
REMARK    4  A    between atoms: N1_8  and  C6_9 
REMARK    5  A    between atoms: C13_18  and  N4_19 
REMARK    6  A    between atoms: N4_19  and  C14_20 
ROOT
HETATM    1  C6  UNL     1      22.846  -0.094  52.592  1.00  0.00     0.112 A 
HETATM    2  C7  UNL     1      21.914   0.053  53.760  1.00  0.00     0.058 A 
HETATM    3  C8  UNL     1      21.030   1.228  53.583  1.00  0.00     0.008 A 
HETATM    4  C9  UNL     1      20.960   2.098  52.605  1.00  0.00     0.065 A 
HETATM    5  N2  UNL     1      20.047   3.090  52.698  1.00  0.00    -0.259 NA
HETATM    6  C10 UNL     1      19.978   3.984  51.687  1.00  0.00     0.142 A 
HETATM    7  C11 UNL     1      20.818   3.892  50.582  1.00  0.00     0.089 A 
HETATM    8  C12 UNL     1      20.739   4.853  49.503  1.00  0.00     0.103 C 
HETATM    9  N3  UNL     1      20.675   5.635  48.648  1.00  0.00    -0.191 NA
HETATM   10  C13 UNL     1      21.754   2.893  50.463  1.00  0.00     0.067 A 
HETATM   11  C20 UNL     1      21.786   2.006  51.519  1.00  0.00     0.019 A 
HETATM   12  C21 UNL     1      22.617   0.983  51.586  1.00  0.00     0.014 A 
ENDROOT
BRANCH  10  13
HETATM   13  N4  UNL     1      22.650   2.718  49.380  1.00  0.00    -0.354 N 
HETATM   14  H12 UNL     1      22.409   2.125  48.574  1.00  0.00     0.166 HD
BRANCH  13  15
HETATM   15  C14 UNL     1      23.914   3.371  49.400  1.00  0.00     0.033 A 
HETATM   16  C15 UNL     1      25.080   2.778  49.863  1.00  0.00     0.029 A 
HETATM   17  C16 UNL     1      26.295   3.452  49.864  1.00  0.00     0.004 A 
HETATM   18  C17 UNL     1      26.336   4.756  49.388  1.00  0.00     0.019 A 
HETATM   19  C18 UNL     1      25.208   5.393  48.917  1.00  0.00     0.013 A 
HETATM   20 BR1  UNL     1      25.292   7.182  48.269  1.00  0.00    -0.051 Br
HETATM   21  C19 UNL     1      24.042   4.670  48.944  1.00  0.00     0.048 A 
ENDBRANCH  13  15
ENDBRANCH  10  13
BRANCH   1  22
HETATM   22  N1  UNL     1      24.204   0.090  53.061  1.00  0.00    -0.342 N 
HETATM   23  C5  UNL     1      24.881  -0.461  54.181  1.00  0.00     0.297 C 
HETATM   24  O2  UNL     1      24.249  -1.247  54.934  1.00  0.00    -0.258 OA
HETATM   25  H6  UNL     1      24.696   0.755  52.402  1.00  0.00     0.164 HD
BRANCH  23  26
HETATM   26  C4  UNL     1      26.250  -0.084  54.389  1.00  0.00    -0.003 C 
HETATM   27  C3  UNL     1      27.404   0.222  54.565  1.00  0.00    -0.070 C 
BRANCH  27  28
HETATM   28  C2  UNL     1      28.808   0.593  54.756  1.00  0.00     0.261 C 
BRANCH  28  29
HETATM   29  O1  UNL     1      28.818   2.007  54.756  1.00  0.00    -0.384 OA
HETATM   30  C1  UNL     1      28.671   2.351  53.392  1.00  0.00     0.202 C 
ENDBRANCH  28  29
ENDBRANCH  27  28
ENDBRANCH  23  26
ENDBRANCH   1  22
TORSDOF 6
ENDMDL
MODEL 7
REMARK VINA RESULT:      -7.6      3.562      7.831
REMARK  6 active torsions:
REMARK  status: ('A' for Active; 'I' for Inactive)
REMARK    1  A    between atoms: O1_2  and  C2_3 
REMARK    2  A    between atoms: C2_3  and  C3_4 
REMARK    3  A    between atoms: C4_5  and  C5_6 
REMARK       I    between atoms: C5_6  and  N1_8 
REMARK    4  A    between atoms: N1_8  and  C6_9 
REMARK    5  A    between atoms: C13_18  and  N4_19 
REMARK    6  A    between atoms: N4_19  and  C14_20 
ROOT
HETATM    1  C6  UNL     1      20.919   0.299  54.014  1.00  0.00     0.112 A 
HETATM    2  C7  UNL     1      21.447  -1.012  54.519  1.00  0.00     0.058 A 
HETATM    3  C8  UNL     1      22.879  -1.170  54.177  1.00  0.00     0.008 A 
HETATM    4  C9  UNL     1      23.692  -0.367  53.535  1.00  0.00     0.065 A 
HETATM    5  N2  UNL     1      24.971  -0.764  53.359  1.00  0.00    -0.259 NA
HETATM    6  C10 UNL     1      25.807   0.068  52.696  1.00  0.00     0.142 A 
HETATM    7  C11 UNL     1      25.368   1.294  52.209  1.00  0.00     0.089 A 
HETATM    8  C12 UNL     1      26.267   2.180  51.501  1.00  0.00     0.103 C 
HETATM    9  N3  UNL     1      26.994   2.878  50.925  1.00  0.00    -0.191 NA
HETATM   10  C13 UNL     1      24.073   1.721  52.376  1.00  0.00     0.067 A 
HETATM   11  C20 UNL     1      23.260   0.839  53.057  1.00  0.00     0.019 A 
HETATM   12  C21 UNL     1      21.986   1.071  53.314  1.00  0.00     0.014 A 
ENDROOT
BRANCH  10  13
HETATM   13  N4  UNL     1      23.536   2.949  51.917  1.00  0.00    -0.354 N 
HETATM   14  H12 UNL     1      23.405   3.749  52.553  1.00  0.00     0.166 HD
BRANCH  13  15
HETATM   15  C14 UNL     1      23.165   3.088  50.551  1.00  0.00     0.033 A 
HETATM   16  C15 UNL     1      22.652   2.053  49.783  1.00  0.00     0.029 A 
HETATM   17  C16 UNL     1      22.302   2.233  48.450  1.00  0.00     0.004 A 
HETATM   18  C17 UNL     1      22.473   3.486  47.878  1.00  0.00     0.019 A 
HETATM   19  C18 UNL     1      22.980   4.549  48.595  1.00  0.00     0.013 A 
HETATM   20 BR1  UNL     1      23.205   6.258  47.785  1.00  0.00    -0.051 Br
HETATM   21  C19 UNL     1      23.304   4.303  49.904  1.00  0.00     0.048 A 
ENDBRANCH  13  15
ENDBRANCH  10  13
BRANCH   1  22
HETATM   22  N1  UNL     1      19.906   0.034  53.013  1.00  0.00    -0.342 N 
HETATM   23  C5  UNL     1      19.207   0.914  52.146  1.00  0.00     0.297 C 
HETATM   24  O2  UNL     1      19.463   2.145  52.209  1.00  0.00    -0.258 OA
HETATM   25  H6  UNL     1      19.722  -1.007  52.995  1.00  0.00     0.164 HD
BRANCH  23  26
HETATM   26  C4  UNL     1      18.244   0.344  51.247  1.00  0.00    -0.003 C 
HETATM   27  C3  UNL     1      17.428  -0.138  50.500  1.00  0.00    -0.070 C 
BRANCH  27  28
HETATM   28  C2  UNL     1      16.427  -0.702  49.591  1.00  0.00     0.261 C 
BRANCH  28  29
HETATM   29  O1  UNL     1      15.185  -0.488  50.233  1.00  0.00    -0.384 OA
HETATM   30  C1  UNL     1      15.032  -1.618  51.070  1.00  0.00     0.202 C 
ENDBRANCH  28  29
ENDBRANCH  27  28
ENDBRANCH  23  26
ENDBRANCH   1  22
TORSDOF 6
ENDMDL
MODEL 8
REMARK VINA RESULT:      -7.4      8.058     10.821
REMARK  6 active torsions:
REMARK  status: ('A' for Active; 'I' for Inactive)
REMARK    1  A    between atoms: O1_2  and  C2_3 
REMARK    2  A    between atoms: C2_3  and  C3_4 
REMARK    3  A    between atoms: C4_5  and  C5_6 
REMARK       I    between atoms: C5_6  and  N1_8 
REMARK    4  A    between atoms: N1_8  and  C6_9 
REMARK    5  A    between atoms: C13_18  and  N4_19 
REMARK    6  A    between atoms: N4_19  and  C14_20 
ROOT
HETATM    1  C6  UNL     1      32.018   5.433  47.694  1.00  0.00     0.112 A 
HETATM    2  C7  UNL     1      33.161   6.141  48.362  1.00  0.00     0.058 A 
HETATM    3  C8  UNL     1      32.710   7.413  48.970  1.00  0.00     0.008 A 
HETATM    4  C9  UNL     1      31.521   7.965  49.000  1.00  0.00     0.065 A 
HETATM    5  N2  UNL     1      31.385   9.150  49.634  1.00  0.00    -0.259 NA
HETATM    6  C10 UNL     1      30.157   9.715  49.664  1.00  0.00     0.142 A 
HETATM    7  C11 UNL     1      29.065   9.101  49.061  1.00  0.00     0.089 A 
HETATM    8  C12 UNL     1      27.753   9.711  49.096  1.00  0.00     0.103 C 
HETATM    9  N3  UNL     1      26.707  10.215  49.120  1.00  0.00    -0.191 NA
HETATM   10  C13 UNL     1      29.176   7.896  48.411  1.00  0.00     0.067 A 
HETATM   11  C20 UNL     1      30.447   7.359  48.408  1.00  0.00     0.019 A 
HETATM   12  C21 UNL     1      30.753   6.211  47.834  1.00  0.00     0.014 A 
ENDROOT
BRANCH  10  13
HETATM   13  N4  UNL     1      28.125   7.195  47.770  1.00  0.00    -0.354 N 
HETATM   14  H12 UNL     1      27.902   7.354  46.777  1.00  0.00     0.166 HD
BRANCH  13  15
HETATM   15  C14 UNL     1      27.355   6.253  48.506  1.00  0.00     0.033 A 
HETATM   16  C15 UNL     1      27.651   4.899  48.571  1.00  0.00     0.029 A 
HETATM   17  C16 UNL     1      26.871   4.013  49.304  1.00  0.00     0.004 A 
HETATM   18  C17 UNL     1      25.767   4.502  49.988  1.00  0.00     0.019 A 
HETATM   19  C18 UNL     1      25.427   5.838  49.958  1.00  0.00     0.013 A 
HETATM   20 BR1  UNL     1      23.907   6.484  50.906  1.00  0.00    -0.051 Br
HETATM   21  C19 UNL     1      26.239   6.658  49.216  1.00  0.00     0.048 A 
ENDBRANCH  13  15
ENDBRANCH  10  13
BRANCH   1  22
HETATM   22  N1  UNL     1      32.283   5.369  46.272  1.00  0.00    -0.342 N 
HETATM   23  C5  UNL     1      33.090   4.476  45.518  1.00  0.00     0.297 C 
HETATM   24  O2  UNL     1      33.705   3.564  46.131  1.00  0.00    -0.258 OA
HETATM   25  H6  UNL     1      31.749   6.150  45.798  1.00  0.00     0.164 HD
BRANCH  23  26
HETATM   26  C4  UNL     1      33.156   4.668  44.097  1.00  0.00    -0.003 C 
HETATM   27  C3  UNL     1      33.210   4.819  42.901  1.00  0.00    -0.070 C 
BRANCH  27  28
HETATM   28  C2  UNL     1      33.252   5.009  41.449  1.00  0.00     0.261 C 
BRANCH  28  29
HETATM   29  O1  UNL     1      32.596   3.878  40.911  1.00  0.00    -0.384 OA
HETATM   30  C1  UNL     1      33.652   3.047  40.470  1.00  0.00     0.202 C 
ENDBRANCH  28  29
ENDBRANCH  27  28
ENDBRANCH  23  26
ENDBRANCH   1  22
TORSDOF 6
ENDMDL
MODEL 9
REMARK VINA RESULT:      -7.4      3.362      7.807
REMARK  6 active torsions:
REMARK  status: ('A' for Active; 'I' for Inactive)
REMARK    1  A    between atoms: O1_2  and  C2_3 
REMARK    2  A    between atoms: C2_3  and  C3_4 
REMARK    3  A    between atoms: C4_5  and  C5_6 
REMARK       I    between atoms: C5_6  and  N1_8 
REMARK    4  A    between atoms: N1_8  and  C6_9 
REMARK    5  A    between atoms: C13_18  and  N4_19 
REMARK    6  A    between atoms: N4_19  and  C14_20 
ROOT
HETATM    1  C6  UNL     1      21.185   0.984  53.245  1.00  0.00     0.112 A 
HETATM    2  C7  UNL     1      21.248  -0.515  53.314  1.00  0.00     0.058 A 
HETATM    3  C8  UNL     1      22.651  -0.985  53.255  1.00  0.00     0.008 A 
HETATM    4  C9  UNL     1      23.770  -0.309  53.157  1.00  0.00     0.065 A 
HETATM    5  N2  UNL     1      24.930  -1.000  53.123  1.00  0.00    -0.259 NA
HETATM    6  C10 UNL     1      26.082  -0.298  53.023  1.00  0.00     0.142 A 
HETATM    7  C11 UNL     1      26.078   1.091  52.957  1.00  0.00     0.089 A 
HETATM    8  C12 UNL     1      27.314   1.836  52.851  1.00  0.00     0.103 C 
HETATM    9  N3  UNL     1      28.311   2.423  52.753  1.00  0.00    -0.191 NA
HETATM   10  C13 UNL     1      24.912   1.816  52.991  1.00  0.00     0.067 A 
HETATM   11  C20 UNL     1      23.765   1.057  53.093  1.00  0.00     0.019 A 
HETATM   12  C21 UNL     1      22.551   1.573  53.138  1.00  0.00     0.014 A 
ENDROOT
BRANCH  10  13
HETATM   13  N4  UNL     1      24.808   3.228  52.929  1.00  0.00    -0.354 N 
HETATM   14  H12 UNL     1      25.016   3.818  53.747  1.00  0.00     0.166 HD
BRANCH  13  15
HETATM   15  C14 UNL     1      24.406   3.852  51.715  1.00  0.00     0.033 A 
HETATM   16  C15 UNL     1      24.938   3.534  50.474  1.00  0.00     0.029 A 
HETATM   17  C16 UNL     1      24.516   4.168  49.311  1.00  0.00     0.004 A 
HETATM   18  C17 UNL     1      23.535   5.147  49.403  1.00  0.00     0.019 A 
HETATM   19  C18 UNL     1      22.974   5.502  50.611  1.00  0.00     0.013 A 
HETATM   20 BR1  UNL     1      21.630   6.848  50.709  1.00  0.00    -0.051 Br
HETATM   21  C19 UNL     1      23.435   4.837  51.718  1.00  0.00     0.048 A 
ENDBRANCH  13  15
ENDBRANCH  10  13
BRANCH   1  22
HETATM   22  N1  UNL     1      20.499   1.360  52.025  1.00  0.00    -0.342 N 
HETATM   23  C5  UNL     1      19.816   2.555  51.677  1.00  0.00     0.297 C 
HETATM   24  O2  UNL     1      19.759   3.481  52.527  1.00  0.00    -0.258 OA
HETATM   25  H6  UNL     1      20.571   0.556  51.342  1.00  0.00     0.164 HD
BRANCH  23  26
HETATM   26  C4  UNL     1      19.227   2.633  50.370  1.00  0.00    -0.003 C 
HETATM   27  C3  UNL     1      18.731   2.711  49.273  1.00  0.00    -0.070 C 
BRANCH  27  28
HETATM   28  C2  UNL     1      18.150   2.805  47.932  1.00  0.00     0.261 C 
BRANCH  28  29
HETATM   29  O1  UNL     1      16.871   3.378  48.124  1.00  0.00    -0.384 OA
HETATM   30  C1  UNL     1      17.110   4.771  48.081  1.00  0.00     0.202 C 
ENDBRANCH  28  29
ENDBRANCH  27  28
ENDBRANCH  23  26
ENDBRANCH   1  22
TORSDOF 6
ENDMDL
