MODEL 1
REMARK VINA RESULT:      -9.7      0.000      0.000
REMARK  2 active torsions:
REMARK  status: ('A' for Active; 'I' for Inactive)
REMARK    1  A    between atoms: O1_1  and  C1_2 
REMARK    2  A    between atoms: C3_5  and  N1_6 
ROOT
HETATM    1  N1  UNL     1      26.915   1.502  52.774  1.00  0.00    -0.237 N 
HETATM    2  N2  UNL     1      27.392   2.540  51.932  1.00  0.00    -0.179 NA
HETATM    3  C4  UNL     1      26.598   2.890  51.010  1.00  0.00     0.035 C 
HETATM    4  C5  UNL     1      26.344   3.250  49.551  1.00  0.00     0.057 C 
HETATM    5  C6  UNL     1      24.864   3.182  49.213  1.00  0.00    -0.014 C 
HETATM    6  C7  UNL     1      23.505   3.105  48.993  1.00  0.00     0.043 C 
HETATM    7  C8  UNL     1      22.388   2.865  49.951  1.00  0.00    -0.025 C 
HETATM    8  C9  UNL     1      21.823   2.659  51.155  1.00  0.00    -0.026 C 
HETATM    9  C10 UNL     1      22.625   2.628  52.385  1.00  0.00     0.066 C 
HETATM   10  C11 UNL     1      23.158   1.413  52.943  1.00  0.00    -0.046 A 
HETATM   11  C12 UNL     1      22.266   0.394  53.164  1.00  0.00     0.008 A 
HETATM   12  C13 UNL     1      22.559  -0.830  53.728  1.00  0.00     0.001 A 
HETATM   13  C14 UNL     1      23.882  -1.060  54.111  1.00  0.00     0.001 A 
HETATM   14  C15 UNL     1      24.801  -0.038  53.894  1.00  0.00     0.010 A 
HETATM   15  C16 UNL     1      24.511   1.187  53.328  1.00  0.00    -0.026 A 
HETATM   16  C17 UNL     1      25.699   2.118  53.181  1.00  0.00     0.151 C 
HETATM   17  C18 UNL     1      25.442   2.902  51.949  1.00  0.00     0.088 C 
ENDROOT
BRANCH   1  18
HETATM   18  C3  UNL     1      27.729   0.234  52.985  1.00  0.00     0.192 A 
HETATM   19  S1  UNL     1      29.469   0.282  53.752  1.00  0.00    -0.058 SA
HETATM   20  C2  UNL     1      29.518  -1.625  53.557  1.00  0.00     0.111 A 
HETATM   21  C1  UNL     1      28.336  -1.907  53.007  1.00  0.00     0.171 A 
HETATM   22  N3  UNL     1      27.601  -0.861  52.804  1.00  0.00    -0.198 NA
BRANCH  21  23
HETATM   23  O1  UNL     1      28.195  -3.272  52.791  1.00  0.00    -0.344 OA
HETATM   24  H1  UNL     1      27.943  -3.895  53.565  1.00  0.00     0.219 HD
ENDBRANCH  21  23
ENDBRANCH   1  18
TORSDOF 2
ENDMDL
MODEL 2
REMARK VINA RESULT:      -8.9      1.982      2.572
REMARK  2 active torsions:
REMARK  status: ('A' for Active; 'I' for Inactive)
REMARK    1  A    between atoms: O1_1  and  C1_2 
REMARK    2  A    between atoms: C3_5  and  N1_6 
ROOT
HETATM    1  N1  UNL     1      24.728   2.239  52.592  1.00  0.00    -0.237 N 
HETATM    2  N2  UNL     1      24.804   3.208  51.559  1.00  0.00    -0.179 NA
HETATM    3  C4  UNL     1      24.011   3.023  50.589  1.00  0.00     0.035 C 
HETATM    4  C5  UNL     1      23.747   2.972  49.089  1.00  0.00     0.057 C 
HETATM    5  C6  UNL     1      22.456   2.235  48.777  1.00  0.00    -0.014 C 
HETATM    6  C7  UNL     1      21.269   1.561  48.583  1.00  0.00     0.043 C 
HETATM    7  C8  UNL     1      20.276   1.057  49.575  1.00  0.00    -0.025 C 
HETATM    8  C9  UNL     1      19.751   0.857  50.798  1.00  0.00    -0.026 C 
HETATM    9  C10 UNL     1      20.397   1.387  52.006  1.00  0.00     0.066 C 
HETATM   10  C11 UNL     1      21.333   0.628  52.791  1.00  0.00    -0.046 A 
HETATM   11  C12 UNL     1      20.921  -0.611  53.214  1.00  0.00     0.008 A 
HETATM   12  C13 UNL     1      21.644  -1.477  54.008  1.00  0.00     0.001 A 
HETATM   13  C14 UNL     1      22.910  -1.062  54.423  1.00  0.00     0.001 A 
HETATM   14  C15 UNL     1      23.346   0.191  54.003  1.00  0.00     0.010 A 
HETATM   15  C16 UNL     1      22.626   1.059  53.208  1.00  0.00    -0.026 A 
HETATM   16  C17 UNL     1      23.339   2.356  52.873  1.00  0.00     0.151 C 
HETATM   17  C18 UNL     1      22.881   2.723  51.512  1.00  0.00     0.088 C 
ENDROOT
BRANCH   1  18
HETATM   18  C3  UNL     1      25.969   1.485  53.046  1.00  0.00     0.192 A 
HETATM   19  S1  UNL     1      26.624  -0.025  52.091  1.00  0.00    -0.058 SA
HETATM   20  C2  UNL     1      28.026  -0.137  53.393  1.00  0.00     0.111 A 
HETATM   21  C1  UNL     1      27.762   0.879  54.217  1.00  0.00     0.171 A 
HETATM   22  N3  UNL     1      26.713   1.556  53.877  1.00  0.00    -0.198 NA
BRANCH  21  23
HETATM   23  O1  UNL     1      28.697   0.952  55.242  1.00  0.00    -0.344 OA
HETATM   24  H1  UNL     1      28.570   0.401  56.098  1.00  0.00     0.219 HD
ENDBRANCH  21  23
ENDBRANCH   1  18
TORSDOF 2
ENDMDL
MODEL 3
REMARK VINA RESULT:      -8.4      3.682      5.885
REMARK  2 active torsions:
REMARK  status: ('A' for Active; 'I' for Inactive)
REMARK    1  A    between atoms: O1_1  and  C1_2 
REMARK    2  A    between atoms: C3_5  and  N1_6 
ROOT
HETATM    1  N1  UNL     1      25.057   3.109  50.751  1.00  0.00    -0.237 N 
HETATM    2  N2  UNL     1      26.450   2.842  50.804  1.00  0.00    -0.179 NA
HETATM    3  C4  UNL     1      26.839   2.221  51.837  1.00  0.00     0.035 C 
HETATM    4  C5  UNL     1      27.827   2.057  52.985  1.00  0.00     0.057 C 
HETATM    5  C6  UNL     1      27.263   1.166  54.079  1.00  0.00    -0.014 C 
HETATM    6  C7  UNL     1      26.680   0.342  55.019  1.00  0.00     0.043 C 
HETATM    7  C8  UNL     1      25.396  -0.415  54.969  1.00  0.00    -0.025 C 
HETATM    8  C9  UNL     1      24.255  -0.868  54.417  1.00  0.00    -0.026 C 
HETATM    9  C10 UNL     1      23.880  -0.526  53.038  1.00  0.00     0.066 C 
HETATM   10  C11 UNL     1      23.049   0.600  52.709  1.00  0.00    -0.046 A 
HETATM   11  C12 UNL     1      21.842   0.686  53.356  1.00  0.00     0.008 A 
HETATM   12  C13 UNL     1      20.883   1.656  53.157  1.00  0.00     0.001 A 
HETATM   13  C14 UNL     1      21.158   2.645  52.211  1.00  0.00     0.001 A 
HETATM   14  C15 UNL     1      22.377   2.576  51.544  1.00  0.00     0.010 A 
HETATM   15  C16 UNL     1      23.340   1.608  51.743  1.00  0.00    -0.026 A 
HETATM   16  C17 UNL     1      24.593   1.773  50.905  1.00  0.00     0.151 C 
HETATM   17  C18 UNL     1      25.704   1.262  51.742  1.00  0.00     0.088 C 
ENDROOT
BRANCH   1  18
HETATM   18  C3  UNL     1      24.542   4.526  50.553  1.00  0.00     0.192 A 
HETATM   19  S1  UNL     1      23.669   5.054  48.947  1.00  0.00    -0.058 SA
HETATM   20  C2  UNL     1      23.484   6.800  49.719  1.00  0.00     0.111 A 
HETATM   21  C1  UNL     1      24.057   6.668  50.917  1.00  0.00     0.171 A 
HETATM   22  N3  UNL     1      24.515   5.477  51.139  1.00  0.00    -0.198 NA
BRANCH  21  23
HETATM   23  O1  UNL     1      24.012   7.859  51.630  1.00  0.00    -0.344 OA
HETATM   24  H1  UNL     1      23.896   8.752  51.140  1.00  0.00     0.219 HD
ENDBRANCH  21  23
ENDBRANCH   1  18
TORSDOF 2
ENDMDL
MODEL 4
REMARK VINA RESULT:      -8.0      3.410      5.299
REMARK  2 active torsions:
REMARK  status: ('A' for Active; 'I' for Inactive)
REMARK    1  A    between atoms: O1_1  and  C1_2 
REMARK    2  A    between atoms: C3_5  and  N1_6 
ROOT
HETATM    1  N1  UNL     1      23.988   4.185  51.553  1.00  0.00    -0.237 N 
HETATM    2  N2  UNL     1      22.637   4.618  51.518  1.00  0.00    -0.179 NA
HETATM    3  C4  UNL     1      21.779   3.689  51.444  1.00  0.00     0.035 C 
HETATM    4  C5  UNL     1      20.512   3.108  50.826  1.00  0.00     0.057 C 
HETATM    5  C6  UNL     1      20.392   1.620  51.107  1.00  0.00    -0.014 C 
HETATM    6  C7  UNL     1      20.356   0.275  51.413  1.00  0.00     0.043 C 
HETATM    7  C8  UNL     1      21.249  -0.535  52.290  1.00  0.00    -0.025 C 
HETATM    8  C9  UNL     1      22.266  -0.754  53.145  1.00  0.00    -0.026 C 
HETATM    9  C10 UNL     1      23.112   0.345  53.629  1.00  0.00     0.066 C 
HETATM   10  C11 UNL     1      24.343   0.726  52.990  1.00  0.00    -0.046 A 
HETATM   11  C12 UNL     1      25.266  -0.270  52.786  1.00  0.00     0.008 A 
HETATM   12  C13 UNL     1      26.519  -0.111  52.233  1.00  0.00     0.001 A 
HETATM   13  C14 UNL     1      26.889   1.177  51.842  1.00  0.00     0.001 A 
HETATM   14  C15 UNL     1      25.967   2.199  52.040  1.00  0.00     0.010 A 
HETATM   15  C16 UNL     1      24.712   2.044  52.592  1.00  0.00    -0.026 A 
HETATM   16  C17 UNL     1      23.890   3.316  52.675  1.00  0.00     0.151 C 
HETATM   17  C18 UNL     1      22.481   2.895  52.488  1.00  0.00     0.088 C 
ENDROOT
BRANCH   1  18
HETATM   18  C3  UNL     1      25.001   4.713  50.549  1.00  0.00     0.192 A 
HETATM   19  S1  UNL     1      24.850   6.456  49.802  1.00  0.00    -0.058 SA
HETATM   20  C2  UNL     1      26.450   6.082  48.813  1.00  0.00     0.111 A 
HETATM   21  C1  UNL     1      26.762   4.842  49.194  1.00  0.00     0.171 A 
HETATM   22  N3  UNL     1      25.930   4.343  50.050  1.00  0.00    -0.198 NA
BRANCH  21  23
HETATM   23  O1  UNL     1      27.919   4.400  48.564  1.00  0.00    -0.344 OA
HETATM   24  H1  UNL     1      27.867   3.693  47.823  1.00  0.00     0.219 HD
ENDBRANCH  21  23
ENDBRANCH   1  18
TORSDOF 2
ENDMDL
MODEL 5
REMARK VINA RESULT:      -8.0      4.769      7.081
REMARK  2 active torsions:
REMARK  status: ('A' for Active; 'I' for Inactive)
REMARK    1  A    between atoms: O1_1  and  C1_2 
REMARK    2  A    between atoms: C3_5  and  N1_6 
ROOT
HETATM    1  N1  UNL     1      25.752   5.690  49.059  1.00  0.00    -0.237 N 
HETATM    2  N2  UNL     1      26.574   4.534  49.085  1.00  0.00    -0.179 NA
HETATM    3  C4  UNL     1      26.247   3.661  49.942  1.00  0.00     0.035 C 
HETATM    4  C5  UNL     1      26.634   2.679  51.041  1.00  0.00     0.057 C 
HETATM    5  C6  UNL     1      25.425   2.262  51.862  1.00  0.00    -0.014 C 
HETATM    6  C7  UNL     1      24.277   1.931  52.551  1.00  0.00     0.043 C 
HETATM    7  C8  UNL     1      22.856   2.287  52.277  1.00  0.00    -0.025 C 
HETATM    8  C9  UNL     1      21.835   2.842  51.597  1.00  0.00    -0.026 C 
HETATM    9  C10 UNL     1      22.055   3.564  50.337  1.00  0.00     0.066 C 
HETATM   10  C11 UNL     1      22.261   4.986  50.273  1.00  0.00    -0.046 A 
HETATM   11  C12 UNL     1      21.319   5.773  50.887  1.00  0.00     0.008 A 
HETATM   12  C13 UNL     1      21.306   7.152  50.907  1.00  0.00     0.001 A 
HETATM   13  C14 UNL     1      22.341   7.814  50.245  1.00  0.00     0.001 A 
HETATM   14  C15 UNL     1      23.307   7.032  49.617  1.00  0.00     0.010 A 
HETATM   15  C16 UNL     1      23.324   5.653  49.597  1.00  0.00    -0.026 A 
HETATM   16  C17 UNL     1      24.502   5.041  48.863  1.00  0.00     0.151 C 
HETATM   17  C18 UNL     1      24.808   3.779  49.579  1.00  0.00     0.088 C 
ENDROOT
BRANCH   1  18
HETATM   18  C3  UNL     1      26.356   7.078  49.205  1.00  0.00     0.192 A 
HETATM   19  S1  UNL     1      26.788   8.142  47.687  1.00  0.00    -0.058 SA
HETATM   20  C2  UNL     1      27.393   9.491  48.908  1.00  0.00     0.111 A 
HETATM   21  C1  UNL     1      27.177   8.941  50.104  1.00  0.00     0.171 A 
HETATM   22  N3  UNL     1      26.663   7.755  50.039  1.00  0.00    -0.198 NA
BRANCH  21  23
HETATM   23  O1  UNL     1      27.564   9.797  51.129  1.00  0.00    -0.344 OA
HETATM   24  H1  UNL     1      26.877  10.413  51.576  1.00  0.00     0.219 HD
ENDBRANCH  21  23
ENDBRANCH   1  18
TORSDOF 2
ENDMDL
MODEL 6
REMARK VINA RESULT:      -7.9      2.886      5.382
REMARK  2 active torsions:
REMARK  status: ('A' for Active; 'I' for Inactive)
REMARK    1  A    between atoms: O1_1  and  C1_2 
REMARK    2  A    between atoms: C3_5  and  N1_6 
ROOT
HETATM    1  N1  UNL     1      24.770   2.532  50.871  1.00  0.00    -0.237 N 
HETATM    2  N2  UNL     1      23.460   2.337  51.380  1.00  0.00    -0.179 NA
HETATM    3  C4  UNL     1      22.750   3.384  51.450  1.00  0.00     0.035 C 
HETATM    4  C5  UNL     1      21.787   4.277  52.222  1.00  0.00     0.057 C 
HETATM    5  C6  UNL     1      21.721   5.671  51.621  1.00  0.00    -0.014 C 
HETATM    6  C7  UNL     1      21.715   6.908  51.010  1.00  0.00     0.043 C 
HETATM    7  C8  UNL     1      22.371   7.360  49.750  1.00  0.00    -0.025 C 
HETATM    8  C9  UNL     1      23.097   7.227  48.624  1.00  0.00    -0.026 C 
HETATM    9  C10 UNL     1      23.656   5.931  48.220  1.00  0.00     0.066 C 
HETATM   10  C11 UNL     1      24.983   5.504  48.574  1.00  0.00    -0.046 A 
HETATM   11  C12 UNL     1      26.010   6.361  48.264  1.00  0.00     0.008 A 
HETATM   12  C13 UNL     1      27.352   6.127  48.477  1.00  0.00     0.001 A 
HETATM   13  C14 UNL     1      27.706   4.910  49.062  1.00  0.00     0.001 A 
HETATM   14  C15 UNL     1      26.679   4.028  49.385  1.00  0.00     0.010 A 
HETATM   15  C16 UNL     1      25.335   4.260  49.174  1.00  0.00    -0.026 A 
HETATM   16  C17 UNL     1      24.416   3.146  49.638  1.00  0.00     0.151 C 
HETATM   17  C18 UNL     1      23.173   3.816  50.089  1.00  0.00     0.088 C 
ENDROOT
BRANCH   1  18
HETATM   18  C3  UNL     1      25.987   2.076  51.662  1.00  0.00     0.192 A 
HETATM   19  S1  UNL     1      26.187   0.272  52.233  1.00  0.00    -0.058 SA
HETATM   20  C2  UNL     1      27.856   0.793  53.020  1.00  0.00     0.111 A 
HETATM   21  C1  UNL     1      27.937   2.094  52.734  1.00  0.00     0.171 A 
HETATM   22  N3  UNL     1      26.924   2.536  52.061  1.00  0.00    -0.198 NA
BRANCH  21  23
HETATM   23  O1  UNL     1      29.108   2.648  53.238  1.00  0.00    -0.344 OA
HETATM   24  H1  UNL     1      29.386   3.598  52.973  1.00  0.00     0.219 HD
ENDBRANCH  21  23
ENDBRANCH   1  18
TORSDOF 2
ENDMDL
MODEL 7
REMARK VINA RESULT:      -7.8      4.112      6.534
REMARK  2 active torsions:
REMARK  status: ('A' for Active; 'I' for Inactive)
REMARK    1  A    between atoms: O1_1  and  C1_2 
REMARK    2  A    between atoms: C3_5  and  N1_6 
ROOT
HETATM    1  N1  UNL     1      23.066   2.636  50.609  1.00  0.00    -0.237 N 
HETATM    2  N2  UNL     1      23.976   1.644  51.057  1.00  0.00    -0.179 NA
HETATM    3  C4  UNL     1      23.540   0.894  51.979  1.00  0.00     0.035 C 
HETATM    4  C5  UNL     1      23.742   0.190  53.316  1.00  0.00     0.057 C 
HETATM    5  C6  UNL     1      22.419  -0.260  53.911  1.00  0.00    -0.014 C 
HETATM    6  C7  UNL     1      21.177  -0.641  54.376  1.00  0.00     0.043 C 
HETATM    7  C8  UNL     1      19.841  -0.563  53.721  1.00  0.00    -0.025 C 
HETATM    8  C9  UNL     1      18.970  -0.300  52.728  1.00  0.00    -0.026 C 
HETATM    9  C10 UNL     1      19.420   0.217  51.429  1.00  0.00     0.066 C 
HETATM   10  C11 UNL     1      19.480   1.621  51.122  1.00  0.00    -0.046 A 
HETATM   11  C12 UNL     1      18.334   2.347  51.330  1.00  0.00     0.008 A 
HETATM   12  C13 UNL     1      18.166   3.689  51.062  1.00  0.00     0.001 A 
HETATM   13  C14 UNL     1      19.256   4.378  50.529  1.00  0.00     0.001 A 
HETATM   14  C15 UNL     1      20.428   3.658  50.311  1.00  0.00     0.010 A 
HETATM   15  C16 UNL     1      20.600   2.316  50.580  1.00  0.00    -0.026 A 
HETATM   16  C17 UNL     1      21.984   1.777  50.273  1.00  0.00     0.151 C 
HETATM   17  C18 UNL     1      22.235   0.722  51.284  1.00  0.00     0.088 C 
ENDROOT
BRANCH   1  18
HETATM   18  C3  UNL     1      23.459   4.106  50.597  1.00  0.00     0.192 A 
HETATM   19  S1  UNL     1      23.597   5.088  48.973  1.00  0.00    -0.058 SA
HETATM   20  C2  UNL     1      24.085   6.610  50.031  1.00  0.00     0.111 A 
HETATM   21  C1  UNL     1      24.055   6.139  51.279  1.00  0.00     0.171 A 
HETATM   22  N3  UNL     1      23.726   4.889  51.348  1.00  0.00    -0.198 NA
BRANCH  21  23
HETATM   23  O1  UNL     1      24.389   7.126  52.198  1.00  0.00    -0.344 OA
HETATM   24  H1  UNL     1      23.962   8.056  52.136  1.00  0.00     0.219 HD
ENDBRANCH  21  23
ENDBRANCH   1  18
TORSDOF 2
ENDMDL
MODEL 8
REMARK VINA RESULT:      -7.8      8.024     10.124
REMARK  2 active torsions:
REMARK  status: ('A' for Active; 'I' for Inactive)
REMARK    1  A    between atoms: O1_1  and  C1_2 
REMARK    2  A    between atoms: C3_5  and  N1_6 
ROOT
HETATM    1  N1  UNL     1      33.112   6.071  48.552  1.00  0.00    -0.237 N 
HETATM    2  N2  UNL     1      34.316   6.821  48.545  1.00  0.00    -0.179 NA
HETATM    3  C4  UNL     1      34.208   8.005  48.110  1.00  0.00     0.035 C 
HETATM    4  C5  UNL     1      34.723   9.145  47.238  1.00  0.00     0.057 C 
HETATM    5  C6  UNL     1      33.656  10.203  47.022  1.00  0.00    -0.014 C 
HETATM    6  C7  UNL     1      32.634  11.119  46.883  1.00  0.00     0.043 C 
HETATM    7  C8  UNL     1      31.291  11.166  47.528  1.00  0.00    -0.025 C 
HETATM    8  C9  UNL     1      30.305  10.760  48.350  1.00  0.00    -0.026 C 
HETATM    9  C10 UNL     1      30.469   9.591  49.225  1.00  0.00     0.066 C 
HETATM   10  C11 UNL     1      30.067   8.264  48.843  1.00  0.00    -0.046 A 
HETATM   11  C12 UNL     1      28.774   8.111  48.411  1.00  0.00     0.008 A 
HETATM   12  C13 UNL     1      28.179   6.924  48.041  1.00  0.00     0.001 A 
HETATM   13  C14 UNL     1      28.956   5.767  48.110  1.00  0.00     0.001 A 
HETATM   14  C15 UNL     1      30.271   5.901  48.545  1.00  0.00     0.010 A 
HETATM   15  C16 UNL     1      30.871   7.088  48.914  1.00  0.00    -0.026 A 
HETATM   16  C17 UNL     1      32.324   6.966  49.329  1.00  0.00     0.151 C 
HETATM   17  C18 UNL     1      32.969   8.232  48.903  1.00  0.00     0.088 C 
ENDROOT
BRANCH   1  18
HETATM   18  C3  UNL     1      33.029   4.722  47.854  1.00  0.00     0.192 A 
HETATM   19  S1  UNL     1      34.543   3.579  47.711  1.00  0.00    -0.058 SA
HETATM   20  C2  UNL     1      33.418   2.341  46.775  1.00  0.00     0.111 A 
HETATM   21  C1  UNL     1      32.236   2.961  46.749  1.00  0.00     0.171 A 
HETATM   22  N3  UNL     1      32.249   4.117  47.331  1.00  0.00    -0.198 NA
BRANCH  21  23
HETATM   23  O1  UNL     1      31.280   2.193  46.096  1.00  0.00    -0.344 OA
HETATM   24  H1  UNL     1      30.909   2.491  45.188  1.00  0.00     0.219 HD
ENDBRANCH  21  23
ENDBRANCH   1  18
TORSDOF 2
ENDMDL
MODEL 9
REMARK VINA RESULT:      -7.8      4.637      7.153
REMARK  2 active torsions:
REMARK  status: ('A' for Active; 'I' for Inactive)
REMARK    1  A    between atoms: O1_1  and  C1_2 
REMARK    2  A    between atoms: C3_5  and  N1_6 
ROOT
HETATM    1  N1  UNL     1      21.787   4.023  49.970  1.00  0.00    -0.237 N 
HETATM    2  N2  UNL     1      20.569   3.569  50.539  1.00  0.00    -0.179 NA
HETATM    3  C4  UNL     1      20.641   2.461  51.147  1.00  0.00     0.035 C 
HETATM    4  C5  UNL     1      20.078   1.074  51.439  1.00  0.00     0.057 C 
HETATM    5  C6  UNL     1      21.119   0.179  52.090  1.00  0.00    -0.014 C 
HETATM    6  C7  UNL     1      22.119  -0.563  52.683  1.00  0.00     0.043 C 
HETATM    7  C8  UNL     1      23.481  -0.155  53.132  1.00  0.00    -0.025 C 
HETATM    8  C9  UNL     1      24.499   0.696  53.357  1.00  0.00    -0.026 C 
HETATM    9  C10 UNL     1      24.385   2.128  53.050  1.00  0.00     0.066 C 
HETATM   10  C11 UNL     1      24.798   2.696  51.795  1.00  0.00    -0.046 A 
HETATM   11  C12 UNL     1      26.080   2.424  51.387  1.00  0.00     0.008 A 
HETATM   12  C13 UNL     1      26.685   2.902  50.244  1.00  0.00     0.001 A 
HETATM   13  C14 UNL     1      25.931   3.740  49.422  1.00  0.00     0.001 A 
HETATM   14  C15 UNL     1      24.628   4.027  49.817  1.00  0.00     0.010 A 
HETATM   15  C16 UNL     1      24.019   3.549  50.959  1.00  0.00    -0.026 A 
HETATM   16  C17 UNL     1      22.581   3.993  51.149  1.00  0.00     0.151 C 
HETATM   17  C18 UNL     1      21.901   2.866  51.830  1.00  0.00     0.088 C 
ENDROOT
BRANCH   1  18
HETATM   18  C3  UNL     1      21.872   4.377  48.493  1.00  0.00     0.192 A 
HETATM   19  S1  UNL     1      21.932   6.185  47.903  1.00  0.00    -0.058 SA
HETATM   20  C2  UNL     1      22.020   5.511  46.110  1.00  0.00     0.111 A 
HETATM   21  C1  UNL     1      21.990   4.187  46.278  1.00  0.00     0.171 A 
HETATM   22  N3  UNL     1      21.917   3.829  47.520  1.00  0.00    -0.198 NA
BRANCH  21  23
HETATM   23  O1  UNL     1      22.048   3.524  45.059  1.00  0.00    -0.344 OA
HETATM   24  H1  UNL     1      22.895   3.013  44.787  1.00  0.00     0.219 HD
ENDBRANCH  21  23
ENDBRANCH   1  18
TORSDOF 2
ENDMDL
