MODEL 1
REMARK VINA RESULT:      -8.0      0.000      0.000
REMARK  3 active torsions:
REMARK  status: ('A' for Active; 'I' for Inactive)
REMARK    1  A    between atoms: O1_2  and  C2_3 
REMARK    2  A    between atoms: C11_15  and  N4_16 
REMARK    3  A    between atoms: N4_16  and  C12_17 
ROOT
HETATM    1  C2  UNL     1      19.819   3.730  51.001  1.00  0.00     0.168 C 
HETATM    2  C3  UNL     1      21.008   3.130  50.953  1.00  0.00     0.109 C 
HETATM    3  N1  UNL     1      22.039   3.399  50.005  1.00  0.00    -0.242 NA
HETATM    4  C4  UNL     1      22.924   2.496  49.804  1.00  0.00     0.087 C 
HETATM    5  C5  UNL     1      23.507   1.893  50.825  1.00  0.00     0.050 C 
HETATM    6  C6  UNL     1      22.549   1.503  51.865  1.00  0.00     0.026 A 
HETATM    7  C7  UNL     1      21.290   2.096  51.965  1.00  0.00     0.099 A 
HETATM    8  N2  UNL     1      20.402   1.746  52.916  1.00  0.00    -0.256 NA
HETATM    9  C8  UNL     1      20.707   0.792  53.822  1.00  0.00     0.142 A 
HETATM   10  C9  UNL     1      21.944   0.169  53.771  1.00  0.00     0.089 A 
HETATM   11  C10 UNL     1      22.317  -0.860  54.720  1.00  0.00     0.103 C 
HETATM   12  N3  UNL     1      22.611  -1.682  55.494  1.00  0.00    -0.191 NA
HETATM   13  C11 UNL     1      22.881   0.516  52.792  1.00  0.00     0.068 A 
ENDROOT
BRANCH  13  14
HETATM   14  N4  UNL     1      24.170  -0.077  52.675  1.00  0.00    -0.354 N 
HETATM   15  H7  UNL     1      23.978  -0.947  52.161  1.00  0.00     0.166 HD
BRANCH  14  16
HETATM   16  C12 UNL     1      25.461   0.325  53.107  1.00  0.00     0.033 A 
HETATM   17  C13 UNL     1      25.588   1.607  53.592  1.00  0.00     0.029 A 
HETATM   18  C14 UNL     1      26.855   1.970  54.004  1.00  0.00     0.004 A 
HETATM   19  C15 UNL     1      27.945   1.130  53.948  1.00  0.00     0.019 A 
HETATM   20  C16 UNL     1      27.761  -0.153  53.449  1.00  0.00     0.013 A 
HETATM   21 BR1  UNL     1      29.287  -1.285  53.387  1.00  0.00    -0.051 Br
HETATM   22  C17 UNL     1      26.503  -0.575  53.019  1.00  0.00     0.048 A 
ENDBRANCH  14  16
ENDBRANCH  13  14
BRANCH   1  23
HETATM   23  O1  UNL     1      18.863   3.415  51.955  1.00  0.00    -0.365 OA
HETATM   24  C1  UNL     1      17.470   3.442  51.683  1.00  0.00     0.209 C 
ENDBRANCH   1  23
TORSDOF 3
ENDMDL
MODEL 2
REMARK VINA RESULT:      -7.8      3.699      5.734
REMARK  3 active torsions:
REMARK  status: ('A' for Active; 'I' for Inactive)
REMARK    1  A    between atoms: O1_2  and  C2_3 
REMARK    2  A    between atoms: C11_15  and  N4_16 
REMARK    3  A    between atoms: N4_16  and  C12_17 
ROOT
HETATM    1  C2  UNL     1      25.693   5.056  49.448  1.00  0.00     0.168 C 
HETATM    2  C3  UNL     1      24.904   4.596  50.419  1.00  0.00     0.109 C 
HETATM    3  N1  UNL     1      23.731   5.239  50.914  1.00  0.00    -0.242 NA
HETATM    4  C4  UNL     1      23.323   4.929  52.087  1.00  0.00     0.087 C 
HETATM    5  C5  UNL     1      23.232   3.661  52.449  1.00  0.00     0.050 C 
HETATM    6  C6  UNL     1      24.408   2.879  52.050  1.00  0.00     0.026 A 
HETATM    7  C7  UNL     1      25.269   3.311  51.041  1.00  0.00     0.099 A 
HETATM    8  N2  UNL     1      26.352   2.602  50.667  1.00  0.00    -0.256 NA
HETATM    9  C8  UNL     1      26.646   1.429  51.268  1.00  0.00     0.142 A 
HETATM   10  C9  UNL     1      25.825   0.951  52.277  1.00  0.00     0.089 A 
HETATM   11  C10 UNL     1      26.098  -0.302  52.952  1.00  0.00     0.103 C 
HETATM   12  N3  UNL     1      26.323  -1.316  53.483  1.00  0.00    -0.191 NA
HETATM   13  C11 UNL     1      24.695   1.671  52.682  1.00  0.00     0.068 A 
ENDROOT
BRANCH  13  14
HETATM   14  N4  UNL     1      23.805   1.247  53.709  1.00  0.00    -0.354 N 
HETATM   15  H7  UNL     1      24.152   1.749  54.538  1.00  0.00     0.166 HD
BRANCH  14  16
HETATM   16  C12 UNL     1      22.689   0.369  53.718  1.00  0.00     0.033 A 
HETATM   17  C13 UNL     1      22.767  -0.733  54.540  1.00  0.00     0.029 A 
HETATM   18  C14 UNL     1      21.668  -1.569  54.528  1.00  0.00     0.004 A 
HETATM   19  C15 UNL     1      20.549  -1.347  53.756  1.00  0.00     0.019 A 
HETATM   20  C16 UNL     1      20.524  -0.219  52.945  1.00  0.00     0.013 A 
HETATM   21 BR1  UNL     1      18.963   0.056  51.895  1.00  0.00    -0.051 Br
HETATM   22  C17 UNL     1      21.605   0.661  52.917  1.00  0.00     0.048 A 
ENDBRANCH  14  16
ENDBRANCH  13  14
BRANCH   1  23
HETATM   23  O1  UNL     1      26.821   4.374  49.019  1.00  0.00    -0.365 OA
HETATM   24  C1  UNL     1      27.977   5.036  48.526  1.00  0.00     0.209 C 
ENDBRANCH   1  23
TORSDOF 3
ENDMDL
MODEL 3
REMARK VINA RESULT:      -7.7      1.773      3.580
REMARK  3 active torsions:
REMARK  status: ('A' for Active; 'I' for Inactive)
REMARK    1  A    between atoms: O1_2  and  C2_3 
REMARK    2  A    between atoms: C11_15  and  N4_16 
REMARK    3  A    between atoms: N4_16  and  C12_17 
ROOT
HETATM    1  C2  UNL     1      20.233   1.854  53.077  1.00  0.00     0.168 C 
HETATM    2  C3  UNL     1      21.394   1.199  53.065  1.00  0.00     0.109 C 
HETATM    3  N1  UNL     1      21.650  -0.054  53.697  1.00  0.00    -0.242 NA
HETATM    4  C4  UNL     1      22.864  -0.355  53.968  1.00  0.00     0.087 C 
HETATM    5  C5  UNL     1      23.811  -0.196  53.060  1.00  0.00     0.050 C 
HETATM    6  C6  UNL     1      23.706   1.090  52.361  1.00  0.00     0.026 A 
HETATM    7  C7  UNL     1      22.517   1.819  52.339  1.00  0.00     0.099 A 
HETATM    8  N2  UNL     1      22.409   3.001  51.700  1.00  0.00    -0.256 NA
HETATM    9  C8  UNL     1      23.467   3.527  51.048  1.00  0.00     0.142 A 
HETATM   10  C9  UNL     1      24.673   2.846  51.036  1.00  0.00     0.089 A 
HETATM   11  C10 UNL     1      25.837   3.371  50.350  1.00  0.00     0.103 C 
HETATM   12  N3  UNL     1      26.766   3.798  49.788  1.00  0.00    -0.191 NA
HETATM   13  C11 UNL     1      24.809   1.618  51.693  1.00  0.00     0.068 A 
ENDROOT
BRANCH  13  14
HETATM   14  N4  UNL     1      26.013   0.859  51.726  1.00  0.00    -0.354 N 
HETATM   15  H7  UNL     1      25.886   0.190  50.954  1.00  0.00     0.166 HD
BRANCH  14  16
HETATM   16  C12 UNL     1      27.166   0.912  52.554  1.00  0.00     0.033 A 
HETATM   17  C13 UNL     1      27.487   2.133  53.102  1.00  0.00     0.029 A 
HETATM   18  C14 UNL     1      28.613   2.154  53.902  1.00  0.00     0.004 A 
HETATM   19  C15 UNL     1      29.389   1.044  54.154  1.00  0.00     0.019 A 
HETATM   20  C16 UNL     1      29.019  -0.163  53.574  1.00  0.00     0.013 A 
HETATM   21 BR1  UNL     1      30.113  -1.673  53.946  1.00  0.00    -0.051 Br
HETATM   22  C17 UNL     1      27.891  -0.244  52.759  1.00  0.00     0.048 A 
ENDBRANCH  14  16
ENDBRANCH  13  14
BRANCH   1  23
HETATM   23  O1  UNL     1      20.058   3.073  52.439  1.00  0.00    -0.365 OA
HETATM   24  C1  UNL     1      18.952   3.343  51.590  1.00  0.00     0.209 C 
ENDBRANCH   1  23
TORSDOF 3
ENDMDL
MODEL 4
REMARK VINA RESULT:      -7.7      1.878      2.039
REMARK  3 active torsions:
REMARK  status: ('A' for Active; 'I' for Inactive)
REMARK    1  A    between atoms: O1_2  and  C2_3 
REMARK    2  A    between atoms: C11_15  and  N4_16 
REMARK    3  A    between atoms: N4_16  and  C12_17 
ROOT
HETATM    1  C2  UNL     1      17.773   1.424  50.131  1.00  0.00     0.168 C 
HETATM    2  C3  UNL     1      19.100   1.295  50.147  1.00  0.00     0.109 C 
HETATM    3  N1  UNL     1      19.992   1.746  49.129  1.00  0.00    -0.242 NA
HETATM    4  C4  UNL     1      21.149   1.202  49.058  1.00  0.00     0.087 C 
HETATM    5  C5  UNL     1      21.879   1.041  50.148  1.00  0.00     0.050 C 
HETATM    6  C6  UNL     1      21.095   0.523  51.275  1.00  0.00     0.026 A 
HETATM    7  C7  UNL     1      19.705   0.629  51.314  1.00  0.00     0.099 A 
HETATM    8  N2  UNL     1      18.975   0.156  52.343  1.00  0.00    -0.256 NA
HETATM    9  C8  UNL     1      19.576  -0.447  53.391  1.00  0.00     0.142 A 
HETATM   10  C9  UNL     1      20.955  -0.580  53.406  1.00  0.00     0.089 A 
HETATM   11  C10 UNL     1      21.647  -1.220  54.508  1.00  0.00     0.103 C 
HETATM   12  N3  UNL     1      22.194  -1.730  55.403  1.00  0.00    -0.191 NA
HETATM   13  C11 UNL     1      21.733  -0.097  52.348  1.00  0.00     0.068 A 
ENDROOT
BRANCH  13  14
HETATM   14  N4  UNL     1      23.152  -0.196  52.291  1.00  0.00    -0.354 N 
HETATM   15  H7  UNL     1      23.302  -1.043  51.725  1.00  0.00     0.166 HD
BRANCH  14  16
HETATM   16  C12 UNL     1      24.199   0.600  52.827  1.00  0.00     0.033 A 
HETATM   17  C13 UNL     1      23.973   1.955  52.912  1.00  0.00     0.029 A 
HETATM   18  C14 UNL     1      25.008   2.703  53.437  1.00  0.00     0.004 A 
HETATM   19  C15 UNL     1      26.204   2.163  53.857  1.00  0.00     0.019 A 
HETATM   20  C16 UNL     1      26.378   0.788  53.748  1.00  0.00     0.013 A 
HETATM   21 BR1  UNL     1      28.039   0.077  54.339  1.00  0.00    -0.051 Br
HETATM   22  C17 UNL     1      25.366  -0.017  53.227  1.00  0.00     0.048 A 
ENDBRANCH  14  16
ENDBRANCH  13  14
BRANCH   1  23
HETATM   23  O1  UNL     1      16.967   0.959  51.160  1.00  0.00    -0.365 OA
HETATM   24  C1  UNL     1      15.747   1.588  51.522  1.00  0.00     0.209 C 
ENDBRANCH   1  23
TORSDOF 3
ENDMDL
MODEL 5
REMARK VINA RESULT:      -7.7      1.842      3.692
REMARK  3 active torsions:
REMARK  status: ('A' for Active; 'I' for Inactive)
REMARK    1  A    between atoms: O1_2  and  C2_3 
REMARK    2  A    between atoms: C11_15  and  N4_16 
REMARK    3  A    between atoms: N4_16  and  C12_17 
ROOT
HETATM    1  C2  UNL     1      19.386   0.161  51.996  1.00  0.00     0.168 C 
HETATM    2  C3  UNL     1      20.488  -0.108  52.697  1.00  0.00     0.109 C 
HETATM    3  N1  UNL     1      20.564  -0.972  53.830  1.00  0.00    -0.242 NA
HETATM    4  C4  UNL     1      21.541  -0.816  54.642  1.00  0.00     0.087 C 
HETATM    5  C5  UNL     1      22.775  -0.691  54.187  1.00  0.00     0.050 C 
HETATM    6  C6  UNL     1      22.859   0.223  53.042  1.00  0.00     0.026 A 
HETATM    7  C7  UNL     1      21.741   0.542  52.272  1.00  0.00     0.099 A 
HETATM    8  N2  UNL     1      21.806   1.380  51.219  1.00  0.00    -0.256 NA
HETATM    9  C8  UNL     1      22.979   1.950  50.868  1.00  0.00     0.142 A 
HETATM   10  C9  UNL     1      24.123   1.670  51.598  1.00  0.00     0.089 A 
HETATM   11  C10 UNL     1      25.404   2.258  51.261  1.00  0.00     0.103 C 
HETATM   12  N3  UNL     1      26.432   2.731  50.976  1.00  0.00    -0.191 NA
HETATM   13  C11 UNL     1      24.078   0.803  52.695  1.00  0.00     0.068 A 
ENDROOT
BRANCH  13  14
HETATM   14  N4  UNL     1      25.208   0.466  53.493  1.00  0.00    -0.354 N 
HETATM   15  H7  UNL     1      25.053   1.008  54.354  1.00  0.00     0.166 HD
BRANCH  14  16
HETATM   16  C12 UNL     1      26.326  -0.382  53.275  1.00  0.00     0.033 A 
HETATM   17  C13 UNL     1      26.075  -1.617  52.722  1.00  0.00     0.029 A 
HETATM   18  C14 UNL     1      27.181  -2.421  52.523  1.00  0.00     0.004 A 
HETATM   19  C15 UNL     1      28.466  -2.044  52.847  1.00  0.00     0.019 A 
HETATM   20  C16 UNL     1      28.661  -0.786  53.403  1.00  0.00     0.013 A 
HETATM   21 BR1  UNL     1      30.447  -0.299  53.835  1.00  0.00    -0.051 Br
HETATM   22  C17 UNL     1      27.582   0.069  53.626  1.00  0.00     0.048 A 
ENDBRANCH  14  16
ENDBRANCH  13  14
BRANCH   1  23
HETATM   23  O1  UNL     1      19.389   1.014  50.903  1.00  0.00    -0.365 OA
HETATM   24  C1  UNL     1      18.331   1.052  49.957  1.00  0.00     0.209 C 
ENDBRANCH   1  23
TORSDOF 3
ENDMDL
MODEL 6
REMARK VINA RESULT:      -7.7      3.758      6.422
REMARK  3 active torsions:
REMARK  status: ('A' for Active; 'I' for Inactive)
REMARK    1  A    between atoms: O1_2  and  C2_3 
REMARK    2  A    between atoms: C11_15  and  N4_16 
REMARK    3  A    between atoms: N4_16  and  C12_17 
ROOT
HETATM    1  C2  UNL     1      27.080   2.075  51.959  1.00  0.00     0.168 C 
HETATM    2  C3  UNL     1      25.773   2.340  51.951  1.00  0.00     0.109 C 
HETATM    3  N1  UNL     1      25.159   3.481  51.354  1.00  0.00    -0.242 NA
HETATM    4  C4  UNL     1      23.999   3.827  51.770  1.00  0.00     0.087 C 
HETATM    5  C5  UNL     1      23.045   2.925  51.915  1.00  0.00     0.050 C 
HETATM    6  C6  UNL     1      23.524   1.705  52.574  1.00  0.00     0.026 A 
HETATM    7  C7  UNL     1      24.879   1.375  52.615  1.00  0.00     0.099 A 
HETATM    8  N2  UNL     1      25.331   0.258  53.217  1.00  0.00    -0.256 NA
HETATM    9  C8  UNL     1      24.471  -0.596  53.813  1.00  0.00     0.142 A 
HETATM   10  C9  UNL     1      23.113  -0.319  53.803  1.00  0.00     0.089 A 
HETATM   11  C10 UNL     1      22.152  -1.205  54.428  1.00  0.00     0.103 C 
HETATM   12  N3  UNL     1      21.385  -1.929  54.928  1.00  0.00    -0.191 NA
HETATM   13  C11 UNL     1      22.622   0.835  53.184  1.00  0.00     0.068 A 
ENDROOT
BRANCH  13  14
HETATM   14  N4  UNL     1      21.244   1.188  53.132  1.00  0.00    -0.354 N 
HETATM   15  H7  UNL     1      21.153   1.877  53.890  1.00  0.00     0.166 HD
BRANCH  14  16
HETATM   16  C12 UNL     1      20.171   0.772  52.300  1.00  0.00     0.033 A 
HETATM   17  C13 UNL     1      20.192   1.199  50.992  1.00  0.00     0.029 A 
HETATM   18  C14 UNL     1      19.136   0.780  50.207  1.00  0.00     0.004 A 
HETATM   19  C15 UNL     1      18.109  -0.013  50.670  1.00  0.00     0.019 A 
HETATM   20  C16 UNL     1      18.138  -0.415  51.999  1.00  0.00     0.013 A 
HETATM   21 BR1  UNL     1      16.706  -1.510  52.603  1.00  0.00    -0.051 Br
HETATM   22  C17 UNL     1      19.180  -0.023  52.839  1.00  0.00     0.048 A 
ENDBRANCH  14  16
ENDBRANCH  13  14
BRANCH   1  23
HETATM   23  O1  UNL     1      27.606   0.943  52.562  1.00  0.00    -0.365 OA
HETATM   24  C1  UNL     1      28.679   0.997  53.491  1.00  0.00     0.209 C 
ENDBRANCH   1  23
TORSDOF 3
ENDMDL
MODEL 7
REMARK VINA RESULT:      -7.6      3.767      5.358
REMARK  3 active torsions:
REMARK  status: ('A' for Active; 'I' for Inactive)
REMARK    1  A    between atoms: O1_2  and  C2_3 
REMARK    2  A    between atoms: C11_15  and  N4_16 
REMARK    3  A    between atoms: N4_16  and  C12_17 
ROOT
HETATM    1  C2  UNL     1      20.964   0.336  52.824  1.00  0.00     0.168 C 
HETATM    2  C3  UNL     1      21.634   0.952  51.849  1.00  0.00     0.109 C 
HETATM    3  N1  UNL     1      21.090   1.363  50.596  1.00  0.00    -0.242 NA
HETATM    4  C4  UNL     1      21.897   1.543  49.619  1.00  0.00     0.087 C 
HETATM    5  C5  UNL     1      23.008   2.239  49.789  1.00  0.00     0.050 C 
HETATM    6  C6  UNL     1      23.712   1.877  51.025  1.00  0.00     0.026 A 
HETATM    7  C7  UNL     1      23.063   1.233  52.078  1.00  0.00     0.099 A 
HETATM    8  N2  UNL     1      23.699   0.896  53.217  1.00  0.00    -0.256 NA
HETATM    9  C8  UNL     1      25.010   1.176  53.380  1.00  0.00     0.142 A 
HETATM   10  C9  UNL     1      25.705   1.815  52.366  1.00  0.00     0.089 A 
HETATM   11  C10 UNL     1      27.112   2.136  52.493  1.00  0.00     0.103 C 
HETATM   12  N3  UNL     1      28.244   2.397  52.609  1.00  0.00    -0.191 NA
HETATM   13  C11 UNL     1      25.065   2.174  51.175  1.00  0.00     0.068 A 
ENDROOT
BRANCH  13  14
HETATM   14  N4  UNL     1      25.710   2.832  50.089  1.00  0.00    -0.354 N 
HETATM   15  H7  UNL     1      26.027   2.050  49.500  1.00  0.00     0.166 HD
BRANCH  14  16
HETATM   16  C12 UNL     1      25.926   4.201  49.780  1.00  0.00     0.033 A 
HETATM   17  C13 UNL     1      27.013   4.500  48.991  1.00  0.00     0.029 A 
HETATM   18  C14 UNL     1      27.198   5.839  48.707  1.00  0.00     0.004 A 
HETATM   19  C15 UNL     1      26.369   6.838  49.168  1.00  0.00     0.019 A 
HETATM   20  C16 UNL     1      25.286   6.479  49.962  1.00  0.00     0.013 A 
HETATM   21 BR1  UNL     1      24.163   7.884  50.578  1.00  0.00    -0.051 Br
HETATM   22  C17 UNL     1      25.049   5.142  50.280  1.00  0.00     0.048 A 
ENDBRANCH  14  16
ENDBRANCH  13  14
BRANCH   1  23
HETATM   23  O1  UNL     1      21.562  -0.036  54.018  1.00  0.00    -0.365 OA
HETATM   24  C1  UNL     1      21.498  -1.360  54.528  1.00  0.00     0.209 C 
ENDBRANCH   1  23
TORSDOF 3
ENDMDL
MODEL 8
REMARK VINA RESULT:      -7.5      2.193      2.646
REMARK  3 active torsions:
REMARK  status: ('A' for Active; 'I' for Inactive)
REMARK    1  A    between atoms: O1_2  and  C2_3 
REMARK    2  A    between atoms: C11_15  and  N4_16 
REMARK    3  A    between atoms: N4_16  and  C12_17 
ROOT
HETATM    1  C2  UNL     1      22.134   3.278  47.902  1.00  0.00     0.168 C 
HETATM    2  C3  UNL     1      22.980   3.171  48.927  1.00  0.00     0.109 C 
HETATM    3  N1  UNL     1      24.164   3.945  49.113  1.00  0.00    -0.242 NA
HETATM    4  C4  UNL     1      25.079   3.473  49.873  1.00  0.00     0.087 C 
HETATM    5  C5  UNL     1      24.772   2.973  51.058  1.00  0.00     0.050 C 
HETATM    6  C6  UNL     1      23.593   2.100  51.008  1.00  0.00     0.026 A 
HETATM    7  C7  UNL     1      22.673   2.167  49.961  1.00  0.00     0.099 A 
HETATM    8  N2  UNL     1      21.588   1.371  49.904  1.00  0.00    -0.256 NA
HETATM    9  C8  UNL     1      21.349   0.466  50.877  1.00  0.00     0.142 A 
HETATM   10  C9  UNL     1      22.229   0.356  51.942  1.00  0.00     0.089 A 
HETATM   11  C10 UNL     1      22.017  -0.601  53.010  1.00  0.00     0.103 C 
HETATM   12  N3  UNL     1      21.832  -1.369  53.869  1.00  0.00    -0.191 NA
HETATM   13  C11 UNL     1      23.363   1.171  52.021  1.00  0.00     0.068 A 
ENDROOT
BRANCH  13  14
HETATM   14  N4  UNL     1      24.312   1.118  53.080  1.00  0.00    -0.354 N 
HETATM   15  H7  UNL     1      23.837   1.621  53.843  1.00  0.00     0.166 HD
BRANCH  14  16
HETATM   16  C12 UNL     1      25.610   0.551  53.188  1.00  0.00     0.033 A 
HETATM   17  C13 UNL     1      25.753  -0.761  52.797  1.00  0.00     0.029 A 
HETATM   18  C14 UNL     1      27.025  -1.286  52.914  1.00  0.00     0.004 A 
HETATM   19  C15 UNL     1      28.104  -0.572  53.388  1.00  0.00     0.019 A 
HETATM   20  C16 UNL     1      27.902   0.749  53.769  1.00  0.00     0.013 A 
HETATM   21 BR1  UNL     1      29.414   1.702  54.418  1.00  0.00    -0.051 Br
HETATM   22  C17 UNL     1      26.639   1.332  53.673  1.00  0.00     0.048 A 
ENDBRANCH  14  16
ENDBRANCH  13  14
BRANCH   1  23
HETATM   23  O1  UNL     1      21.000   2.488  47.787  1.00  0.00    -0.365 OA
HETATM   24  C1  UNL     1      19.743   3.006  47.378  1.00  0.00     0.209 C 
ENDBRANCH   1  23
TORSDOF 3
ENDMDL
MODEL 9
REMARK VINA RESULT:      -7.4      3.811      6.163
REMARK  3 active torsions:
REMARK  status: ('A' for Active; 'I' for Inactive)
REMARK    1  A    between atoms: O1_2  and  C2_3 
REMARK    2  A    between atoms: C11_15  and  N4_16 
REMARK    3  A    between atoms: N4_16  and  C12_17 
ROOT
HETATM    1  C2  UNL     1      24.995  -0.508  54.174  1.00  0.00     0.168 C 
HETATM    2  C3  UNL     1      25.548   0.345  53.311  1.00  0.00     0.109 C 
HETATM    3  N1  UNL     1      26.932   0.686  53.248  1.00  0.00    -0.242 NA
HETATM    4  C4  UNL     1      27.255   1.790  52.689  1.00  0.00     0.087 C 
HETATM    5  C5  UNL     1      26.737   2.124  51.520  1.00  0.00     0.050 C 
HETATM    6  C6  UNL     1      25.292   1.879  51.458  1.00  0.00     0.026 A 
HETATM    7  C7  UNL     1      24.658   0.998  52.334  1.00  0.00     0.099 A 
HETATM    8  N2  UNL     1      23.332   0.764  52.287  1.00  0.00    -0.256 NA
HETATM    9  C8  UNL     1      22.558   1.387  51.373  1.00  0.00     0.142 A 
HETATM   10  C9  UNL     1      23.134   2.273  50.477  1.00  0.00     0.089 A 
HETATM   11  C10 UNL     1      22.345   2.966  49.478  1.00  0.00     0.103 C 
HETATM   12  N3  UNL     1      21.702   3.512  48.672  1.00  0.00    -0.191 NA
HETATM   13  C11 UNL     1      24.509   2.531  50.508  1.00  0.00     0.068 A 
ENDROOT
BRANCH  13  14
HETATM   14  N4  UNL     1      25.173   3.426  49.622  1.00  0.00    -0.354 N 
HETATM   15  H7  UNL     1      25.424   2.821  48.828  1.00  0.00     0.166 HD
BRANCH  14  16
HETATM   16  C12 UNL     1      25.474   4.812  49.695  1.00  0.00     0.033 A 
HETATM   17  C13 UNL     1      24.742   5.565  50.584  1.00  0.00     0.029 A 
HETATM   18  C14 UNL     1      25.056   6.909  50.633  1.00  0.00     0.004 A 
HETATM   19  C15 UNL     1      26.033   7.492  49.856  1.00  0.00     0.019 A 
HETATM   20  C16 UNL     1      26.741   6.685  48.975  1.00  0.00     0.013 A 
HETATM   21 BR1  UNL     1      28.082   7.524  47.920  1.00  0.00    -0.051 Br
HETATM   22  C17 UNL     1      26.468   5.320  48.884  1.00  0.00     0.048 A 
ENDBRANCH  14  16
ENDBRANCH  13  14
BRANCH   1  23
HETATM   23  O1  UNL     1      23.638  -0.790  54.176  1.00  0.00    -0.365 OA
HETATM   24  C1  UNL     1      22.954  -1.266  55.327  1.00  0.00     0.209 C 
ENDBRANCH   1  23
TORSDOF 3
ENDMDL
