MODEL 1
REMARK VINA RESULT:      -8.1      0.000      0.000
REMARK  4 active torsions:
REMARK  status: ('A' for Active; 'I' for Inactive)
REMARK    1  A    between atoms: O1_2  and  C2_3 
REMARK    2  A    between atoms: C7_8  and  O2_9 
REMARK    3  A    between atoms: C11_16  and  N2_17 
REMARK    4  A    between atoms: N2_17  and  C12_18 
ROOT
HETATM    1  C2  UNL     1      18.614  -0.862  53.028  1.00  0.00     0.102 A 
HETATM    2  C3  UNL     1      19.891  -0.806  53.496  1.00  0.00     0.051 A 
HETATM    3  C4  UNL     1      20.876   0.032  53.011  1.00  0.00    -0.004 A 
HETATM    4  C5  UNL     1      20.456   0.839  51.976  1.00  0.00     0.087 A 
HETATM    5  C6  UNL     1      19.188   0.849  51.439  1.00  0.00     0.077 A 
HETATM    6  C7  UNL     1      18.245  -0.019  51.973  1.00  0.00     0.104 A 
HETATM    7  O3  UNL     1      21.253   1.783  51.297  1.00  0.00    -0.306 OA
HETATM    8  C9  UNL     1      22.636   1.943  51.407  1.00  0.00     0.119 A 
HETATM    9  P1  UNL     1      23.310   2.821  50.044  1.00  0.00     0.027 P 
HETATM   10  C10 UNL     1      25.040   2.991  50.234  1.00  0.00     0.137 A 
HETATM   11  N1  UNL     1      25.498   2.439  51.338  1.00  0.00    -0.239 NA
HETATM   12  C11 UNL     1      24.894   1.794  52.308  1.00  0.00     0.157 A 
HETATM   13  C17 UNL     1      23.550   1.533  52.392  1.00  0.00     0.110 A 
HETATM   14  N3  UNL     1      23.133   0.819  53.578  1.00  0.00    -0.380 N 
HETATM   15  C18 UNL     1      22.125  -0.181  53.754  1.00  0.00     0.161 C 
HETATM   16  H14 UNL     1      23.721   1.157  54.405  1.00  0.00     0.160 HD
ENDROOT
BRANCH  12  17
HETATM   17  N2  UNL     1      25.740   1.312  53.372  1.00  0.00    -0.341 N 
HETATM   18  H10 UNL     1      25.908   1.661  54.333  1.00  0.00     0.167 HD
BRANCH  17  19
HETATM   19  C12 UNL     1      26.537   0.121  53.172  1.00  0.00     0.036 A 
HETATM   20  C13 UNL     1      26.150  -1.083  52.817  1.00  0.00     0.030 A 
HETATM   21  C14 UNL     1      27.220  -2.048  52.711  1.00  0.00     0.042 A 
HETATM   22  C15 UNL     1      28.316  -1.394  53.018  1.00  0.00     0.118 A 
HETATM   23  F1  UNL     1      29.586  -1.884  53.058  1.00  0.00    -0.209 F 
HETATM   24  C16 UNL     1      28.013   0.035  53.331  1.00  0.00     0.194 A 
HETATM   25 CL1  UNL     1      28.563   0.407  54.967  1.00  0.00    -0.111 Cl
ENDBRANCH  17  19
ENDBRANCH  12  17
BRANCH   6  26
HETATM   26  O2  UNL     1      16.963  -0.016  51.439  1.00  0.00    -0.353 OA
HETATM   27  C8  UNL     1      16.812   0.435  50.107  1.00  0.00     0.210 C 
ENDBRANCH   6  26
BRANCH   1  28
HETATM   28  O1  UNL     1      17.589  -1.666  53.461  1.00  0.00    -0.353 OA
HETATM   29  C1  UNL     1      17.716  -3.059  53.642  1.00  0.00     0.210 C 
ENDBRANCH   1  28
TORSDOF 4
ENDMDL
MODEL 2
REMARK VINA RESULT:      -8.1      4.829      7.400
REMARK  4 active torsions:
REMARK  status: ('A' for Active; 'I' for Inactive)
REMARK    1  A    between atoms: O1_2  and  C2_3 
REMARK    2  A    between atoms: C7_8  and  O2_9 
REMARK    3  A    between atoms: C11_16  and  N2_17 
REMARK    4  A    between atoms: N2_17  and  C12_18 
ROOT
HETATM    1  C2  UNL     1      25.930  -0.159  53.003  1.00  0.00     0.102 A 
HETATM    2  C3  UNL     1      26.455   0.781  52.170  1.00  0.00     0.051 A 
HETATM    3  C4  UNL     1      25.789   1.907  51.725  1.00  0.00    -0.004 A 
HETATM    4  C5  UNL     1      24.501   2.013  52.204  1.00  0.00     0.087 A 
HETATM    5  C6  UNL     1      23.889   1.113  53.047  1.00  0.00     0.077 A 
HETATM    6  C7  UNL     1      24.615   0.002  53.457  1.00  0.00     0.104 A 
HETATM    7  O3  UNL     1      23.601   3.058  51.909  1.00  0.00    -0.306 OA
HETATM    8  C9  UNL     1      23.766   4.056  50.948  1.00  0.00     0.119 A 
HETATM    9  P1  UNL     1      22.242   4.816  50.517  1.00  0.00     0.027 P 
HETATM   10  C10 UNL     1      22.508   6.056  49.313  1.00  0.00     0.137 A 
HETATM   11  N1  UNL     1      23.771   6.180  48.965  1.00  0.00    -0.239 NA
HETATM   12  C11 UNL     1      24.852   5.548  49.358  1.00  0.00     0.157 A 
HETATM   13  C17 UNL     1      24.907   4.541  50.288  1.00  0.00     0.110 A 
HETATM   14  N3  UNL     1      26.230   4.023  50.558  1.00  0.00    -0.380 N 
HETATM   15  C18 UNL     1      26.665   2.690  50.842  1.00  0.00     0.161 C 
HETATM   16  H14 UNL     1      26.928   4.832  50.522  1.00  0.00     0.160 HD
ENDROOT
BRANCH  12  17
HETATM   17  N2  UNL     1      26.087   5.955  48.733  1.00  0.00    -0.341 N 
HETATM   18  H10 UNL     1      26.658   5.521  47.986  1.00  0.00     0.167 HD
BRANCH  17  19
HETATM   19  C12 UNL     1      26.726   7.187  49.141  1.00  0.00     0.036 A 
HETATM   20  C13 UNL     1      26.375   8.027  50.087  1.00  0.00     0.030 A 
HETATM   21  C14 UNL     1      27.247   9.171  50.226  1.00  0.00     0.042 A 
HETATM   22  C15 UNL     1      28.179   9.015  49.314  1.00  0.00     0.118 A 
HETATM   23  F1  UNL     1      29.230   9.844  49.058  1.00  0.00    -0.209 F 
HETATM   24  C16 UNL     1      27.962   7.755  48.542  1.00  0.00     0.194 A 
HETATM   25 CL1  UNL     1      27.796   8.140  46.826  1.00  0.00    -0.111 Cl
ENDBRANCH  17  19
ENDBRANCH  12  17
BRANCH   6  26
HETATM   26  O2  UNL     1      24.007  -0.911  54.308  1.00  0.00    -0.353 OA
HETATM   27  C8  UNL     1      22.594  -0.906  54.368  1.00  0.00     0.210 C 
ENDBRANCH   6  26
BRANCH   1  28
HETATM   28  O1  UNL     1      26.532  -1.295  53.483  1.00  0.00    -0.353 OA
HETATM   29  C1  UNL     1      27.163  -2.249  52.658  1.00  0.00     0.210 C 
ENDBRANCH   1  28
TORSDOF 4
ENDMDL
MODEL 3
REMARK VINA RESULT:      -7.9      4.558      8.511
REMARK  4 active torsions:
REMARK  status: ('A' for Active; 'I' for Inactive)
REMARK    1  A    between atoms: O1_2  and  C2_3 
REMARK    2  A    between atoms: C7_8  and  O2_9 
REMARK    3  A    between atoms: C11_16  and  N2_17 
REMARK    4  A    between atoms: N2_17  and  C12_18 
ROOT
HETATM    1  C2  UNL     1      28.527   6.182  48.303  1.00  0.00     0.102 A 
HETATM    2  C3  UNL     1      27.938   4.996  48.621  1.00  0.00     0.051 A 
HETATM    3  C4  UNL     1      26.652   4.855  49.104  1.00  0.00    -0.004 A 
HETATM    4  C5  UNL     1      25.980   6.049  49.248  1.00  0.00     0.087 A 
HETATM    5  C6  UNL     1      26.495   7.293  48.952  1.00  0.00     0.077 A 
HETATM    6  C7  UNL     1      27.796   7.364  48.469  1.00  0.00     0.104 A 
HETATM    7  O3  UNL     1      24.660   6.196  49.720  1.00  0.00    -0.306 OA
HETATM    8  C9  UNL     1      23.867   5.206  50.303  1.00  0.00     0.119 A 
HETATM    9  P1  UNL     1      22.536   5.885  51.228  1.00  0.00     0.027 P 
HETATM   10  C10 UNL     1      21.579   4.603  51.933  1.00  0.00     0.137 A 
HETATM   11  N1  UNL     1      22.028   3.400  51.644  1.00  0.00    -0.239 NA
HETATM   12  C11 UNL     1      23.052   2.998  50.929  1.00  0.00     0.157 A 
HETATM   13  C17 UNL     1      23.949   3.804  50.276  1.00  0.00     0.110 A 
HETATM   14  N3  UNL     1      24.980   3.109  49.538  1.00  0.00    -0.380 N 
HETATM   15  C18 UNL     1      26.359   3.434  49.337  1.00  0.00     0.161 C 
HETATM   16  H14 UNL     1      24.556   2.227  49.107  1.00  0.00     0.160 HD
ENDROOT
BRANCH  12  17
HETATM   17  N2  UNL     1      23.244   1.571  50.843  1.00  0.00    -0.341 N 
HETATM   18  H10 UNL     1      23.227   0.919  50.037  1.00  0.00     0.167 HD
BRANCH  17  19
HETATM   19  C12 UNL     1      23.529   0.811  52.041  1.00  0.00     0.036 A 
HETATM   20  C13 UNL     1      22.716   0.085  52.773  1.00  0.00     0.030 A 
HETATM   21  C14 UNL     1      23.339  -0.544  53.914  1.00  0.00     0.042 A 
HETATM   22  C15 UNL     1      24.600  -0.181  53.872  1.00  0.00     0.118 A 
HETATM   23  F1  UNL     1      25.589  -0.526  54.743  1.00  0.00    -0.209 F 
HETATM   24  C16 UNL     1      24.861   0.698  52.692  1.00  0.00     0.194 A 
HETATM   25 CL1  UNL     1      25.503   2.247  53.245  1.00  0.00    -0.111 Cl
ENDBRANCH  17  19
ENDBRANCH  12  17
BRANCH   6  26
HETATM   26  O2  UNL     1      28.323   8.612  48.168  1.00  0.00    -0.353 OA
HETATM   27  C8  UNL     1      28.720   9.432  49.250  1.00  0.00     0.210 C 
ENDBRANCH   6  26
BRANCH   1  28
HETATM   28  O1  UNL     1      29.794   6.394  47.819  1.00  0.00    -0.353 OA
HETATM   29  C1  UNL     1      30.964   6.034  48.519  1.00  0.00     0.210 C 
ENDBRANCH   1  28
TORSDOF 4
ENDMDL
MODEL 4
REMARK VINA RESULT:      -7.7      4.541      6.120
REMARK  4 active torsions:
REMARK  status: ('A' for Active; 'I' for Inactive)
REMARK    1  A    between atoms: O1_2  and  C2_3 
REMARK    2  A    between atoms: C7_8  and  O2_9 
REMARK    3  A    between atoms: C11_16  and  N2_17 
REMARK    4  A    between atoms: N2_17  and  C12_18 
ROOT
HETATM    1  C2  UNL     1      22.218   0.415  53.080  1.00  0.00     0.102 A 
HETATM    2  C3  UNL     1      23.170   1.369  52.880  1.00  0.00     0.051 A 
HETATM    3  C4  UNL     1      22.923   2.655  52.444  1.00  0.00    -0.004 A 
HETATM    4  C5  UNL     1      21.589   2.915  52.214  1.00  0.00     0.087 A 
HETATM    5  C6  UNL     1      20.561   2.015  52.387  1.00  0.00     0.077 A 
HETATM    6  C7  UNL     1      20.879   0.737  52.829  1.00  0.00     0.104 A 
HETATM    7  O3  UNL     1      21.059   4.142  51.763  1.00  0.00    -0.306 OA
HETATM    8  C9  UNL     1      21.779   5.239  51.290  1.00  0.00     0.119 A 
HETATM    9  P1  UNL     1      20.777   6.328  50.342  1.00  0.00     0.027 P 
HETATM   10  C10 UNL     1      21.728   7.681  49.776  1.00  0.00     0.137 A 
HETATM   11  N1  UNL     1      22.987   7.627  50.157  1.00  0.00    -0.239 NA
HETATM   12  C11 UNL     1      23.644   6.750  50.878  1.00  0.00     0.157 A 
HETATM   13  C17 UNL     1      23.126   5.610  51.436  1.00  0.00     0.110 A 
HETATM   14  N3  UNL     1      24.061   4.819  52.206  1.00  0.00    -0.380 N 
HETATM   15  C18 UNL     1      24.185   3.400  52.342  1.00  0.00     0.161 C 
HETATM   16  H14 UNL     1      24.723   5.480  52.722  1.00  0.00     0.160 HD
ENDROOT
BRANCH  12  17
HETATM   17  N2  UNL     1      25.046   7.022  51.083  1.00  0.00    -0.341 N 
HETATM   18  H10 UNL     1      25.596   7.203  51.943  1.00  0.00     0.167 HD
BRANCH  17  19
HETATM   19  C12 UNL     1      25.944   7.059  49.949  1.00  0.00     0.036 A 
HETATM   20  C13 UNL     1      26.454   6.062  49.265  1.00  0.00     0.030 A 
HETATM   21  C14 UNL     1      27.324   6.461  48.183  1.00  0.00     0.042 A 
HETATM   22  C15 UNL     1      27.342   7.774  48.212  1.00  0.00     0.118 A 
HETATM   23  F1  UNL     1      28.027   8.609  47.381  1.00  0.00    -0.209 F 
HETATM   24  C16 UNL     1      26.475   8.293  49.311  1.00  0.00     0.194 A 
HETATM   25 CL1  UNL     1      27.446   9.284  50.405  1.00  0.00    -0.111 Cl
ENDBRANCH  17  19
ENDBRANCH  12  17
BRANCH   6  26
HETATM   26  O2  UNL     1      19.850  -0.178  53.007  1.00  0.00    -0.353 OA
HETATM   27  C8  UNL     1      18.819  -0.198  52.040  1.00  0.00     0.210 C 
ENDBRANCH   6  26
BRANCH   1  28
HETATM   28  O1  UNL     1      22.392  -0.876  53.511  1.00  0.00    -0.353 OA
HETATM   29  C1  UNL     1      22.383  -1.250  54.871  1.00  0.00     0.210 C 
ENDBRANCH   1  28
TORSDOF 4
ENDMDL
MODEL 5
REMARK VINA RESULT:      -7.5      5.231      7.790
REMARK  4 active torsions:
REMARK  status: ('A' for Active; 'I' for Inactive)
REMARK    1  A    between atoms: O1_2  and  C2_3 
REMARK    2  A    between atoms: C7_8  and  O2_9 
REMARK    3  A    between atoms: C11_16  and  N2_17 
REMARK    4  A    between atoms: N2_17  and  C12_18 
ROOT
HETATM    1  C2  UNL     1      25.562  -0.317  53.817  1.00  0.00     0.102 A 
HETATM    2  C3  UNL     1      24.582   0.446  53.259  1.00  0.00     0.051 A 
HETATM    3  C4  UNL     1      24.775   1.363  52.244  1.00  0.00    -0.004 A 
HETATM    4  C5  UNL     1      26.084   1.456  51.822  1.00  0.00     0.087 A 
HETATM    5  C6  UNL     1      27.137   0.726  52.328  1.00  0.00     0.077 A 
HETATM    6  C7  UNL     1      26.874  -0.180  53.348  1.00  0.00     0.104 A 
HETATM    7  O3  UNL     1      26.559   2.310  50.806  1.00  0.00    -0.306 OA
HETATM    8  C9  UNL     1      25.852   3.339  50.182  1.00  0.00     0.119 A 
HETATM    9  P1  UNL     1      26.920   4.488  49.391  1.00  0.00     0.027 P 
HETATM   10  C10 UNL     1      25.984   5.753  48.628  1.00  0.00     0.137 A 
HETATM   11  N1  UNL     1      24.686   5.607  48.790  1.00  0.00    -0.239 NA
HETATM   12  C11 UNL     1      23.980   4.693  49.412  1.00  0.00     0.157 A 
HETATM   13  C17 UNL     1      24.477   3.605  50.082  1.00  0.00     0.110 A 
HETATM   14  N3  UNL     1      23.482   2.734  50.668  1.00  0.00    -0.380 N 
HETATM   15  C18 UNL     1      23.497   2.000  51.896  1.00  0.00     0.161 C 
HETATM   16  H14 UNL     1      22.639   2.688  50.012  1.00  0.00     0.160 HD
ENDROOT
BRANCH  12  17
HETATM   17  N2  UNL     1      22.549   4.872  49.388  1.00  0.00    -0.341 N 
HETATM   18  H10 UNL     1      21.869   5.100  50.136  1.00  0.00     0.167 HD
BRANCH  17  19
HETATM   19  C12 UNL     1      21.829   4.744  48.139  1.00  0.00     0.036 A 
HETATM   20  C13 UNL     1      20.729   5.348  47.753  1.00  0.00     0.030 A 
HETATM   21  C14 UNL     1      20.279   4.982  46.430  1.00  0.00     0.042 A 
HETATM   22  C15 UNL     1      21.154   4.108  45.989  1.00  0.00     0.118 A 
HETATM   23  F1  UNL     1      21.153   3.474  44.783  1.00  0.00    -0.209 F 
HETATM   24  C16 UNL     1      22.225   3.870  47.003  1.00  0.00     0.194 A 
HETATM   25 CL1  UNL     1      22.265   2.155  47.422  1.00  0.00    -0.111 Cl
ENDBRANCH  17  19
ENDBRANCH  12  17
BRANCH   6  26
HETATM   26  O2  UNL     1      27.929  -0.921  53.865  1.00  0.00    -0.353 OA
HETATM   27  C8  UNL     1      29.201  -0.304  53.905  1.00  0.00     0.210 C 
ENDBRANCH   6  26
BRANCH   1  28
HETATM   28  O1  UNL     1      25.442  -1.244  54.823  1.00  0.00    -0.353 OA
HETATM   29  C1  UNL     1      24.328  -1.319  55.683  1.00  0.00     0.210 C 
ENDBRANCH   1  28
TORSDOF 4
ENDMDL
MODEL 6
REMARK VINA RESULT:      -7.4      4.398      6.574
REMARK  4 active torsions:
REMARK  status: ('A' for Active; 'I' for Inactive)
REMARK    1  A    between atoms: O1_2  and  C2_3 
REMARK    2  A    between atoms: C7_8  and  O2_9 
REMARK    3  A    between atoms: C11_16  and  N2_17 
REMARK    4  A    between atoms: N2_17  and  C12_18 
ROOT
HETATM    1  C2  UNL     1      23.811   0.299  53.273  1.00  0.00     0.102 A 
HETATM    2  C3  UNL     1      24.320   1.548  53.086  1.00  0.00     0.051 A 
HETATM    3  C4  UNL     1      23.604   2.632  52.616  1.00  0.00    -0.004 A 
HETATM    4  C5  UNL     1      22.285   2.346  52.337  1.00  0.00     0.087 A 
HETATM    5  C6  UNL     1      21.687   1.115  52.495  1.00  0.00     0.077 A 
HETATM    6  C7  UNL     1      22.464   0.067  52.972  1.00  0.00     0.104 A 
HETATM    7  O3  UNL     1      21.334   3.263  51.846  1.00  0.00    -0.306 OA
HETATM    8  C9  UNL     1      21.583   4.552  51.374  1.00  0.00     0.119 A 
HETATM    9  P1  UNL     1      20.271   5.155  50.372  1.00  0.00     0.027 P 
HETATM   10  C10 UNL     1      20.636   6.769  49.811  1.00  0.00     0.137 A 
HETATM   11  N1  UNL     1      21.799   7.216  50.234  1.00  0.00    -0.239 NA
HETATM   12  C11 UNL     1      22.720   6.672  50.994  1.00  0.00     0.157 A 
HETATM   13  C17 UNL     1      22.670   5.423  51.557  1.00  0.00     0.110 A 
HETATM   14  N3  UNL     1      23.810   5.067  52.373  1.00  0.00    -0.380 N 
HETATM   15  C18 UNL     1      24.476   3.812  52.542  1.00  0.00     0.161 C 
HETATM   16  H14 UNL     1      24.139   5.938  52.898  1.00  0.00     0.160 HD
ENDROOT
BRANCH  12  17
HETATM   17  N2  UNL     1      23.894   7.474  51.239  1.00  0.00    -0.341 N 
HETATM   18  H10 UNL     1      24.226   7.970  52.086  1.00  0.00     0.167 HD
BRANCH  17  19
HETATM   19  C12 UNL     1      24.859   7.678  50.181  1.00  0.00     0.036 A 
HETATM   20  C13 UNL     1      25.077   8.751  49.456  1.00  0.00     0.030 A 
HETATM   21  C14 UNL     1      26.128   8.606  48.474  1.00  0.00     0.042 A 
HETATM   22  C15 UNL     1      26.571   7.378  48.612  1.00  0.00     0.118 A 
HETATM   23  F1  UNL     1      27.566   6.776  47.902  1.00  0.00    -0.209 F 
HETATM   24  C16 UNL     1      25.835   6.665  49.698  1.00  0.00     0.194 A 
HETATM   25 CL1  UNL     1      25.072   5.217  49.037  1.00  0.00    -0.111 Cl
ENDBRANCH  17  19
ENDBRANCH  12  17
BRANCH   6  26
HETATM   26  O2  UNL     1      21.870  -1.178  53.135  1.00  0.00    -0.353 OA
HETATM   27  C8  UNL     1      21.079  -1.378  54.290  1.00  0.00     0.210 C 
ENDBRANCH   6  26
BRANCH   1  28
HETATM   28  O1  UNL     1      24.461  -0.819  53.736  1.00  0.00    -0.353 OA
HETATM   29  C1  UNL     1      25.804  -0.814  54.167  1.00  0.00     0.210 C 
ENDBRANCH   1  28
TORSDOF 4
ENDMDL
MODEL 7
REMARK VINA RESULT:      -7.3      5.867      9.864
REMARK  4 active torsions:
REMARK  status: ('A' for Active; 'I' for Inactive)
REMARK    1  A    between atoms: O1_2  and  C2_3 
REMARK    2  A    between atoms: C7_8  and  O2_9 
REMARK    3  A    between atoms: C11_16  and  N2_17 
REMARK    4  A    between atoms: N2_17  and  C12_18 
ROOT
HETATM    1  C2  UNL     1      29.941   7.503  47.432  1.00  0.00     0.102 A 
HETATM    2  C3  UNL     1      29.385   6.319  47.811  1.00  0.00     0.051 A 
HETATM    3  C4  UNL     1      28.144   6.180  48.401  1.00  0.00    -0.004 A 
HETATM    4  C5  UNL     1      27.482   7.374  48.587  1.00  0.00     0.087 A 
HETATM    5  C6  UNL     1      27.965   8.615  48.236  1.00  0.00     0.077 A 
HETATM    6  C7  UNL     1      29.222   8.685  47.647  1.00  0.00     0.104 A 
HETATM    7  O3  UNL     1      26.205   7.521  49.166  1.00  0.00    -0.306 OA
HETATM    8  C9  UNL     1      25.467   6.536  49.822  1.00  0.00     0.119 A 
HETATM    9  P1  UNL     1      24.215   7.221  50.848  1.00  0.00     0.027 P 
HETATM   10  C10 UNL     1      23.324   5.944  51.643  1.00  0.00     0.137 A 
HETATM   11  N1  UNL     1      23.752   4.739  51.330  1.00  0.00    -0.239 NA
HETATM   12  C11 UNL     1      24.714   4.333  50.537  1.00  0.00     0.157 A 
HETATM   13  C17 UNL     1      25.551   5.134  49.803  1.00  0.00     0.110 A 
HETATM   14  N3  UNL     1      26.520   4.434  48.990  1.00  0.00    -0.380 N 
HETATM   15  C18 UNL     1      27.876   4.761  48.672  1.00  0.00     0.161 C 
HETATM   16  H14 UNL     1      26.065   3.546  48.604  1.00  0.00     0.160 HD
ENDROOT
BRANCH  12  17
HETATM   17  N2  UNL     1      24.903   2.905  50.450  1.00  0.00    -0.341 N 
HETATM   18  H10 UNL     1      24.621   2.214  49.732  1.00  0.00     0.167 HD
BRANCH  17  19
HETATM   19  C12 UNL     1      25.616   2.209  51.500  1.00  0.00     0.036 A 
HETATM   20  C13 UNL     1      26.761   1.571  51.440  1.00  0.00     0.030 A 
HETATM   21  C14 UNL     1      27.186   0.983  52.689  1.00  0.00     0.042 A 
HETATM   22  C15 UNL     1      26.246   1.283  53.556  1.00  0.00     0.118 A 
HETATM   23  F1  UNL     1      26.201   0.945  54.875  1.00  0.00    -0.209 F 
HETATM   24  C16 UNL     1      25.166   2.089  52.913  1.00  0.00     0.194 A 
HETATM   25 CL1  UNL     1      23.623   1.249  53.087  1.00  0.00    -0.111 Cl
ENDBRANCH  17  19
ENDBRANCH  12  17
BRANCH   6  26
HETATM   26  O2  UNL     1      29.718   9.931  47.290  1.00  0.00    -0.353 OA
HETATM   27  C8  UNL     1      29.391  11.027  48.122  1.00  0.00     0.210 C 
ENDBRANCH   6  26
BRANCH   1  28
HETATM   28  O1  UNL     1      31.163   7.714  46.843  1.00  0.00    -0.353 OA
HETATM   29  C1  UNL     1      32.391   7.505  47.504  1.00  0.00     0.210 C 
ENDBRANCH   1  28
TORSDOF 4
ENDMDL
MODEL 8
REMARK VINA RESULT:      -7.3      2.435      3.835
REMARK  4 active torsions:
REMARK  status: ('A' for Active; 'I' for Inactive)
REMARK    1  A    between atoms: O1_2  and  C2_3 
REMARK    2  A    between atoms: C7_8  and  O2_9 
REMARK    3  A    between atoms: C11_16  and  N2_17 
REMARK    4  A    between atoms: N2_17  and  C12_18 
ROOT
HETATM    1  C2  UNL     1      19.137   3.779  50.440  1.00  0.00     0.102 A 
HETATM    2  C3  UNL     1      20.466   3.485  50.463  1.00  0.00     0.051 A 
HETATM    3  C4  UNL     1      21.041   2.474  51.208  1.00  0.00    -0.004 A 
HETATM    4  C5  UNL     1      20.135   1.756  51.958  1.00  0.00     0.087 A 
HETATM    5  C6  UNL     1      18.777   1.982  51.997  1.00  0.00     0.077 A 
HETATM    6  C7  UNL     1      18.264   3.015  51.223  1.00  0.00     0.104 A 
HETATM    7  O3  UNL     1      20.449   0.675  52.807  1.00  0.00    -0.306 OA
HETATM    8  C9  UNL     1      21.724   0.258  53.193  1.00  0.00     0.119 A 
HETATM    9  P1  UNL     1      21.683  -0.739  54.640  1.00  0.00     0.027 P 
HETATM   10  C10 UNL     1      23.303  -1.230  55.076  1.00  0.00     0.137 A 
HETATM   11  N1  UNL     1      24.225  -0.769  54.257  1.00  0.00    -0.239 NA
HETATM   12  C11 UNL     1      24.143  -0.017  53.185  1.00  0.00     0.157 A 
HETATM   13  C17 UNL     1      22.993   0.493  52.640  1.00  0.00     0.110 A 
HETATM   14  N3  UNL     1      23.174   1.279  51.440  1.00  0.00    -0.380 N 
HETATM   15  C18 UNL     1      22.493   2.452  50.986  1.00  0.00     0.161 C 
HETATM   16  H14 UNL     1      23.958   0.841  50.860  1.00  0.00     0.160 HD
ENDROOT
BRANCH  12  17
HETATM   17  N2  UNL     1      25.393   0.303  52.539  1.00  0.00    -0.341 N 
HETATM   18  H10 UNL     1      25.670   1.088  51.923  1.00  0.00     0.167 HD
BRANCH  17  19
HETATM   19  C12 UNL     1      26.540  -0.558  52.728  1.00  0.00     0.036 A 
HETATM   20  C13 UNL     1      26.702  -1.810  52.368  1.00  0.00     0.030 A 
HETATM   21  C14 UNL     1      27.987  -2.372  52.718  1.00  0.00     0.042 A 
HETATM   22  C15 UNL     1      28.640  -1.407  53.323  1.00  0.00     0.118 A 
HETATM   23  F1  UNL     1      29.900  -1.459  53.838  1.00  0.00    -0.209 F 
HETATM   24  C16 UNL     1      27.813  -0.165  53.388  1.00  0.00     0.194 A 
HETATM   25 CL1  UNL     1      27.607   0.316  55.075  1.00  0.00    -0.111 Cl
ENDBRANCH  17  19
ENDBRANCH  12  17
BRANCH   6  26
HETATM   26  O2  UNL     1      16.896   3.251  51.256  1.00  0.00    -0.353 OA
HETATM   27  C8  UNL     1      16.060   2.189  51.671  1.00  0.00     0.210 C 
ENDBRANCH   6  26
BRANCH   1  28
HETATM   28  O1  UNL     1      18.500   4.764  49.726  1.00  0.00    -0.353 OA
HETATM   29  C1  UNL     1      19.165   5.880  49.177  1.00  0.00     0.210 C 
ENDBRANCH   1  28
TORSDOF 4
ENDMDL
MODEL 9
REMARK VINA RESULT:      -7.2      5.597      8.116
REMARK  4 active torsions:
REMARK  status: ('A' for Active; 'I' for Inactive)
REMARK    1  A    between atoms: O1_2  and  C2_3 
REMARK    2  A    between atoms: C7_8  and  O2_9 
REMARK    3  A    between atoms: C11_16  and  N2_17 
REMARK    4  A    between atoms: N2_17  and  C12_18 
ROOT
HETATM    1  C2  UNL     1      25.458  -0.363  53.956  1.00  0.00     0.102 A 
HETATM    2  C3  UNL     1      24.479   0.359  53.343  1.00  0.00     0.051 A 
HETATM    3  C4  UNL     1      24.684   1.255  52.312  1.00  0.00    -0.004 A 
HETATM    4  C5  UNL     1      26.004   1.372  51.934  1.00  0.00     0.087 A 
HETATM    5  C6  UNL     1      27.057   0.685  52.496  1.00  0.00     0.077 A 
HETATM    6  C7  UNL     1      26.781  -0.202  53.529  1.00  0.00     0.104 A 
HETATM    7  O3  UNL     1      26.493   2.213  50.914  1.00  0.00    -0.306 OA
HETATM    8  C9  UNL     1      25.782   3.207  50.239  1.00  0.00     0.119 A 
HETATM    9  P1  UNL     1      26.848   4.365  49.456  1.00  0.00     0.027 P 
HETATM   10  C10 UNL     1      25.906   5.583  48.628  1.00  0.00     0.137 A 
HETATM   11  N1  UNL     1      24.608   5.406  48.747  1.00  0.00    -0.239 NA
HETATM   12  C11 UNL     1      23.904   4.490  49.367  1.00  0.00     0.157 A 
HETATM   13  C17 UNL     1      24.405   3.432  50.083  1.00  0.00     0.110 A 
HETATM   14  N3  UNL     1      23.413   2.549  50.656  1.00  0.00    -0.380 N 
HETATM   15  C18 UNL     1      23.403   1.848  51.903  1.00  0.00     0.161 C 
HETATM   16  H14 UNL     1      22.596   2.465  49.972  1.00  0.00     0.160 HD
ENDROOT
BRANCH  12  17
HETATM   17  N2  UNL     1      22.470   4.629  49.288  1.00  0.00    -0.341 N 
HETATM   18  H10 UNL     1      21.720   3.944  49.085  1.00  0.00     0.167 HD
BRANCH  17  19
HETATM   19  C12 UNL     1      21.859   5.918  49.532  1.00  0.00     0.036 A 
HETATM   20  C13 UNL     1      21.762   6.587  50.658  1.00  0.00     0.030 A 
HETATM   21  C14 UNL     1      21.081   7.855  50.543  1.00  0.00     0.042 A 
HETATM   22  C15 UNL     1      20.746   7.962  49.278  1.00  0.00     0.118 A 
HETATM   23  F1  UNL     1      20.082   8.992  48.683  1.00  0.00    -0.209 F 
HETATM   24  C16 UNL     1      21.203   6.769  48.505  1.00  0.00     0.194 A 
HETATM   25 CL1  UNL     1      19.811   5.996  47.741  1.00  0.00    -0.111 Cl
ENDBRANCH  17  19
ENDBRANCH  12  17
BRANCH   6  26
HETATM   26  O2  UNL     1      27.836  -0.900  54.102  1.00  0.00    -0.353 OA
HETATM   27  C8  UNL     1      29.090  -0.838  53.452  1.00  0.00     0.210 C 
ENDBRANCH   6  26
BRANCH   1  28
HETATM   28  O1  UNL     1      25.326  -1.268  54.980  1.00  0.00    -0.353 OA
HETATM   29  C1  UNL     1      24.160  -1.391  55.763  1.00  0.00     0.210 C 
ENDBRANCH   1  28
TORSDOF 4
ENDMDL
