MODEL 1
REMARK VINA RESULT:      -8.9      0.000      0.000
REMARK  5 active torsions:
REMARK  status: ('A' for Active; 'I' for Inactive)
REMARK    1  A    between atoms: C3_3  and  N6_23 
REMARK    2  A    between atoms: C4_4  and  C5_5 
REMARK    3  A    between atoms: N1_6  and  C6_7 
REMARK    4  A    between atoms: C9_10  and  C10_11 
REMARK    5  A    between atoms: C13_15  and  N3_16 
ROOT
HETATM    1  C1  UNL     1      21.911   4.264  52.316  1.00  0.00     0.019 C 
HETATM    2  C2  UNL     1      21.985   3.074  52.465  1.00  0.00    -0.060 C 
HETATM    3  C3  UNL     1      22.052   1.652  52.629  1.00  0.00     0.085 C 
HETATM    4  C4  UNL     1      23.197   1.173  53.079  1.00  0.00     0.057 C 
ENDROOT
BRANCH   3   5
HETATM    5  N6  UNL     1      21.005   0.747  52.352  1.00  0.00    -0.371 N 
HETATM    6  C17 UNL     1      20.263   0.222  53.494  1.00  0.00     0.154 C 
HETATM    7  C18 UNL     1      19.051  -0.547  53.011  1.00  0.00     0.291 C 
HETATM    8  N7  UNL     1      18.345   0.320  52.085  1.00  0.00     0.087 N 
HETATM    9  C19 UNL     1      16.993  -0.160  51.860  1.00  0.00     0.310 C 
HETATM   10  C20 UNL     1      19.080   0.443  50.841  1.00  0.00     0.291 C 
HETATM   11  C21 UNL     1      20.561   0.259  51.041  1.00  0.00     0.154 C 
ENDBRANCH   3   5
BRANCH   4  12
HETATM   12  C5  UNL     1      23.496  -0.233  53.323  1.00  0.00     0.115 C 
HETATM   13  N1  UNL     1      24.594  -0.908  53.343  1.00  0.00    -0.277 NA
BRANCH  13  14
HETATM   14  C6  UNL     1      25.891  -0.349  53.099  1.00  0.00     0.149 C 
HETATM   15  C7  UNL     1      26.849  -1.401  52.564  1.00  0.00     0.056 C 
HETATM   16  C8  UNL     1      25.781   0.805  52.180  1.00  0.00     0.029 C 
HETATM   17  C9  UNL     1      26.550   1.822  51.843  1.00  0.00    -0.006 C 
HETATM   18  C14 UNL     1      27.881   1.991  52.444  1.00  0.00     0.030 C 
HETATM   19  C15 UNL     1      28.356   1.586  53.628  1.00  0.00     0.092 C 
HETATM   20  N5  UNL     1      27.645   0.865  54.625  1.00  0.00    -0.335 N 
HETATM   21  C16 UNL     1      26.463   0.101  54.417  1.00  0.00     0.255 C 
HETATM   22  H14 UNL     1      28.054   0.922  55.581  1.00  0.00     0.168 HD
HETATM   23  O1  UNL     1      25.845  -0.221  55.487  1.00  0.00    -0.270 OA
BRANCH  17  24
HETATM   24  C10 UNL     1      26.183   2.846  50.881  1.00  0.00     0.087 A 
HETATM   25  C11 UNL     1      24.917   3.173  50.459  1.00  0.00     0.053 A 
HETATM   26  C12 UNL     1      24.591   4.134  49.556  1.00  0.00     0.139 A 
HETATM   27  N2  UNL     1      25.624   4.843  49.014  1.00  0.00    -0.075 NA
HETATM   28  C13 UNL     1      26.896   4.544  49.410  1.00  0.00     0.720 A 
HETATM   29  N4  UNL     1      27.147   3.582  50.307  1.00  0.00    -0.063 NA
BRANCH  28  30
HETATM   30  N3  UNL     1      28.045   5.232  48.899  1.00  0.00    -0.231 N 
HETATM   31  H10 UNL     1      28.620   5.219  48.031  1.00  0.00     0.174 HD
HETATM   32  H11 UNL     1      28.757   5.964  49.104  1.00  0.00     0.174 HD
ENDBRANCH  28  30
ENDBRANCH  17  24
ENDBRANCH  13  14
ENDBRANCH   4  12
TORSDOF 5
ENDMDL
MODEL 2
REMARK VINA RESULT:      -8.7      2.589      6.285
REMARK  5 active torsions:
REMARK  status: ('A' for Active; 'I' for Inactive)
REMARK    1  A    between atoms: C3_3  and  N6_23 
REMARK    2  A    between atoms: C4_4  and  C5_5 
REMARK    3  A    between atoms: N1_6  and  C6_7 
REMARK    4  A    between atoms: C9_10  and  C10_11 
REMARK    5  A    between atoms: C13_15  and  N3_16 
ROOT
HETATM    1  C1  UNL     1      27.172   4.419  48.957  1.00  0.00     0.019 C 
HETATM    2  C2  UNL     1      26.078   4.699  49.369  1.00  0.00    -0.060 C 
HETATM    3  C3  UNL     1      24.772   5.050  49.842  1.00  0.00     0.085 C 
HETATM    4  C4  UNL     1      24.220   4.210  50.699  1.00  0.00     0.057 C 
ENDROOT
BRANCH   3   5
HETATM    5  N6  UNL     1      24.049   6.203  49.467  1.00  0.00    -0.371 N 
HETATM    6  C17 UNL     1      23.329   6.149  48.199  1.00  0.00     0.154 C 
HETATM    7  C18 UNL     1      22.439   7.367  48.061  1.00  0.00     0.291 C 
HETATM    8  N7  UNL     1      21.657   7.457  49.281  1.00  0.00     0.087 N 
HETATM    9  C19 UNL     1      20.523   8.346  49.100  1.00  0.00     0.310 C 
HETATM   10  C20 UNL     1      22.491   7.876  50.390  1.00  0.00     0.291 C 
HETATM   11  C21 UNL     1      23.928   7.467  50.202  1.00  0.00     0.154 C 
ENDBRANCH   3   5
BRANCH   4  12
HETATM   12  C5  UNL     1      22.905   4.359  51.311  1.00  0.00     0.115 C 
HETATM   13  N1  UNL     1      22.076   3.519  51.829  1.00  0.00    -0.277 NA
BRANCH  13  14
HETATM   14  C6  UNL     1      22.306   2.107  51.917  1.00  0.00     0.149 C 
HETATM   15  C7  UNL     1      22.196   1.448  50.551  1.00  0.00     0.056 C 
HETATM   16  C8  UNL     1      23.620   1.844  52.543  1.00  0.00     0.029 C 
HETATM   17  C9  UNL     1      24.209   0.808  53.108  1.00  0.00    -0.006 C 
HETATM   18  C14 UNL     1      23.516  -0.484  53.219  1.00  0.00     0.030 C 
HETATM   19  C15 UNL     1      22.208  -0.764  53.278  1.00  0.00     0.092 C 
HETATM   20  N5  UNL     1      21.138   0.171  53.246  1.00  0.00    -0.335 N 
HETATM   21  C16 UNL     1      21.211   1.504  52.756  1.00  0.00     0.255 C 
HETATM   22  H14 UNL     1      20.235  -0.187  53.622  1.00  0.00     0.168 HD
HETATM   23  O1  UNL     1      20.222   2.244  53.084  1.00  0.00    -0.270 OA
BRANCH  17  24
HETATM   24  C10 UNL     1      25.552   0.827  53.660  1.00  0.00     0.087 A 
HETATM   25  C11 UNL     1      26.075  -0.029  54.600  1.00  0.00     0.053 A 
HETATM   26  C12 UNL     1      27.335   0.004  55.107  1.00  0.00     0.139 A 
HETATM   27  N2  UNL     1      28.161   0.983  54.637  1.00  0.00    -0.075 NA
HETATM   28  C13 UNL     1      27.674   1.852  53.703  1.00  0.00     0.720 A 
HETATM   29  N4  UNL     1      26.418   1.763  53.245  1.00  0.00    -0.063 NA
BRANCH  28  30
HETATM   30  N3  UNL     1      28.463   2.912  53.150  1.00  0.00    -0.231 N 
HETATM   31  H10 UNL     1      28.541   3.412  52.239  1.00  0.00     0.174 HD
HETATM   32  H11 UNL     1      29.223   3.596  53.347  1.00  0.00     0.174 HD
ENDBRANCH  28  30
ENDBRANCH  17  24
ENDBRANCH  13  14
ENDBRANCH   4  12
TORSDOF 5
ENDMDL
MODEL 3
REMARK VINA RESULT:      -8.6      2.663      6.744
REMARK  5 active torsions:
REMARK  status: ('A' for Active; 'I' for Inactive)
REMARK    1  A    between atoms: C3_3  and  N6_23 
REMARK    2  A    between atoms: C4_4  and  C5_5 
REMARK    3  A    between atoms: N1_6  and  C6_7 
REMARK    4  A    between atoms: C9_10  and  C10_11 
REMARK    5  A    between atoms: C13_15  and  N3_16 
ROOT
HETATM    1  C1  UNL     1      27.204   4.332  48.963  1.00  0.00     0.019 C 
HETATM    2  C2  UNL     1      26.110   4.651  49.344  1.00  0.00    -0.060 C 
HETATM    3  C3  UNL     1      24.804   5.047  49.781  1.00  0.00     0.085 C 
HETATM    4  C4  UNL     1      24.203   4.233  50.629  1.00  0.00     0.057 C 
ENDROOT
BRANCH   3   5
HETATM    5  N6  UNL     1      24.129   6.221  49.379  1.00  0.00    -0.371 N 
HETATM    6  C17 UNL     1      24.315   7.408  50.206  1.00  0.00     0.154 C 
HETATM    7  C18 UNL     1      23.711   8.615  49.518  1.00  0.00     0.291 C 
HETATM    8  N7  UNL     1      24.245   8.639  48.168  1.00  0.00     0.087 N 
HETATM    9  C19 UNL     1      24.034   9.939  47.556  1.00  0.00     0.310 C 
HETATM   10  C20 UNL     1      23.664   7.575  47.372  1.00  0.00     0.291 C 
HETATM   11  C21 UNL     1      23.250   6.399  48.217  1.00  0.00     0.154 C 
ENDBRANCH   3   5
BRANCH   4  12
HETATM   12  C5  UNL     1      22.878   4.429  51.205  1.00  0.00     0.115 C 
HETATM   13  N1  UNL     1      22.013   3.621  51.714  1.00  0.00    -0.277 NA
BRANCH  13  14
HETATM   14  C6  UNL     1      22.199   2.205  51.829  1.00  0.00     0.149 C 
HETATM   15  C7  UNL     1      22.069   1.524  50.476  1.00  0.00     0.056 C 
HETATM   16  C8  UNL     1      23.504   1.914  52.461  1.00  0.00     0.029 C 
HETATM   17  C9  UNL     1      24.060   0.871  53.045  1.00  0.00    -0.006 C 
HETATM   18  C14 UNL     1      23.328  -0.397  53.180  1.00  0.00     0.030 C 
HETATM   19  C15 UNL     1      22.012  -0.635  53.243  1.00  0.00     0.092 C 
HETATM   20  N5  UNL     1      20.972   0.331  53.193  1.00  0.00    -0.335 N 
HETATM   21  C16 UNL     1      21.085   1.652  52.679  1.00  0.00     0.255 C 
HETATM   22  H14 UNL     1      20.057   0.009  53.576  1.00  0.00     0.168 HD
HETATM   23  O1  UNL     1      20.120   2.428  52.991  1.00  0.00    -0.270 OA
BRANCH  17  24
HETATM   24  C10 UNL     1      25.403   0.858  53.598  1.00  0.00     0.087 A 
HETATM   25  C11 UNL     1      25.914  -0.025  54.518  1.00  0.00     0.053 A 
HETATM   26  C12 UNL     1      27.174  -0.021  55.027  1.00  0.00     0.139 A 
HETATM   27  N2  UNL     1      28.014   0.957  54.579  1.00  0.00    -0.075 NA
HETATM   28  C13 UNL     1      27.539   1.853  53.664  1.00  0.00     0.720 A 
HETATM   29  N4  UNL     1      26.283   1.791  53.204  1.00  0.00    -0.063 NA
BRANCH  28  30
HETATM   30  N3  UNL     1      28.343   2.914  53.135  1.00  0.00    -0.231 N 
HETATM   31  H10 UNL     1      29.281   3.329  53.321  1.00  0.00     0.174 HD
HETATM   32  H11 UNL     1      28.387   3.671  52.421  1.00  0.00     0.174 HD
ENDBRANCH  28  30
ENDBRANCH  17  24
ENDBRANCH  13  14
ENDBRANCH   4  12
TORSDOF 5
ENDMDL
MODEL 4
REMARK VINA RESULT:      -8.4      2.972      7.342
REMARK  5 active torsions:
REMARK  status: ('A' for Active; 'I' for Inactive)
REMARK    1  A    between atoms: C3_3  and  N6_23 
REMARK    2  A    between atoms: C4_4  and  C5_5 
REMARK    3  A    between atoms: N1_6  and  C6_7 
REMARK    4  A    between atoms: C9_10  and  C10_11 
REMARK    5  A    between atoms: C13_15  and  N3_16 
ROOT
HETATM    1  C1  UNL     1      27.135   4.871  48.827  1.00  0.00     0.019 C 
HETATM    2  C2  UNL     1      26.084   5.209  49.300  1.00  0.00    -0.060 C 
HETATM    3  C3  UNL     1      24.824   5.624  49.843  1.00  0.00     0.085 C 
HETATM    4  C4  UNL     1      24.459   5.044  50.972  1.00  0.00     0.057 C 
ENDROOT
BRANCH   3   5
HETATM    5  N6  UNL     1      23.965   6.588  49.272  1.00  0.00    -0.371 N 
HETATM    6  C17 UNL     1      24.121   7.966  49.726  1.00  0.00     0.154 C 
HETATM    7  C18 UNL     1      23.288   8.890  48.862  1.00  0.00     0.291 C 
HETATM    8  N7  UNL     1      23.623   8.589  47.481  1.00  0.00     0.087 N 
HETATM    9  C19 UNL     1      23.177   9.654  46.600  1.00  0.00     0.310 C 
HETATM   10  C20 UNL     1      23.069   7.307  47.091  1.00  0.00     0.291 C 
HETATM   11  C21 UNL     1      22.919   6.376  48.265  1.00  0.00     0.154 C 
ENDBRANCH   3   5
BRANCH   4  12
HETATM   12  C5  UNL     1      23.226   5.305  51.705  1.00  0.00     0.115 C 
HETATM   13  N1  UNL     1      22.176   4.595  51.940  1.00  0.00    -0.277 NA
BRANCH  13  14
HETATM   14  C6  UNL     1      21.987   3.253  51.475  1.00  0.00     0.149 C 
HETATM   15  C7  UNL     1      21.987   3.195  49.956  1.00  0.00     0.056 C 
HETATM   16  C8  UNL     1      23.019   2.366  52.053  1.00  0.00     0.029 C 
HETATM   17  C9  UNL     1      23.172   1.064  52.204  1.00  0.00    -0.006 C 
HETATM   18  C14 UNL     1      22.144   0.126  51.730  1.00  0.00     0.030 C 
HETATM   19  C15 UNL     1      20.827   0.296  51.561  1.00  0.00     0.092 C 
HETATM   20  N5  UNL     1      20.084   1.480  51.815  1.00  0.00    -0.335 N 
HETATM   21  C16 UNL     1      20.619   2.795  51.907  1.00  0.00     0.255 C 
HETATM   22  H14 UNL     1      19.060   1.336  51.939  1.00  0.00     0.168 HD
HETATM   23  O1  UNL     1      19.826   3.655  52.418  1.00  0.00    -0.270 OA
BRANCH  17  24
HETATM   24  C10 UNL     1      24.323   0.439  52.829  1.00  0.00     0.087 A 
HETATM   25  C11 UNL     1      25.612   0.408  52.353  1.00  0.00     0.053 A 
HETATM   26  C12 UNL     1      26.679  -0.184  52.952  1.00  0.00     0.139 A 
HETATM   27  N2  UNL     1      26.446  -0.808  54.143  1.00  0.00    -0.075 NA
HETATM   28  C13 UNL     1      25.177  -0.797  54.646  1.00  0.00     0.720 A 
HETATM   29  N4  UNL     1      24.169  -0.194  54.002  1.00  0.00    -0.063 NA
BRANCH  28  30
HETATM   30  N3  UNL     1      24.834  -1.424  55.888  1.00  0.00    -0.231 N 
HETATM   31  H10 UNL     1      24.124  -2.106  56.230  1.00  0.00     0.174 HD
HETATM   32  H11 UNL     1      25.081  -1.501  56.896  1.00  0.00     0.174 HD
ENDBRANCH  28  30
ENDBRANCH  17  24
ENDBRANCH  13  14
ENDBRANCH   4  12
TORSDOF 5
ENDMDL
MODEL 5
REMARK VINA RESULT:      -7.9      2.058      6.863
REMARK  5 active torsions:
REMARK  status: ('A' for Active; 'I' for Inactive)
REMARK    1  A    between atoms: C3_3  and  N6_23 
REMARK    2  A    between atoms: C4_4  and  C5_5 
REMARK    3  A    between atoms: N1_6  and  C6_7 
REMARK    4  A    between atoms: C9_10  and  C10_11 
REMARK    5  A    between atoms: C13_15  and  N3_16 
ROOT
HETATM    1  C1  UNL     1      19.795   5.122  50.385  1.00  0.00     0.019 C 
HETATM    2  C2  UNL     1      20.982   4.982  50.267  1.00  0.00    -0.060 C 
HETATM    3  C3  UNL     1      22.402   4.839  50.128  1.00  0.00     0.085 C 
HETATM    4  C4  UNL     1      22.879   3.615  50.267  1.00  0.00     0.057 C 
ENDROOT
BRANCH   3   5
HETATM    5  N6  UNL     1      23.307   5.889  49.859  1.00  0.00    -0.371 N 
HETATM    6  C17 UNL     1      24.142   6.342  50.966  1.00  0.00     0.154 C 
HETATM    7  C18 UNL     1      25.195   7.304  50.456  1.00  0.00     0.291 C 
HETATM    8  N7  UNL     1      25.850   6.654  49.335  1.00  0.00     0.087 N 
HETATM    9  C19 UNL     1      27.104   7.315  49.019  1.00  0.00     0.310 C 
HETATM   10  C20 UNL     1      24.967   6.610  48.186  1.00  0.00     0.291 C 
HETATM   11  C21 UNL     1      23.516   6.592  48.589  1.00  0.00     0.154 C 
ENDBRANCH   3   5
BRANCH   4  12
HETATM   12  C5  UNL     1      24.282   3.231  50.169  1.00  0.00     0.115 C 
HETATM   13  N1  UNL     1      25.046   2.498  50.903  1.00  0.00    -0.277 NA
BRANCH  13  14
HETATM   14  C6  UNL     1      24.623   1.837  52.102  1.00  0.00     0.149 C 
HETATM   15  C7  UNL     1      24.822   2.728  53.317  1.00  0.00     0.056 C 
HETATM   16  C8  UNL     1      23.215   1.402  51.972  1.00  0.00     0.029 C 
HETATM   17  C9  UNL     1      22.426   0.551  52.599  1.00  0.00    -0.006 C 
HETATM   18  C14 UNL     1      22.923  -0.239  53.735  1.00  0.00     0.030 C 
HETATM   19  C15 UNL     1      24.163  -0.645  54.033  1.00  0.00     0.092 C 
HETATM   20  N5  UNL     1      25.341  -0.393  53.280  1.00  0.00    -0.335 N 
HETATM   21  C16 UNL     1      25.510   0.640  52.317  1.00  0.00     0.255 C 
HETATM   22  H14 UNL     1      26.133  -1.041  53.478  1.00  0.00     0.168 HD
HETATM   23  O1  UNL     1      26.535   0.504  51.568  1.00  0.00    -0.270 OA
BRANCH  17  24
HETATM   24  C10 UNL     1      21.037   0.310  52.252  1.00  0.00     0.087 A 
HETATM   25  C11 UNL     1      20.388   0.698  51.104  1.00  0.00     0.053 A 
HETATM   26  C12 UNL     1      19.086   0.465  50.795  1.00  0.00     0.139 A 
HETATM   27  N2  UNL     1      18.351  -0.222  51.717  1.00  0.00    -0.075 NA
HETATM   28  C13 UNL     1      18.962  -0.623  52.870  1.00  0.00     0.720 A 
HETATM   29  N4  UNL     1      20.253  -0.359  53.111  1.00  0.00    -0.063 NA
BRANCH  28  30
HETATM   30  N3  UNL     1      18.275  -1.348  53.896  1.00  0.00    -0.231 N 
HETATM   31  H10 UNL     1      18.271  -2.319  54.276  1.00  0.00     0.174 HD
HETATM   32  H11 UNL     1      17.557  -1.281  54.648  1.00  0.00     0.174 HD
ENDBRANCH  28  30
ENDBRANCH  17  24
ENDBRANCH  13  14
ENDBRANCH   4  12
TORSDOF 5
ENDMDL
MODEL 6
REMARK VINA RESULT:      -7.9      2.626      6.646
REMARK  5 active torsions:
REMARK  status: ('A' for Active; 'I' for Inactive)
REMARK    1  A    between atoms: C3_3  and  N6_23 
REMARK    2  A    between atoms: C4_4  and  C5_5 
REMARK    3  A    between atoms: N1_6  and  C6_7 
REMARK    4  A    between atoms: C9_10  and  C10_11 
REMARK    5  A    between atoms: C13_15  and  N3_16 
ROOT
HETATM    1  C1  UNL     1      26.763   3.702  49.510  1.00  0.00     0.019 C 
HETATM    2  C2  UNL     1      26.240   3.048  50.371  1.00  0.00    -0.060 C 
HETATM    3  C3  UNL     1      25.636   2.264  51.409  1.00  0.00     0.085 C 
HETATM    4  C4  UNL     1      24.318   2.304  51.475  1.00  0.00     0.057 C 
ENDROOT
BRANCH   3   5
HETATM    5  N6  UNL     1      26.335   1.470  52.344  1.00  0.00    -0.371 N 
HETATM    6  C17 UNL     1      26.581   0.079  51.979  1.00  0.00     0.154 C 
HETATM    7  C18 UNL     1      27.522  -0.557  52.981  1.00  0.00     0.291 C 
HETATM    8  N7  UNL     1      28.669   0.326  53.100  1.00  0.00     0.087 N 
HETATM    9  C19 UNL     1      29.782  -0.361  53.731  1.00  0.00     0.310 C 
HETATM   10  C20 UNL     1      28.310   1.533  53.818  1.00  0.00     0.291 C 
HETATM   11  C21 UNL     1      26.852   1.874  53.657  1.00  0.00     0.154 C 
ENDBRANCH   3   5
BRANCH   4  12
HETATM   12  C5  UNL     1      23.491   1.593  52.442  1.00  0.00     0.115 C 
HETATM   13  N1  UNL     1      22.218   1.521  52.626  1.00  0.00    -0.277 NA
BRANCH  13  14
HETATM   14  C6  UNL     1      21.246   2.205  51.825  1.00  0.00     0.149 C 
HETATM   15  C7  UNL     1      19.897   2.254  52.524  1.00  0.00     0.056 C 
HETATM   16  C8  UNL     1      21.732   3.561  51.486  1.00  0.00     0.029 C 
HETATM   17  C9  UNL     1      21.418   4.483  50.598  1.00  0.00    -0.006 C 
HETATM   18  C14 UNL     1      20.334   4.259  49.630  1.00  0.00     0.030 C 
HETATM   19  C15 UNL     1      19.847   3.121  49.122  1.00  0.00     0.092 C 
HETATM   20  N5  UNL     1      20.289   1.803  49.417  1.00  0.00    -0.335 N 
HETATM   21  C16 UNL     1      21.031   1.410  50.565  1.00  0.00     0.255 C 
HETATM   22  H14 UNL     1      20.029   1.086  48.707  1.00  0.00     0.168 HD
HETATM   23  O1  UNL     1      21.559   0.250  50.484  1.00  0.00    -0.270 OA
BRANCH  17  24
HETATM   24  C10 UNL     1      22.081   5.770  50.480  1.00  0.00     0.087 A 
HETATM   25  C11 UNL     1      21.525   6.956  50.065  1.00  0.00     0.053 A 
HETATM   26  C12 UNL     1      22.161   8.152  49.960  1.00  0.00     0.139 A 
HETATM   27  N2  UNL     1      23.482   8.176  50.300  1.00  0.00    -0.075 NA
HETATM   28  C13 UNL     1      24.068   7.016  50.718  1.00  0.00     0.720 A 
HETATM   29  N4  UNL     1      23.381   5.869  50.798  1.00  0.00    -0.063 NA
BRANCH  28  30
HETATM   30  N3  UNL     1      25.448   6.941  51.097  1.00  0.00    -0.231 N 
HETATM   31  H10 UNL     1      26.198   7.603  51.387  1.00  0.00     0.174 HD
HETATM   32  H11 UNL     1      26.253   6.298  51.247  1.00  0.00     0.174 HD
ENDBRANCH  28  30
ENDBRANCH  17  24
ENDBRANCH  13  14
ENDBRANCH   4  12
TORSDOF 5
ENDMDL
MODEL 7
REMARK VINA RESULT:      -7.8      5.968     10.324
REMARK  5 active torsions:
REMARK  status: ('A' for Active; 'I' for Inactive)
REMARK    1  A    between atoms: C3_3  and  N6_23 
REMARK    2  A    between atoms: C4_4  and  C5_5 
REMARK    3  A    between atoms: N1_6  and  C6_7 
REMARK    4  A    between atoms: C9_10  and  C10_11 
REMARK    5  A    between atoms: C13_15  and  N3_16 
ROOT
HETATM    1  C1  UNL     1      30.920   9.673  49.663  1.00  0.00     0.019 C 
HETATM    2  C2  UNL     1      29.754   9.811  49.407  1.00  0.00    -0.060 C 
HETATM    3  C3  UNL     1      28.370   9.986  49.080  1.00  0.00     0.085 C 
HETATM    4  C4  UNL     1      27.506   9.346  49.847  1.00  0.00     0.057 C 
ENDROOT
BRANCH   3   5
HETATM    5  N6  UNL     1      27.873  10.776  48.020  1.00  0.00    -0.371 N 
HETATM    6  C17 UNL     1      27.633  12.187  48.302  1.00  0.00     0.154 C 
HETATM    7  C18 UNL     1      27.321  12.924  47.016  1.00  0.00     0.291 C 
HETATM    8  N7  UNL     1      28.375  12.591  46.075  1.00  0.00     0.087 N 
HETATM    9  C19 UNL     1      28.382  13.522  44.961  1.00  0.00     0.310 C 
HETATM   10  C20 UNL     1      28.239  11.220  45.623  1.00  0.00     0.291 C 
HETATM   11  C21 UNL     1      27.564  10.351  46.650  1.00  0.00     0.154 C 
ENDBRANCH   3   5
BRANCH   4  12
HETATM   12  C5  UNL     1      26.056   9.373  49.705  1.00  0.00     0.115 C 
HETATM   13  N1  UNL     1      25.188   8.482  49.371  1.00  0.00    -0.277 NA
BRANCH  13  14
HETATM   14  C6  UNL     1      25.511   7.128  49.030  1.00  0.00     0.149 C 
HETATM   15  C7  UNL     1      24.554   6.584  47.981  1.00  0.00     0.056 C 
HETATM   16  C8  UNL     1      26.917   7.039  48.581  1.00  0.00     0.029 C 
HETATM   17  C9  UNL     1      27.801   6.073  48.422  1.00  0.00    -0.006 C 
HETATM   18  C14 UNL     1      27.452   4.677  48.725  1.00  0.00     0.030 C 
HETATM   19  C15 UNL     1      26.549   4.173  49.574  1.00  0.00     0.092 C 
HETATM   20  N5  UNL     1      25.677   4.911  50.421  1.00  0.00    -0.335 N 
HETATM   21  C16 UNL     1      25.311   6.274  50.255  1.00  0.00     0.255 C 
HETATM   22  H14 UNL     1      25.290   4.372  51.224  1.00  0.00     0.168 HD
HETATM   23  O1  UNL     1      24.755   6.803  51.276  1.00  0.00    -0.270 OA
BRANCH  17  24
HETATM   24  C10 UNL     1      29.160   6.272  47.951  1.00  0.00     0.087 A 
HETATM   25  C11 UNL     1      29.586   7.161  46.994  1.00  0.00     0.053 A 
HETATM   26  C12 UNL     1      30.862   7.334  46.564  1.00  0.00     0.139 A 
HETATM   27  N2  UNL     1      31.815   6.544  47.139  1.00  0.00    -0.075 NA
HETATM   28  C13 UNL     1      31.429   5.648  48.094  1.00  0.00     0.720 A 
HETATM   29  N4  UNL     1      30.149   5.530  48.472  1.00  0.00    -0.063 NA
BRANCH  28  30
HETATM   30  N3  UNL     1      32.355   4.777  48.755  1.00  0.00    -0.231 N 
HETATM   31  H10 UNL     1      33.251   4.869  49.279  1.00  0.00     0.174 HD
HETATM   32  H11 UNL     1      32.561   3.786  49.001  1.00  0.00     0.174 HD
ENDBRANCH  28  30
ENDBRANCH  17  24
ENDBRANCH  13  14
ENDBRANCH   4  12
TORSDOF 5
ENDMDL
MODEL 8
REMARK VINA RESULT:      -7.8      2.652      6.963
REMARK  5 active torsions:
REMARK  status: ('A' for Active; 'I' for Inactive)
REMARK    1  A    between atoms: C3_3  and  N6_23 
REMARK    2  A    between atoms: C4_4  and  C5_5 
REMARK    3  A    between atoms: N1_6  and  C6_7 
REMARK    4  A    between atoms: C9_10  and  C10_11 
REMARK    5  A    between atoms: C13_15  and  N3_16 
ROOT
HETATM    1  C1  UNL     1      21.824   3.663  45.813  1.00  0.00     0.019 C 
HETATM    2  C2  UNL     1      22.205   4.059  46.881  1.00  0.00    -0.060 C 
HETATM    3  C3  UNL     1      22.672   4.548  48.145  1.00  0.00     0.085 C 
HETATM    4  C4  UNL     1      22.043   4.092  49.213  1.00  0.00     0.057 C 
ENDROOT
BRANCH   3   5
HETATM    5  N6  UNL     1      23.733   5.462  48.325  1.00  0.00    -0.371 N 
HETATM    6  C17 UNL     1      23.555   6.801  47.772  1.00  0.00     0.154 C 
HETATM    7  C18 UNL     1      24.675   7.706  48.243  1.00  0.00     0.291 C 
HETATM    8  N7  UNL     1      24.742   7.573  49.688  1.00  0.00     0.087 N 
HETATM    9  C19 UNL     1      25.509   8.661  50.268  1.00  0.00     0.310 C 
HETATM   10  C20 UNL     1      25.287   6.281  50.055  1.00  0.00     0.291 C 
HETATM   11  C21 UNL     1      25.011   5.233  49.009  1.00  0.00     0.154 C 
ENDBRANCH   3   5
BRANCH   4  12
HETATM   12  C5  UNL     1      22.342   4.448  50.594  1.00  0.00     0.115 C 
HETATM   13  N1  UNL     1      22.459   3.756  51.675  1.00  0.00    -0.277 NA
BRANCH  13  14
HETATM   14  C6  UNL     1      22.298   2.334  51.745  1.00  0.00     0.149 C 
HETATM   15  C7  UNL     1      21.948   1.755  50.384  1.00  0.00     0.056 C 
HETATM   16  C8  UNL     1      23.519   1.713  52.303  1.00  0.00     0.029 C 
HETATM   17  C9  UNL     1      23.829   0.545  52.833  1.00  0.00    -0.006 C 
HETATM   18  C14 UNL     1      22.815  -0.511  52.973  1.00  0.00     0.030 C 
HETATM   19  C15 UNL     1      21.485  -0.425  53.097  1.00  0.00     0.092 C 
HETATM   20  N5  UNL     1      20.711   0.766  53.123  1.00  0.00    -0.335 N 
HETATM   21  C16 UNL     1      21.121   2.037  52.636  1.00  0.00     0.255 C 
HETATM   22  H14 UNL     1      19.763   0.661  53.543  1.00  0.00     0.168 HD
HETATM   23  O1  UNL     1      20.389   3.012  53.016  1.00  0.00    -0.270 OA
BRANCH  17  24
HETATM   24  C10 UNL     1      25.150   0.187  53.317  1.00  0.00     0.087 A 
HETATM   25  C11 UNL     1      25.937   0.902  54.188  1.00  0.00     0.053 A 
HETATM   26  C12 UNL     1      27.173   0.553  54.630  1.00  0.00     0.139 A 
HETATM   27  N2  UNL     1      27.682  -0.624  54.162  1.00  0.00    -0.075 NA
HETATM   28  C13 UNL     1      26.928  -1.360  53.295  1.00  0.00     0.720 A 
HETATM   29  N4  UNL     1      25.714  -0.956  52.900  1.00  0.00    -0.063 NA
BRANCH  28  30
HETATM   30  N3  UNL     1      27.375  -2.608  52.751  1.00  0.00    -0.231 N 
HETATM   31  H10 UNL     1      27.101  -3.246  51.974  1.00  0.00     0.174 HD
HETATM   32  H11 UNL     1      28.079  -3.370  52.842  1.00  0.00     0.174 HD
ENDBRANCH  28  30
ENDBRANCH  17  24
ENDBRANCH  13  14
ENDBRANCH   4  12
TORSDOF 5
ENDMDL
MODEL 9
REMARK VINA RESULT:      -7.7      2.001      6.408
REMARK  5 active torsions:
REMARK  status: ('A' for Active; 'I' for Inactive)
REMARK    1  A    between atoms: C3_3  and  N6_23 
REMARK    2  A    between atoms: C4_4  and  C5_5 
REMARK    3  A    between atoms: N1_6  and  C6_7 
REMARK    4  A    between atoms: C9_10  and  C10_11 
REMARK    5  A    between atoms: C13_15  and  N3_16 
ROOT
HETATM    1  C1  UNL     1      22.292   3.191  48.112  1.00  0.00     0.019 C 
HETATM    2  C2  UNL     1      23.288   3.434  48.738  1.00  0.00    -0.060 C 
HETATM    3  C3  UNL     1      24.469   3.747  49.488  1.00  0.00     0.085 C 
HETATM    4  C4  UNL     1      25.163   2.716  49.936  1.00  0.00     0.057 C 
ENDROOT
BRANCH   3   5
HETATM    5  N6  UNL     1      24.934   5.049  49.774  1.00  0.00    -0.371 N 
HETATM    6  C17 UNL     1      26.019   5.562  48.944  1.00  0.00     0.154 C 
HETATM    7  C18 UNL     1      26.240   7.032  49.236  1.00  0.00     0.291 C 
HETATM    8  N7  UNL     1      24.944   7.679  49.134  1.00  0.00     0.087 N 
HETATM    9  C19 UNL     1      25.097   9.119  49.020  1.00  0.00     0.310 C 
HETATM   10  C20 UNL     1      24.105   7.319  50.260  1.00  0.00     0.291 C 
HETATM   11  C21 UNL     1      24.457   5.965  50.816  1.00  0.00     0.154 C 
ENDBRANCH   3   5
BRANCH   4  12
HETATM   12  C5  UNL     1      26.391   2.791  50.718  1.00  0.00     0.115 C 
HETATM   13  N1  UNL     1      26.708   2.382  51.898  1.00  0.00    -0.277 NA
BRANCH  13  14
HETATM   14  C6  UNL     1      25.815   1.693  52.782  1.00  0.00     0.149 C 
HETATM   15  C7  UNL     1      26.190   1.932  54.235  1.00  0.00     0.056 C 
HETATM   16  C8  UNL     1      24.419   2.096  52.507  1.00  0.00     0.029 C 
HETATM   17  C9  UNL     1      23.222   1.617  52.789  1.00  0.00    -0.006 C 
HETATM   18  C14 UNL     1      23.072   0.378  53.566  1.00  0.00     0.030 C 
HETATM   19  C15 UNL     1      23.895  -0.670  53.695  1.00  0.00     0.092 C 
HETATM   20  N5  UNL     1      25.166  -0.831  53.081  1.00  0.00    -0.335 N 
HETATM   21  C16 UNL     1      25.974   0.213  52.551  1.00  0.00     0.255 C 
HETATM   22  H14 UNL     1      25.506  -1.814  53.031  1.00  0.00     0.168 HD
HETATM   23  O1  UNL     1      26.929  -0.183  51.801  1.00  0.00    -0.270 OA
BRANCH  17  24
HETATM   24  C10 UNL     1      21.973   2.235  52.382  1.00  0.00     0.087 A 
HETATM   25  C11 UNL     1      21.764   3.555  52.063  1.00  0.00     0.053 A 
HETATM   26  C12 UNL     1      20.587   4.117  51.684  1.00  0.00     0.139 A 
HETATM   27  N2  UNL     1      19.506   3.287  51.614  1.00  0.00    -0.075 NA
HETATM   28  C13 UNL     1      19.676   1.968  51.924  1.00  0.00     0.720 A 
HETATM   29  N4  UNL     1      20.868   1.480  52.291  1.00  0.00    -0.063 NA
BRANCH  28  30
HETATM   30  N3  UNL     1      18.603   1.021  51.879  1.00  0.00    -0.231 N 
HETATM   31  H10 UNL     1      18.073   0.498  51.150  1.00  0.00     0.174 HD
HETATM   32  H11 UNL     1      17.930   0.473  52.455  1.00  0.00     0.174 HD
ENDBRANCH  28  30
ENDBRANCH  17  24
ENDBRANCH  13  14
ENDBRANCH   4  12
TORSDOF 5
ENDMDL
