MODEL 1
REMARK VINA RESULT:      -7.4      0.000      0.000
REMARK  3 active torsions:
REMARK  status: ('A' for Active; 'I' for Inactive)
REMARK    1  A    between atoms: N1_2  and  C2_3 
REMARK    2  A    between atoms: C6_10  and  N5_11 
REMARK    3  A    between atoms: C12_17  and  N6_18 
ROOT
HETATM    1  C2  UNL     1      23.005   0.721  52.584  1.00  0.00     0.128 C 
HETATM    2  N2  UNL     1      21.927   0.430  51.910  1.00  0.00    -0.225 NA
HETATM    3  C3  UNL     1      21.722   0.957  50.603  1.00  0.00     0.257 C 
HETATM    4  N3  UNL     1      22.634   1.736  50.078  1.00  0.00    -0.165 NA
HETATM    5  N4  UNL     1      23.802   2.045  50.781  1.00  0.00    -0.266 N 
HETATM    6  C4  UNL     1      25.057   2.733  50.539  1.00  0.00     0.111 C 
HETATM    7  C5  UNL     1      26.059   2.209  51.301  1.00  0.00     0.019 C 
HETATM    8  C6  UNL     1      25.466   1.116  52.102  1.00  0.00     0.136 C 
HETATM    9  C15 UNL     1      24.041   1.609  52.167  1.00  0.00     0.204 C 
ENDROOT
BRANCH   8  10
HETATM   10  N5  UNL     1      26.085   0.910  53.316  1.00  0.00    -0.402 N 
HETATM   11  C7  UNL     1      26.643   1.947  54.092  1.00  0.00     0.117 C 
HETATM   12  C8  UNL     1      27.965   2.429  53.505  1.00  0.00     0.019 C 
HETATM   13  C9  UNL     1      28.849   1.219  53.230  1.00  0.00     0.002 C 
HETATM   14  C10 UNL     1      29.001   0.349  54.410  1.00  0.00     0.002 C 
HETATM   15  C11 UNL     1      29.210  -1.108  54.012  1.00  0.00     0.035 C 
HETATM   16  C12 UNL     1      28.148  -1.543  53.047  1.00  0.00     0.219 C 
HETATM   17  C13 UNL     1      26.740  -1.522  53.426  1.00  0.00     0.054 C 
HETATM   18  C14 UNL     1      26.045  -0.355  53.961  1.00  0.00     0.119 C 
BRANCH  16  19
HETATM   19  N6  UNL     1      28.467  -2.988  52.813  1.00  0.00     0.083 N 
HETATM   20  H20 UNL     1      28.939  -3.085  51.878  1.00  0.00     0.313 HD
HETATM   21  H21 UNL     1      29.167  -3.285  53.531  1.00  0.00     0.313 HD
ENDBRANCH  16  19
ENDBRANCH   8  10
BRANCH   1  22
HETATM   22  N1  UNL     1      22.972   0.072  53.839  1.00  0.00    -0.381 N 
HETATM   23  C1  UNL     1      21.812  -0.519  54.492  1.00  0.00     0.147 C 
HETATM   24  H4  UNL     1      23.850  -0.032  54.428  1.00  0.00     0.160 HD
ENDBRANCH   1  22
TORSDOF 3
ENDMDL
MODEL 2
REMARK VINA RESULT:      -7.4      2.735      5.863
REMARK  3 active torsions:
REMARK  status: ('A' for Active; 'I' for Inactive)
REMARK    1  A    between atoms: N1_2  and  C2_3 
REMARK    2  A    between atoms: C6_10  and  N5_11 
REMARK    3  A    between atoms: C12_17  and  N6_18 
ROOT
HETATM    1  C2  UNL     1      21.681   0.167  53.708  1.00  0.00     0.128 C 
HETATM    2  N2  UNL     1      21.645  -0.626  54.743  1.00  0.00    -0.225 NA
HETATM    3  C3  UNL     1      22.836  -1.237  55.232  1.00  0.00     0.257 C 
HETATM    4  N3  UNL     1      23.974  -0.988  54.634  1.00  0.00    -0.165 NA
HETATM    5  N4  UNL     1      24.031  -0.128  53.534  1.00  0.00    -0.266 N 
HETATM    6  C4  UNL     1      25.044   0.484  52.694  1.00  0.00     0.111 C 
HETATM    7  C5  UNL     1      24.619   1.684  52.206  1.00  0.00     0.019 C 
HETATM    8  C6  UNL     1      23.253   1.904  52.732  1.00  0.00     0.136 C 
HETATM    9  C15 UNL     1      22.832   0.467  52.920  1.00  0.00     0.204 C 
ENDROOT
BRANCH   8  10
HETATM   10  N5  UNL     1      22.450   2.662  51.908  1.00  0.00    -0.402 N 
HETATM   11  C7  UNL     1      21.870   2.171  50.720  1.00  0.00     0.117 C 
HETATM   12  C8  UNL     1      22.902   2.061  49.603  1.00  0.00     0.019 C 
HETATM   13  C9  UNL     1      23.664   3.377  49.508  1.00  0.00     0.002 C 
HETATM   14  C10 UNL     1      22.770   4.541  49.381  1.00  0.00     0.002 C 
HETATM   15  C11 UNL     1      23.385   5.793  49.998  1.00  0.00     0.035 C 
HETATM   16  C12 UNL     1      23.852   5.511  51.396  1.00  0.00     0.219 C 
HETATM   17  C13 UNL     1      22.911   5.085  52.426  1.00  0.00     0.054 C 
HETATM   18  C14 UNL     1      22.000   3.952  52.296  1.00  0.00     0.119 C 
BRANCH  16  19
HETATM   19  N6  UNL     1      24.365   6.839  51.861  1.00  0.00     0.083 N 
HETATM   20  H20 UNL     1      23.574   7.533  51.849  1.00  0.00     0.313 HD
HETATM   21  H21 UNL     1      24.656   6.741  52.861  1.00  0.00     0.313 HD
ENDBRANCH  16  19
ENDBRANCH   8  10
BRANCH   1  22
HETATM   22  N1  UNL     1      20.380   0.646  53.430  1.00  0.00    -0.381 N 
HETATM   23  C1  UNL     1      19.325  -0.048  52.705  1.00  0.00     0.147 C 
HETATM   24  H4  UNL     1      20.068   1.609  53.752  1.00  0.00     0.160 HD
ENDBRANCH   1  22
TORSDOF 3
ENDMDL
MODEL 3
REMARK VINA RESULT:      -6.9      2.860      5.244
REMARK  3 active torsions:
REMARK  status: ('A' for Active; 'I' for Inactive)
REMARK    1  A    between atoms: N1_2  and  C2_3 
REMARK    2  A    between atoms: C6_10  and  N5_11 
REMARK    3  A    between atoms: C12_17  and  N6_18 
ROOT
HETATM    1  C2  UNL     1      25.341   5.259  50.034  1.00  0.00     0.128 C 
HETATM    2  N2  UNL     1      25.749   6.487  49.870  1.00  0.00    -0.225 NA
HETATM    3  C3  UNL     1      25.011   7.576  50.415  1.00  0.00     0.257 C 
HETATM    4  N3  UNL     1      23.917   7.332  51.093  1.00  0.00    -0.165 NA
HETATM    5  N4  UNL     1      23.477   6.021  51.291  1.00  0.00    -0.266 N 
HETATM    6  C4  UNL     1      22.441   5.332  52.040  1.00  0.00     0.111 C 
HETATM    7  C5  UNL     1      22.837   4.073  52.381  1.00  0.00     0.019 C 
HETATM    8  C6  UNL     1      24.203   3.888  51.842  1.00  0.00     0.136 C 
HETATM    9  C15 UNL     1      24.137   4.854  50.684  1.00  0.00     0.204 C 
ENDROOT
BRANCH   8  10
HETATM   10  N5  UNL     1      24.508   2.584  51.520  1.00  0.00    -0.402 N 
HETATM   11  C7  UNL     1      23.585   1.689  50.939  1.00  0.00     0.117 C 
HETATM   12  C8  UNL     1      22.572   1.193  51.965  1.00  0.00     0.019 C 
HETATM   13  C9  UNL     1      23.323   0.708  53.199  1.00  0.00     0.002 C 
HETATM   14  C10 UNL     1      24.373  -0.273  52.874  1.00  0.00     0.002 C 
HETATM   15  C11 UNL     1      25.532  -0.206  53.864  1.00  0.00     0.035 C 
HETATM   16  C12 UNL     1      26.017   1.207  54.004  1.00  0.00     0.219 C 
HETATM   17  C13 UNL     1      26.545   1.933  52.855  1.00  0.00     0.054 C 
HETATM   18  C14 UNL     1      25.840   2.097  51.586  1.00  0.00     0.119 C 
BRANCH  16  19
HETATM   19  N6  UNL     1      27.172   1.081  54.949  1.00  0.00     0.083 N 
HETATM   20  H20 UNL     1      27.703   1.988  54.960  1.00  0.00     0.313 HD
HETATM   21  H21 UNL     1      26.787   0.953  55.914  1.00  0.00     0.313 HD
ENDBRANCH  16  19
ENDBRANCH   8  10
BRANCH   1  22
HETATM   22  N1  UNL     1      26.246   4.369  49.408  1.00  0.00    -0.381 N 
HETATM   23  C1  UNL     1      27.481   4.715  48.719  1.00  0.00     0.147 C 
HETATM   24  H4  UNL     1      26.068   3.322  49.397  1.00  0.00     0.160 HD
ENDBRANCH   1  22
TORSDOF 3
ENDMDL
MODEL 4
REMARK VINA RESULT:      -6.9      2.781      6.560
REMARK  3 active torsions:
REMARK  status: ('A' for Active; 'I' for Inactive)
REMARK    1  A    between atoms: N1_2  and  C2_3 
REMARK    2  A    between atoms: C6_10  and  N5_11 
REMARK    3  A    between atoms: C12_17  and  N6_18 
ROOT
HETATM    1  C2  UNL     1      25.217   1.379  52.927  1.00  0.00     0.128 C 
HETATM    2  N2  UNL     1      26.168   1.094  53.772  1.00  0.00    -0.225 NA
HETATM    3  C3  UNL     1      27.513   1.485  53.512  1.00  0.00     0.257 C 
HETATM    4  N3  UNL     1      27.786   2.144  52.414  1.00  0.00    -0.165 NA
HETATM    5  N4  UNL     1      26.774   2.472  51.507  1.00  0.00    -0.266 N 
HETATM    6  C4  UNL     1      26.625   3.254  50.293  1.00  0.00     0.111 C 
HETATM    7  C5  UNL     1      25.360   3.749  50.180  1.00  0.00     0.019 C 
HETATM    8  C6  UNL     1      24.607   3.286  51.367  1.00  0.00     0.136 C 
HETATM    9  C15 UNL     1      25.380   2.025  51.666  1.00  0.00     0.204 C 
ENDROOT
BRANCH   8  10
HETATM   10  N5  UNL     1      23.256   3.123  51.146  1.00  0.00    -0.402 N 
HETATM   11  C7  UNL     1      22.722   2.167  50.258  1.00  0.00     0.117 C 
HETATM   12  C8  UNL     1      22.901   2.597  48.806  1.00  0.00     0.019 C 
HETATM   13  C9  UNL     1      22.411   4.032  48.656  1.00  0.00     0.002 C 
HETATM   14  C10 UNL     1      21.042   4.218  49.168  1.00  0.00     0.002 C 
HETATM   15  C11 UNL     1      20.826   5.634  49.693  1.00  0.00     0.035 C 
HETATM   16  C12 UNL     1      21.912   6.005  50.659  1.00  0.00     0.219 C 
HETATM   17  C13 UNL     1      22.111   5.243  51.887  1.00  0.00     0.054 C 
HETATM   18  C14 UNL     1      22.291   3.795  51.942  1.00  0.00     0.119 C 
BRANCH  16  19
HETATM   19  N6  UNL     1      21.517   7.377  51.111  1.00  0.00     0.083 N 
HETATM   20  H20 UNL     1      22.291   8.048  50.875  1.00  0.00     0.313 HD
HETATM   21  H21 UNL     1      20.686   7.675  50.551  1.00  0.00     0.313 HD
ENDBRANCH  16  19
ENDBRANCH   8  10
BRANCH   1  22
HETATM   22  N1  UNL     1      23.983   0.892  53.418  1.00  0.00    -0.381 N 
HETATM   23  C1  UNL     1      23.434  -0.446  53.240  1.00  0.00     0.147 C 
HETATM   24  H4  UNL     1      23.332   1.512  53.983  1.00  0.00     0.160 HD
ENDBRANCH   1  22
TORSDOF 3
ENDMDL
MODEL 5
REMARK VINA RESULT:      -6.9      2.365      6.707
REMARK  3 active torsions:
REMARK  status: ('A' for Active; 'I' for Inactive)
REMARK    1  A    between atoms: N1_2  and  C2_3 
REMARK    2  A    between atoms: C6_10  and  N5_11 
REMARK    3  A    between atoms: C12_17  and  N6_18 
ROOT
HETATM    1  C2  UNL     1      26.172   2.122  51.846  1.00  0.00     0.128 C 
HETATM    2  N2  UNL     1      27.194   1.342  52.068  1.00  0.00    -0.225 NA
HETATM    3  C3  UNL     1      27.029   0.109  52.763  1.00  0.00     0.257 C 
HETATM    4  N3  UNL     1      25.836  -0.240  53.172  1.00  0.00    -0.165 NA
HETATM    5  N4  UNL     1      24.729   0.578  52.928  1.00  0.00    -0.266 N 
HETATM    6  C4  UNL     1      23.287   0.521  53.092  1.00  0.00     0.111 C 
HETATM    7  C5  UNL     1      22.655   1.270  52.145  1.00  0.00     0.019 C 
HETATM    8  C6  UNL     1      23.707   1.870  51.295  1.00  0.00     0.136 C 
HETATM    9  C15 UNL     1      24.836   1.903  52.296  1.00  0.00     0.204 C 
ENDROOT
BRANCH   8  10
HETATM   10  N5  UNL     1      23.359   3.083  50.742  1.00  0.00    -0.402 N 
HETATM   11  C7  UNL     1      23.390   4.300  51.454  1.00  0.00     0.117 C 
HETATM   12  C8  UNL     1      22.216   4.410  52.420  1.00  0.00     0.019 C 
HETATM   13  C9  UNL     1      20.932   4.080  51.668  1.00  0.00     0.002 C 
HETATM   14  C10 UNL     1      20.772   4.881  50.442  1.00  0.00     0.002 C 
HETATM   15  C11 UNL     1      19.988   4.125  49.374  1.00  0.00     0.035 C 
HETATM   16  C12 UNL     1      20.577   2.763  49.159  1.00  0.00     0.219 C 
HETATM   17  C13 UNL     1      21.954   2.608  48.704  1.00  0.00     0.054 C 
HETATM   18  C14 UNL     1      23.112   3.218  49.351  1.00  0.00     0.119 C 
BRANCH  16  19
HETATM   19  N6  UNL     1      19.736   2.194  48.059  1.00  0.00     0.083 N 
HETATM   20  H20 UNL     1      19.807   2.820  47.218  1.00  0.00     0.313 HD
HETATM   21  H21 UNL     1      20.149   1.274  47.779  1.00  0.00     0.313 HD
ENDBRANCH  16  19
ENDBRANCH   8  10
BRANCH   1  22
HETATM   22  N1  UNL     1      26.596   3.270  51.138  1.00  0.00    -0.381 N 
HETATM   23  C1  UNL     1      26.677   3.430  49.693  1.00  0.00     0.147 C 
HETATM   24  H4  UNL     1      26.905   4.149  51.649  1.00  0.00     0.160 HD
ENDBRANCH   1  22
TORSDOF 3
ENDMDL
MODEL 6
REMARK VINA RESULT:      -6.6      8.420     10.220
REMARK  3 active torsions:
REMARK  status: ('A' for Active; 'I' for Inactive)
REMARK    1  A    between atoms: N1_2  and  C2_3 
REMARK    2  A    between atoms: C6_10  and  N5_11 
REMARK    3  A    between atoms: C12_17  and  N6_18 
ROOT
HETATM    1  C2  UNL     1      28.781   9.427  49.427  1.00  0.00     0.128 C 
HETATM    2  N2  UNL     1      27.786   9.717  50.218  1.00  0.00    -0.225 NA
HETATM    3  C3  UNL     1      26.666   8.843  50.326  1.00  0.00     0.257 C 
HETATM    4  N3  UNL     1      26.647   7.738  49.625  1.00  0.00    -0.165 NA
HETATM    5  N4  UNL     1      27.714   7.406  48.785  1.00  0.00    -0.266 N 
HETATM    6  C4  UNL     1      28.134   6.282  47.967  1.00  0.00     0.111 C 
HETATM    7  C5  UNL     1      29.493   6.221  47.878  1.00  0.00     0.019 C 
HETATM    8  C6  UNL     1      30.029   7.351  48.669  1.00  0.00     0.136 C 
HETATM    9  C15 UNL     1      28.861   8.300  48.556  1.00  0.00     0.204 C 
ENDROOT
BRANCH   8  10
HETATM   10  N5  UNL     1      31.238   7.831  48.213  1.00  0.00    -0.402 N 
HETATM   11  C7  UNL     1      31.364   8.705  47.113  1.00  0.00     0.117 C 
HETATM   12  C8  UNL     1      31.165   7.969  45.793  1.00  0.00     0.019 C 
HETATM   13  C9  UNL     1      32.041   6.723  45.790  1.00  0.00     0.002 C 
HETATM   14  C10 UNL     1      33.450   7.022  46.100  1.00  0.00     0.002 C 
HETATM   15  C11 UNL     1      34.134   5.849  46.796  1.00  0.00     0.035 C 
HETATM   16  C12 UNL     1      33.319   5.391  47.968  1.00  0.00     0.219 C 
HETATM   17  C13 UNL     1      33.036   6.292  49.080  1.00  0.00     0.054 C 
HETATM   18  C14 UNL     1      32.440   7.617  48.938  1.00  0.00     0.119 C 
BRANCH  16  19
HETATM   19  N6  UNL     1      34.151   4.294  48.558  1.00  0.00     0.083 N 
HETATM   20  H20 UNL     1      33.553   3.436  48.670  1.00  0.00     0.313 HD
HETATM   21  H21 UNL     1      34.897   4.047  47.867  1.00  0.00     0.313 HD
ENDBRANCH  16  19
ENDBRANCH   8  10
BRANCH   1  22
HETATM   22  N1  UNL     1      29.763  10.442  49.506  1.00  0.00    -0.381 N 
HETATM   23  C1  UNL     1      29.793  11.694  48.762  1.00  0.00     0.147 C 
HETATM   24  H4  UNL     1      30.599  10.349  50.155  1.00  0.00     0.160 HD
ENDBRANCH   1  22
TORSDOF 3
ENDMDL
MODEL 7
REMARK VINA RESULT:      -6.5      2.471      5.878
REMARK  3 active torsions:
REMARK  status: ('A' for Active; 'I' for Inactive)
REMARK    1  A    between atoms: N1_2  and  C2_3 
REMARK    2  A    between atoms: C6_10  and  N5_11 
REMARK    3  A    between atoms: C12_17  and  N6_18 
ROOT
HETATM    1  C2  UNL     1      23.285   0.171  53.282  1.00  0.00     0.128 C 
HETATM    2  N2  UNL     1      22.972  -1.025  53.697  1.00  0.00    -0.225 NA
HETATM    3  C3  UNL     1      21.615  -1.376  53.947  1.00  0.00     0.257 C 
HETATM    4  N3  UNL     1      20.677  -0.484  53.749  1.00  0.00    -0.165 NA
HETATM    5  N4  UNL     1      20.995   0.797  53.289  1.00  0.00    -0.266 N 
HETATM    6  C4  UNL     1      20.295   1.990  52.845  1.00  0.00     0.111 C 
HETATM    7  C5  UNL     1      21.037   2.685  51.937  1.00  0.00     0.019 C 
HETATM    8  C6  UNL     1      22.302   1.939  51.750  1.00  0.00     0.136 C 
HETATM    9  C15 UNL     1      22.380   1.257  53.094  1.00  0.00     0.204 C 
ENDROOT
BRANCH   8  10
HETATM   10  N5  UNL     1      23.378   2.734  51.416  1.00  0.00    -0.402 N 
HETATM   11  C7  UNL     1      24.061   3.548  52.342  1.00  0.00     0.117 C 
HETATM   12  C8  UNL     1      23.255   4.795  52.687  1.00  0.00     0.019 C 
HETATM   13  C9  UNL     1      22.796   5.455  51.392  1.00  0.00     0.002 C 
HETATM   14  C10 UNL     1      23.909   5.703  50.458  1.00  0.00     0.002 C 
HETATM   15  C11 UNL     1      23.447   5.650  49.005  1.00  0.00     0.035 C 
HETATM   16  C12 UNL     1      22.682   4.386  48.746  1.00  0.00     0.219 C 
HETATM   17  C13 UNL     1      23.311   3.083  48.921  1.00  0.00     0.054 C 
HETATM   18  C14 UNL     1      23.991   2.649  50.138  1.00  0.00     0.119 C 
BRANCH  16  19
HETATM   19  N6  UNL     1      22.361   4.472  47.286  1.00  0.00     0.083 N 
HETATM   20  H20 UNL     1      21.331   4.306  47.154  1.00  0.00     0.313 HD
HETATM   21  H21 UNL     1      22.545   5.453  46.972  1.00  0.00     0.313 HD
ENDBRANCH  16  19
ENDBRANCH   8  10
BRANCH   1  22
HETATM   22  N1  UNL     1      24.685   0.261  53.103  1.00  0.00    -0.381 N 
HETATM   23  C1  UNL     1      25.688  -0.708  53.521  1.00  0.00     0.147 C 
HETATM   24  H4  UNL     1      25.125   1.100  52.621  1.00  0.00     0.160 HD
ENDBRANCH   1  22
TORSDOF 3
ENDMDL
MODEL 8
REMARK VINA RESULT:      -6.4      3.776      6.389
REMARK  3 active torsions:
REMARK  status: ('A' for Active; 'I' for Inactive)
REMARK    1  A    between atoms: N1_2  and  C2_3 
REMARK    2  A    between atoms: C6_10  and  N5_11 
REMARK    3  A    between atoms: C12_17  and  N6_18 
ROOT
HETATM    1  C2  UNL     1      24.905   5.200  49.947  1.00  0.00     0.128 C 
HETATM    2  N2  UNL     1      25.635   6.278  50.018  1.00  0.00    -0.225 NA
HETATM    3  C3  UNL     1      25.095   7.488  50.540  1.00  0.00     0.257 C 
HETATM    4  N3  UNL     1      23.854   7.508  50.956  1.00  0.00    -0.165 NA
HETATM    5  N4  UNL     1      23.064   6.356  50.901  1.00  0.00    -0.266 N 
HETATM    6  C4  UNL     1      21.749   5.928  51.343  1.00  0.00     0.111 C 
HETATM    7  C5  UNL     1      21.729   4.589  51.598  1.00  0.00     0.019 C 
HETATM    8  C6  UNL     1      23.088   4.075  51.316  1.00  0.00     0.136 C 
HETATM    9  C15 UNL     1      23.525   5.096  50.295  1.00  0.00     0.204 C 
ENDROOT
BRANCH   8  10
HETATM   10  N5  UNL     1      23.116   2.761  50.901  1.00  0.00    -0.402 N 
HETATM   11  C7  UNL     1      22.801   2.352  49.589  1.00  0.00     0.117 C 
HETATM   12  C8  UNL     1      21.297   2.392  49.340  1.00  0.00     0.019 C 
HETATM   13  C9  UNL     1      20.593   1.665  50.480  1.00  0.00     0.002 C 
HETATM   14  C10 UNL     1      21.126   0.308  50.699  1.00  0.00     0.002 C 
HETATM   15  C11 UNL     1      21.002  -0.115  52.160  1.00  0.00     0.035 C 
HETATM   16  C12 UNL     1      21.579   0.938  53.059  1.00  0.00     0.219 C 
HETATM   17  C13 UNL     1      22.984   1.316  52.962  1.00  0.00     0.054 C 
HETATM   18  C14 UNL     1      23.644   1.735  51.729  1.00  0.00     0.119 C 
BRANCH  16  19
HETATM   19  N6  UNL     1      21.429   0.342  54.425  1.00  0.00     0.083 N 
HETATM   20  H20 UNL     1      21.811   1.017  55.134  1.00  0.00     0.313 HD
HETATM   21  H21 UNL     1      20.407   0.249  54.627  1.00  0.00     0.313 HD
ENDBRANCH  16  19
ENDBRANCH   8  10
BRANCH   1  22
HETATM   22  N1  UNL     1      25.670   4.141  49.405  1.00  0.00    -0.381 N 
HETATM   23  C1  UNL     1      26.627   3.299  50.109  1.00  0.00     0.147 C 
HETATM   24  H4  UNL     1      25.594   3.876  48.379  1.00  0.00     0.160 HD
ENDBRANCH   1  22
TORSDOF 3
ENDMDL
MODEL 9
REMARK VINA RESULT:      -6.4     10.824     12.755
REMARK  3 active torsions:
REMARK  status: ('A' for Active; 'I' for Inactive)
REMARK    1  A    between atoms: N1_2  and  C2_3 
REMARK    2  A    between atoms: C6_10  and  N5_11 
REMARK    3  A    between atoms: C12_17  and  N6_18 
ROOT
HETATM    1  C2  UNL     1      33.567   4.684  46.161  1.00  0.00     0.128 C 
HETATM    2  N2  UNL     1      33.667   3.397  46.347  1.00  0.00    -0.225 NA
HETATM    3  C3  UNL     1      34.440   2.877  47.425  1.00  0.00     0.257 C 
HETATM    4  N3  UNL     1      35.046   3.708  48.236  1.00  0.00    -0.165 NA
HETATM    5  N4  UNL     1      34.935   5.089  48.059  1.00  0.00    -0.266 N 
HETATM    6  C4  UNL     1      35.322   6.302  48.757  1.00  0.00     0.111 C 
HETATM    7  C5  UNL     1      34.447   7.316  48.503  1.00  0.00     0.019 C 
HETATM    8  C6  UNL     1      33.416   6.778  47.588  1.00  0.00     0.136 C 
HETATM    9  C15 UNL     1      34.228   5.696  46.919  1.00  0.00     0.204 C 
ENDROOT
BRANCH   8  10
HETATM   10  N5  UNL     1      32.863   7.720  46.749  1.00  0.00    -0.402 N 
HETATM   11  C7  UNL     1      33.559   8.307  45.671  1.00  0.00     0.117 C 
HETATM   12  C8  UNL     1      34.567   9.341  46.158  1.00  0.00     0.019 C 
HETATM   13  C9  UNL     1      33.870  10.286  47.128  1.00  0.00     0.002 C 
HETATM   14  C10 UNL     1      32.641  10.872  46.563  1.00  0.00     0.002 C 
HETATM   15  C11 UNL     1      31.613  11.178  47.647  1.00  0.00     0.035 C 
HETATM   16  C12 UNL     1      31.391   9.972  48.512  1.00  0.00     0.219 C 
HETATM   17  C13 UNL     1      30.886   8.728  47.944  1.00  0.00     0.054 C 
HETATM   18  C14 UNL     1      31.480   8.038  46.803  1.00  0.00     0.119 C 
BRANCH  16  19
HETATM   19  N6  UNL     1      30.330  10.425  49.467  1.00  0.00     0.083 N 
HETATM   20  H20 UNL     1      29.392  10.128  49.098  1.00  0.00     0.313 HD
HETATM   21  H21 UNL     1      30.468   9.913  50.369  1.00  0.00     0.313 HD
ENDBRANCH  16  19
ENDBRANCH   8  10
BRANCH   1  22
HETATM   22  N1  UNL     1      32.744   4.940  45.039  1.00  0.00    -0.381 N 
HETATM   23  C1  UNL     1      33.169   5.080  43.653  1.00  0.00     0.147 C 
HETATM   24  H4  UNL     1      31.693   5.057  45.143  1.00  0.00     0.160 HD
ENDBRANCH   1  22
TORSDOF 3
ENDMDL
