MODEL 1
REMARK VINA RESULT:      -8.3      0.000      0.000
REMARK  5 active torsions:
REMARK  status: ('A' for Active; 'I' for Inactive)
REMARK    1  A    between atoms: C3_3  and  O1_4 
REMARK    2  A    between atoms: O1_4  and  C4_5 
REMARK    3  A    between atoms: N2_11  and  C9_12 
REMARK    4  A    between atoms: C13_16  and  N3_17 
REMARK    5  A    between atoms: N3_17  and  C14_18 
ROOT
HETATM    1  C9  UNL     1      22.445   1.219  52.048  1.00  0.00     0.034 A 
HETATM    2  C10 UNL     1      21.849   0.795  50.883  1.00  0.00     0.029 A 
HETATM    3  C11 UNL     1      22.031   1.548  49.753  1.00  0.00     0.004 A 
HETATM    4  C12 UNL     1      22.791   2.695  49.796  1.00  0.00     0.030 A 
HETATM    5  C13 UNL     1      23.404   3.156  50.938  1.00  0.00     0.051 A 
HETATM    6  C18 UNL     1      23.188   2.361  52.043  1.00  0.00     0.059 A 
ENDROOT
BRANCH   1   7
HETATM    7  N2  UNL     1      22.256   0.435  53.226  1.00  0.00    -0.347 N 
HETATM    8  C3  UNL     1      23.009  -0.538  54.032  1.00  0.00     0.254 C 
HETATM    9  C2  UNL     1      22.004  -1.659  54.110  1.00  0.00     0.024 C 
HETATM   10  C1  UNL     1      20.811  -1.081  54.136  1.00  0.00    -0.007 C 
HETATM   11  C19 UNL     1      21.081   0.386  54.075  1.00  0.00     0.153 C 
BRANCH   8  12
HETATM   12  O1  UNL     1      24.197  -0.947  53.447  1.00  0.00    -0.321 OA
BRANCH  12  13
HETATM   13  C4  UNL     1      25.392  -0.316  53.728  1.00  0.00     0.089 A 
HETATM   14  C5  UNL     1      25.990   0.059  52.519  1.00  0.00     0.040 A 
HETATM   15  C6  UNL     1      27.223   0.724  52.506  1.00  0.00     0.022 A 
HETATM   16  C7  UNL     1      27.803   0.982  53.726  1.00  0.00     0.116 A 
HETATM   17  N1  UNL     1      27.234   0.625  54.885  1.00  0.00    -0.270 NA
HETATM   18  C8  UNL     1      26.055  -0.010  54.893  1.00  0.00     0.152 A 
ENDBRANCH  12  13
ENDBRANCH   8  12
ENDBRANCH   1   7
BRANCH   5  19
HETATM   19  N3  UNL     1      24.198   4.321  51.063  1.00  0.00    -0.188 N 
HETATM   20  H11 UNL     1      23.975   4.964  51.866  1.00  0.00     0.184 HD
BRANCH  19  21
HETATM   21  C14 UNL     1      25.266   4.726  50.229  1.00  0.00     0.726 A 
HETATM   22  N4  UNL     1      25.380   5.996  49.852  1.00  0.00    -0.075 NA
HETATM   23  C15 UNL     1      26.335   6.511  49.070  1.00  0.00     0.138 A 
HETATM   24  C16 UNL     1      27.315   5.676  48.587  1.00  0.00     0.040 A 
HETATM   25  C17 UNL     1      27.236   4.351  48.951  1.00  0.00     0.138 A 
HETATM   26  N5  UNL     1      26.235   3.946  49.740  1.00  0.00    -0.075 NA
ENDBRANCH  19  21
ENDBRANCH   5  19
TORSDOF 5
ENDMDL
MODEL 2
REMARK VINA RESULT:      -8.1      1.584      5.425
REMARK  5 active torsions:
REMARK  status: ('A' for Active; 'I' for Inactive)
REMARK    1  A    between atoms: C3_3  and  O1_4 
REMARK    2  A    between atoms: O1_4  and  C4_5 
REMARK    3  A    between atoms: N2_11  and  C9_12 
REMARK    4  A    between atoms: C13_16  and  N3_17 
REMARK    5  A    between atoms: N3_17  and  C14_18 
ROOT
HETATM    1  C9  UNL     1      22.729   0.065  52.940  1.00  0.00     0.034 A 
HETATM    2  C10 UNL     1      21.693  -0.412  53.709  1.00  0.00     0.029 A 
HETATM    3  C11 UNL     1      21.999  -1.024  54.896  1.00  0.00     0.004 A 
HETATM    4  C12 UNL     1      23.310  -1.150  55.297  1.00  0.00     0.030 A 
HETATM    5  C13 UNL     1      24.375  -0.687  54.561  1.00  0.00     0.051 A 
HETATM    6  C18 UNL     1      24.011  -0.081  53.378  1.00  0.00     0.059 A 
ENDROOT
BRANCH   1   7
HETATM    7  N2  UNL     1      22.411   0.703  51.703  1.00  0.00    -0.347 N 
HETATM    8  C3  UNL     1      22.879   1.845  50.902  1.00  0.00     0.254 C 
HETATM    9  C2  UNL     1      21.574   2.562  50.668  1.00  0.00     0.024 C 
HETATM   10  C1  UNL     1      20.646   1.618  50.579  1.00  0.00    -0.007 C 
HETATM   11  C19 UNL     1      21.378   0.328  50.757  1.00  0.00     0.153 C 
BRANCH   8  12
HETATM   12  O1  UNL     1      23.800   2.647  51.558  1.00  0.00    -0.321 OA
BRANCH  12  13
HETATM   13  C4  UNL     1      24.575   3.559  50.873  1.00  0.00     0.089 A 
HETATM   14  C5  UNL     1      25.643   2.875  50.279  1.00  0.00     0.040 A 
HETATM   15  C6  UNL     1      26.596   3.559  49.515  1.00  0.00     0.022 A 
HETATM   16  C7  UNL     1      26.428   4.918  49.383  1.00  0.00     0.116 A 
HETATM   17  N1  UNL     1      25.408   5.577  49.949  1.00  0.00    -0.270 NA
HETATM   18  C8  UNL     1      24.498   4.918  50.679  1.00  0.00     0.152 A 
ENDBRANCH  12  13
ENDBRANCH   8  12
ENDBRANCH   1   7
BRANCH   5  19
HETATM   19  N3  UNL     1      25.746  -0.777  54.903  1.00  0.00    -0.188 N 
HETATM   20  H11 UNL     1      26.036  -1.601  55.490  1.00  0.00     0.184 HD
BRANCH  19  21
HETATM   21  C14 UNL     1      26.781   0.118  54.544  1.00  0.00     0.726 A 
HETATM   22  N4  UNL     1      28.049  -0.284  54.554  1.00  0.00    -0.075 NA
HETATM   23  C15 UNL     1      29.119   0.455  54.239  1.00  0.00     0.138 A 
HETATM   24  C16 UNL     1      28.931   1.763  53.863  1.00  0.00     0.040 A 
HETATM   25  C17 UNL     1      27.634   2.222  53.839  1.00  0.00     0.138 A 
HETATM   26  N5  UNL     1      26.639   1.393  54.174  1.00  0.00    -0.075 NA
ENDBRANCH  19  21
ENDBRANCH   5  19
TORSDOF 5
ENDMDL
MODEL 3
REMARK VINA RESULT:      -8.0      2.069      4.531
REMARK  5 active torsions:
REMARK  status: ('A' for Active; 'I' for Inactive)
REMARK    1  A    between atoms: C3_3  and  O1_4 
REMARK    2  A    between atoms: O1_4  and  C4_5 
REMARK    3  A    between atoms: N2_11  and  C9_12 
REMARK    4  A    between atoms: C13_16  and  N3_17 
REMARK    5  A    between atoms: N3_17  and  C14_18 
ROOT
HETATM    1  C9  UNL     1      23.484   3.041  51.240  1.00  0.00     0.034 A 
HETATM    2  C10 UNL     1      23.422   3.214  49.877  1.00  0.00     0.029 A 
HETATM    3  C11 UNL     1      24.601   3.310  49.185  1.00  0.00     0.004 A 
HETATM    4  C12 UNL     1      25.806   3.233  49.846  1.00  0.00     0.030 A 
HETATM    5  C13 UNL     1      25.913   3.060  51.206  1.00  0.00     0.051 A 
HETATM    6  C18 UNL     1      24.699   2.970  51.852  1.00  0.00     0.059 A 
ENDROOT
BRANCH   1   7
HETATM    7  N2  UNL     1      22.257   2.941  51.963  1.00  0.00    -0.347 N 
HETATM    8  C3  UNL     1      21.471   1.909  52.658  1.00  0.00     0.254 C 
HETATM    9  C2  UNL     1      20.125   2.114  52.008  1.00  0.00     0.024 C 
HETATM   10  C1  UNL     1      20.032   3.413  51.757  1.00  0.00    -0.007 C 
HETATM   11  C19 UNL     1      21.313   4.003  52.249  1.00  0.00     0.153 C 
BRANCH   8  12
HETATM   12  O1  UNL     1      21.947   0.622  52.468  1.00  0.00    -0.321 OA
BRANCH  12  13
HETATM   13  C4  UNL     1      22.375  -0.150  53.529  1.00  0.00     0.089 A 
HETATM   14  C5  UNL     1      23.769  -0.056  53.611  1.00  0.00     0.040 A 
HETATM   15  C6  UNL     1      24.476  -0.743  54.605  1.00  0.00     0.022 A 
HETATM   16  C7  UNL     1      23.737  -1.504  55.480  1.00  0.00     0.116 A 
HETATM   17  N1  UNL     1      22.402  -1.598  55.405  1.00  0.00    -0.270 NA
HETATM   18  C8  UNL     1      21.730  -0.937  54.453  1.00  0.00     0.152 A 
ENDBRANCH  12  13
ENDBRANCH   8  12
ENDBRANCH   1   7
BRANCH   5  19
HETATM   19  N3  UNL     1      27.110   2.972  51.958  1.00  0.00    -0.188 N 
HETATM   20  H11 UNL     1      27.739   3.815  51.950  1.00  0.00     0.184 HD
BRANCH  19  21
HETATM   21  C14 UNL     1      27.562   1.873  52.725  1.00  0.00     0.726 A 
HETATM   22  N4  UNL     1      27.328   0.629  52.318  1.00  0.00    -0.075 NA
HETATM   23  C15 UNL     1      27.698  -0.495  52.943  1.00  0.00     0.138 A 
HETATM   24  C16 UNL     1      28.390  -0.396  54.127  1.00  0.00     0.040 A 
HETATM   25  C17 UNL     1      28.653   0.874  54.586  1.00  0.00     0.138 A 
HETATM   26  N5  UNL     1      28.235   1.928  53.878  1.00  0.00    -0.075 NA
ENDBRANCH  19  21
ENDBRANCH   5  19
TORSDOF 5
ENDMDL
MODEL 4
REMARK VINA RESULT:      -7.8      2.596      5.712
REMARK  5 active torsions:
REMARK  status: ('A' for Active; 'I' for Inactive)
REMARK    1  A    between atoms: C3_3  and  O1_4 
REMARK    2  A    between atoms: O1_4  and  C4_5 
REMARK    3  A    between atoms: N2_11  and  C9_12 
REMARK    4  A    between atoms: C13_16  and  N3_17 
REMARK    5  A    between atoms: N3_17  and  C14_18 
ROOT
HETATM    1  C9  UNL     1      23.094   1.162  51.980  1.00  0.00     0.034 A 
HETATM    2  C10 UNL     1      22.655   1.629  50.762  1.00  0.00     0.029 A 
HETATM    3  C11 UNL     1      23.471   2.481  50.066  1.00  0.00     0.004 A 
HETATM    4  C12 UNL     1      24.694   2.850  50.580  1.00  0.00     0.030 A 
HETATM    5  C13 UNL     1      25.171   2.407  51.791  1.00  0.00     0.051 A 
HETATM    6  C18 UNL     1      24.312   1.554  52.448  1.00  0.00     0.059 A 
ENDROOT
BRANCH   1   7
HETATM    7  N2  UNL     1      22.244   0.275  52.707  1.00  0.00    -0.347 N 
HETATM    8  C3  UNL     1      20.845   0.216  53.160  1.00  0.00     0.254 C 
HETATM    9  C2  UNL     1      21.049  -0.089  54.622  1.00  0.00     0.024 C 
HETATM   10  C1  UNL     1      22.133  -0.851  54.691  1.00  0.00    -0.007 C 
HETATM   11  C19 UNL     1      22.593  -1.011  53.279  1.00  0.00     0.153 C 
BRANCH   8  12
HETATM   12  O1  UNL     1      20.147   1.399  52.971  1.00  0.00    -0.321 OA
BRANCH  12  13
HETATM   13  C4  UNL     1      19.184   1.516  51.989  1.00  0.00     0.089 A 
HETATM   14  C5  UNL     1      18.787   0.229  51.604  1.00  0.00     0.040 A 
HETATM   15  C6  UNL     1      17.812   0.047  50.616  1.00  0.00     0.022 A 
HETATM   16  C7  UNL     1      17.277   1.182  50.053  1.00  0.00     0.116 A 
HETATM   17  N1  UNL     1      17.655   2.415  50.418  1.00  0.00    -0.270 NA
HETATM   18  C8  UNL     1      18.587   2.584  51.365  1.00  0.00     0.152 A 
ENDBRANCH  12  13
ENDBRANCH   8  12
ENDBRANCH   1   7
BRANCH   5  19
HETATM   19  N3  UNL     1      26.413   2.739  52.386  1.00  0.00    -0.188 N 
HETATM   20  H11 UNL     1      26.671   3.759  52.409  1.00  0.00     0.184 HD
BRANCH  19  21
HETATM   21  C14 UNL     1      27.354   1.852  52.960  1.00  0.00     0.726 A 
HETATM   22  N4  UNL     1      28.263   2.303  53.818  1.00  0.00    -0.075 NA
HETATM   23  C15 UNL     1      29.206   1.578  54.431  1.00  0.00     0.138 A 
HETATM   24  C16 UNL     1      29.274   0.229  54.173  1.00  0.00     0.040 A 
HETATM   25  C17 UNL     1      28.352  -0.280  53.288  1.00  0.00     0.138 A 
HETATM   26  N5  UNL     1      27.452   0.539  52.734  1.00  0.00    -0.075 NA
ENDBRANCH  19  21
ENDBRANCH   5  19
TORSDOF 5
ENDMDL
MODEL 5
REMARK VINA RESULT:      -7.6      1.972      4.951
REMARK  5 active torsions:
REMARK  status: ('A' for Active; 'I' for Inactive)
REMARK    1  A    between atoms: C3_3  and  O1_4 
REMARK    2  A    between atoms: O1_4  and  C4_5 
REMARK    3  A    between atoms: N2_11  and  C9_12 
REMARK    4  A    between atoms: C13_16  and  N3_17 
REMARK    5  A    between atoms: N3_17  and  C14_18 
ROOT
HETATM    1  C9  UNL     1      23.464   0.183  53.595  1.00  0.00     0.034 A 
HETATM    2  C10 UNL     1      23.053  -0.887  54.355  1.00  0.00     0.029 A 
HETATM    3  C11 UNL     1      21.710  -1.049  54.571  1.00  0.00     0.004 A 
HETATM    4  C12 UNL     1      20.806  -0.159  54.035  1.00  0.00     0.030 A 
HETATM    5  C13 UNL     1      21.172   0.923  53.268  1.00  0.00     0.051 A 
HETATM    6  C18 UNL     1      22.533   1.037  53.084  1.00  0.00     0.059 A 
ENDROOT
BRANCH   1   7
HETATM    7  N2  UNL     1      24.863   0.352  53.370  1.00  0.00    -0.347 N 
HETATM    8  C3  UNL     1      25.749   0.990  52.384  1.00  0.00     0.254 C 
HETATM    9  C2  UNL     1      26.666  -0.162  52.061  1.00  0.00     0.024 C 
HETATM   10  C1  UNL     1      26.790  -0.859  53.183  1.00  0.00    -0.007 C 
HETATM   11  C19 UNL     1      25.954  -0.138  54.189  1.00  0.00     0.153 C 
BRANCH   8  12
HETATM   12  O1  UNL     1      25.088   1.457  51.258  1.00  0.00    -0.321 OA
BRANCH  12  13
HETATM   13  C4  UNL     1      25.167   2.780  50.875  1.00  0.00     0.089 A 
HETATM   14  C5  UNL     1      26.246   2.921  49.994  1.00  0.00     0.040 A 
HETATM   15  C6  UNL     1      26.562   4.170  49.443  1.00  0.00     0.022 A 
HETATM   16  C7  UNL     1      25.768   5.230  49.811  1.00  0.00     0.116 A 
HETATM   17  N1  UNL     1      24.734   5.100  50.654  1.00  0.00    -0.270 NA
HETATM   18  C8  UNL     1      24.435   3.904  51.177  1.00  0.00     0.152 A 
ENDBRANCH  12  13
ENDBRANCH   8  12
ENDBRANCH   1   7
BRANCH   5  19
HETATM   19  N3  UNL     1      20.308   1.880  52.684  1.00  0.00    -0.188 N 
HETATM   20  H11 UNL     1      19.331   1.938  53.072  1.00  0.00     0.184 HD
BRANCH  19  21
HETATM   21  C14 UNL     1      20.606   2.776  51.630  1.00  0.00     0.726 A 
HETATM   22  N4  UNL     1      20.649   4.085  51.855  1.00  0.00    -0.075 NA
HETATM   23  C15 UNL     1      20.917   5.038  50.955  1.00  0.00     0.138 A 
HETATM   24  C16 UNL     1      21.179   4.666  49.658  1.00  0.00     0.040 A 
HETATM   25  C17 UNL     1      21.145   3.319  49.379  1.00  0.00     0.138 A 
HETATM   26  N5  UNL     1      20.865   2.454  50.360  1.00  0.00    -0.075 NA
ENDBRANCH  19  21
ENDBRANCH   5  19
TORSDOF 5
ENDMDL
MODEL 6
REMARK VINA RESULT:      -7.6      2.546      6.351
REMARK  5 active torsions:
REMARK  status: ('A' for Active; 'I' for Inactive)
REMARK    1  A    between atoms: C3_3  and  O1_4 
REMARK    2  A    between atoms: O1_4  and  C4_5 
REMARK    3  A    between atoms: N2_11  and  C9_12 
REMARK    4  A    between atoms: C13_16  and  N3_17 
REMARK    5  A    between atoms: N3_17  and  C14_18 
ROOT
HETATM    1  C9  UNL     1      23.603   2.754  50.696  1.00  0.00     0.034 A 
HETATM    2  C10 UNL     1      22.580   1.874  50.961  1.00  0.00     0.029 A 
HETATM    3  C11 UNL     1      22.621   1.171  52.136  1.00  0.00     0.004 A 
HETATM    4  C12 UNL     1      23.662   1.350  53.019  1.00  0.00     0.030 A 
HETATM    5  C13 UNL     1      24.704   2.219  52.795  1.00  0.00     0.051 A 
HETATM    6  C18 UNL     1      24.613   2.899  51.600  1.00  0.00     0.059 A 
ENDROOT
BRANCH   1   7
HETATM    7  N2  UNL     1      23.561   3.487  49.472  1.00  0.00    -0.347 N 
HETATM    8  C3  UNL     1      24.294   4.585  48.822  1.00  0.00     0.254 C 
HETATM    9  C2  UNL     1      23.147   5.494  48.457  1.00  0.00     0.024 C 
HETATM   10  C1  UNL     1      22.123   4.699  48.176  1.00  0.00    -0.007 C 
HETATM   11  C19 UNL     1      22.638   3.310  48.369  1.00  0.00     0.153 C 
BRANCH   8  12
HETATM   12  O1  UNL     1      25.209   5.214  49.652  1.00  0.00    -0.321 OA
BRANCH  12  13
HETATM   13  C4  UNL     1      26.326   5.844  49.143  1.00  0.00     0.089 A 
HETATM   14  C5  UNL     1      27.290   4.870  48.856  1.00  0.00     0.040 A 
HETATM   15  C6  UNL     1      28.534   5.229  48.323  1.00  0.00     0.022 A 
HETATM   16  C7  UNL     1      28.753   6.569  48.103  1.00  0.00     0.116 A 
HETATM   17  N1  UNL     1      27.833   7.504  48.376  1.00  0.00    -0.270 NA
HETATM   18  C8  UNL     1      26.644   7.156  48.885  1.00  0.00     0.152 A 
ENDBRANCH  12  13
ENDBRANCH   8  12
ENDBRANCH   1   7
BRANCH   5  19
HETATM   19  N3  UNL     1      25.807   2.459  53.650  1.00  0.00    -0.188 N 
HETATM   20  H11 UNL     1      25.719   3.260  54.326  1.00  0.00     0.184 HD
BRANCH  19  21
HETATM   21  C14 UNL     1      27.024   1.740  53.702  1.00  0.00     0.726 A 
HETATM   22  N4  UNL     1      28.128   2.322  54.159  1.00  0.00    -0.075 NA
HETATM   23  C15 UNL     1      29.339   1.762  54.262  1.00  0.00     0.138 A 
HETATM   24  C16 UNL     1      29.498   0.455  53.865  1.00  0.00     0.040 A 
HETATM   25  C17 UNL     1      28.380  -0.187  53.384  1.00  0.00     0.138 A 
HETATM   26  N5  UNL     1      27.218   0.473  53.326  1.00  0.00    -0.075 NA
ENDBRANCH  19  21
ENDBRANCH   5  19
TORSDOF 5
ENDMDL
MODEL 7
REMARK VINA RESULT:      -7.5      3.051      6.654
REMARK  5 active torsions:
REMARK  status: ('A' for Active; 'I' for Inactive)
REMARK    1  A    between atoms: C3_3  and  O1_4 
REMARK    2  A    between atoms: O1_4  and  C4_5 
REMARK    3  A    between atoms: N2_11  and  C9_12 
REMARK    4  A    between atoms: C13_16  and  N3_17 
REMARK    5  A    between atoms: N3_17  and  C14_18 
ROOT
HETATM    1  C9  UNL     1      22.481   0.352  53.082  1.00  0.00     0.034 A 
HETATM    2  C10 UNL     1      21.627  -0.078  54.071  1.00  0.00     0.029 A 
HETATM    3  C11 UNL     1      22.145  -0.838  55.086  1.00  0.00     0.004 A 
HETATM    4  C12 UNL     1      23.485  -1.156  55.105  1.00  0.00     0.030 A 
HETATM    5  C13 UNL     1      24.373  -0.747  54.139  1.00  0.00     0.051 A 
HETATM    6  C18 UNL     1      23.800   0.013  53.143  1.00  0.00     0.059 A 
ENDROOT
BRANCH   1   7
HETATM    7  N2  UNL     1      21.943   1.144  52.024  1.00  0.00    -0.347 N 
HETATM    8  C3  UNL     1      20.762   1.149  51.146  1.00  0.00     0.254 C 
HETATM    9  C2  UNL     1      21.429   1.269  49.799  1.00  0.00     0.024 C 
HETATM   10  C1  UNL     1      22.511   2.013  49.990  1.00  0.00    -0.007 C 
HETATM   11  C19 UNL     1      22.509   2.346  51.446  1.00  0.00     0.153 C 
BRANCH   8  12
HETATM   12  O1  UNL     1      19.990   0.002  51.241  1.00  0.00    -0.321 OA
BRANCH  12  13
HETATM   13  C4  UNL     1      18.640   0.065  51.519  1.00  0.00     0.089 A 
HETATM   14  C5  UNL     1      18.355  -0.853  52.537  1.00  0.00     0.040 A 
HETATM   15  C6  UNL     1      17.049  -1.001  53.022  1.00  0.00     0.022 A 
HETATM   16  C7  UNL     1      16.080  -0.209  52.452  1.00  0.00     0.116 A 
HETATM   17  N1  UNL     1      16.349   0.671  51.477  1.00  0.00    -0.270 NA
HETATM   18  C8  UNL     1      17.599   0.810  51.017  1.00  0.00     0.152 A 
ENDBRANCH  12  13
ENDBRANCH   8  12
ENDBRANCH   1   7
BRANCH   5  19
HETATM   19  N3  UNL     1      25.760  -1.031  54.087  1.00  0.00    -0.188 N 
HETATM   20  H11 UNL     1      26.037  -2.046  54.079  1.00  0.00     0.184 HD
BRANCH  19  21
HETATM   21  C14 UNL     1      26.825  -0.101  54.043  1.00  0.00     0.726 A 
HETATM   22  N4  UNL     1      26.758   0.958  53.242  1.00  0.00    -0.075 NA
HETATM   23  C15 UNL     1      27.688   1.910  53.103  1.00  0.00     0.138 A 
HETATM   24  C16 UNL     1      28.842   1.819  53.844  1.00  0.00     0.040 A 
HETATM   25  C17 UNL     1      28.954   0.736  54.687  1.00  0.00     0.138 A 
HETATM   26  N5  UNL     1      27.959  -0.155  54.745  1.00  0.00    -0.075 NA
ENDBRANCH  19  21
ENDBRANCH   5  19
TORSDOF 5
ENDMDL
MODEL 8
REMARK VINA RESULT:      -7.3      1.982      5.608
REMARK  5 active torsions:
REMARK  status: ('A' for Active; 'I' for Inactive)
REMARK    1  A    between atoms: C3_3  and  O1_4 
REMARK    2  A    between atoms: O1_4  and  C4_5 
REMARK    3  A    between atoms: N2_11  and  C9_12 
REMARK    4  A    between atoms: C13_16  and  N3_17 
REMARK    5  A    between atoms: N3_17  and  C14_18 
ROOT
HETATM    1  C9  UNL     1      23.646  -0.142  53.836  1.00  0.00     0.034 A 
HETATM    2  C10 UNL     1      23.543  -1.250  54.645  1.00  0.00     0.029 A 
HETATM    3  C11 UNL     1      22.290  -1.698  54.969  1.00  0.00     0.004 A 
HETATM    4  C12 UNL     1      21.173  -1.051  54.490  1.00  0.00     0.030 A 
HETATM    5  C13 UNL     1      21.230   0.057  53.678  1.00  0.00     0.051 A 
HETATM    6  C18 UNL     1      22.513   0.466  53.385  1.00  0.00     0.059 A 
ENDROOT
BRANCH   1   7
HETATM    7  N2  UNL     1      24.951   0.327  53.499  1.00  0.00    -0.347 N 
HETATM    8  C3  UNL     1      25.575   1.240  52.529  1.00  0.00     0.254 C 
HETATM    9  C2  UNL     1      26.641   0.339  51.958  1.00  0.00     0.024 C 
HETATM   10  C1  UNL     1      27.030  -0.447  52.953  1.00  0.00    -0.007 C 
HETATM   11  C19 UNL     1      26.207  -0.031  54.129  1.00  0.00     0.153 C 
BRANCH   8  12
HETATM   12  O1  UNL     1      24.705   1.696  51.552  1.00  0.00    -0.321 OA
BRANCH  12  13
HETATM   13  C4  UNL     1      24.543   3.044  51.306  1.00  0.00     0.089 A 
HETATM   14  C5  UNL     1      23.743   3.586  52.319  1.00  0.00     0.040 A 
HETATM   15  C6  UNL     1      23.414   4.948  52.322  1.00  0.00     0.022 A 
HETATM   16  C7  UNL     1      23.912   5.709  51.290  1.00  0.00     0.116 A 
HETATM   17  N1  UNL     1      24.679   5.195  50.319  1.00  0.00    -0.270 NA
HETATM   18  C8  UNL     1      24.991   3.893  50.321  1.00  0.00     0.152 A 
ENDBRANCH  12  13
ENDBRANCH   8  12
ENDBRANCH   1   7
BRANCH   5  19
HETATM   19  N3  UNL     1      20.132   0.777  53.147  1.00  0.00    -0.188 N 
HETATM   20  H11 UNL     1      19.177   0.517  53.502  1.00  0.00     0.184 HD
BRANCH  19  21
HETATM   21  C14 UNL     1      20.170   1.815  52.186  1.00  0.00     0.726 A 
HETATM   22  N4  UNL     1      20.417   1.538  50.910  1.00  0.00    -0.075 NA
HETATM   23  C15 UNL     1      20.482   2.417  49.904  1.00  0.00     0.138 A 
HETATM   24  C16 UNL     1      20.279   3.749  50.176  1.00  0.00     0.040 A 
HETATM   25  C17 UNL     1      20.020   4.081  51.486  1.00  0.00     0.138 A 
HETATM   26  N5  UNL     1      19.979   3.117  52.412  1.00  0.00    -0.075 NA
ENDBRANCH  19  21
ENDBRANCH   5  19
TORSDOF 5
ENDMDL
MODEL 9
REMARK VINA RESULT:      -7.3      2.684      5.834
REMARK  5 active torsions:
REMARK  status: ('A' for Active; 'I' for Inactive)
REMARK    1  A    between atoms: C3_3  and  O1_4 
REMARK    2  A    between atoms: O1_4  and  C4_5 
REMARK    3  A    between atoms: N2_11  and  C9_12 
REMARK    4  A    between atoms: C13_16  and  N3_17 
REMARK    5  A    between atoms: N3_17  and  C14_18 
ROOT
HETATM    1  C9  UNL     1      22.118   0.624  52.543  1.00  0.00     0.034 A 
HETATM    2  C10 UNL     1      21.851  -0.329  53.499  1.00  0.00     0.029 A 
HETATM    3  C11 UNL     1      22.903  -0.841  54.212  1.00  0.00     0.004 A 
HETATM    4  C12 UNL     1      24.186  -0.405  53.970  1.00  0.00     0.030 A 
HETATM    5  C13 UNL     1      24.498   0.544  53.025  1.00  0.00     0.051 A 
HETATM    6  C18 UNL     1      23.405   1.025  52.338  1.00  0.00     0.059 A 
ENDROOT
BRANCH   1   7
HETATM    7  N2  UNL     1      21.023   1.158  51.800  1.00  0.00    -0.347 N 
HETATM    8  C3  UNL     1      20.419   2.470  51.521  1.00  0.00     0.254 C 
HETATM    9  C2  UNL     1      18.981   2.184  51.872  1.00  0.00     0.024 C 
HETATM   10  C1  UNL     1      18.767   0.917  51.541  1.00  0.00    -0.007 C 
HETATM   11  C19 UNL     1      20.066   0.428  50.991  1.00  0.00     0.153 C 
BRANCH   8  12
HETATM   12  O1  UNL     1      20.944   3.500  52.286  1.00  0.00    -0.321 OA
BRANCH  12  13
HETATM   13  C4  UNL     1      21.548   4.594  51.701  1.00  0.00     0.089 A 
HETATM   14  C5  UNL     1      22.861   4.683  52.180  1.00  0.00     0.040 A 
HETATM   15  C6  UNL     1      23.712   5.708  51.749  1.00  0.00     0.022 A 
HETATM   16  C7  UNL     1      23.195   6.607  50.846  1.00  0.00     0.116 A 
HETATM   17  N1  UNL     1      21.940   6.526  50.385  1.00  0.00    -0.270 NA
HETATM   18  C8  UNL     1      21.130   5.543  50.799  1.00  0.00     0.152 A 
ENDBRANCH  12  13
ENDBRANCH   8  12
ENDBRANCH   1   7
BRANCH   5  19
HETATM   19  N3  UNL     1      25.787   1.042  52.717  1.00  0.00    -0.188 N 
HETATM   20  H11 UNL     1      25.838   1.835  52.027  1.00  0.00     0.184 HD
BRANCH  19  21
HETATM   21  C14 UNL     1      27.026   0.596  53.235  1.00  0.00     0.726 A 
HETATM   22  N4  UNL     1      27.555  -0.549  52.814  1.00  0.00    -0.075 NA
HETATM   23  C15 UNL     1      28.712  -1.086  53.217  1.00  0.00     0.138 A 
HETATM   24  C16 UNL     1      29.458  -0.417  54.159  1.00  0.00     0.040 A 
HETATM   25  C17 UNL     1      28.948   0.773  54.623  1.00  0.00     0.138 A 
HETATM   26  N5  UNL     1      27.778   1.215  54.148  1.00  0.00    -0.075 NA
ENDBRANCH  19  21
ENDBRANCH   5  19
TORSDOF 5
ENDMDL
