MODEL 1
REMARK VINA RESULT:      -7.4      0.000      0.000
REMARK  6 active torsions:
REMARK  status: ('A' for Active; 'I' for Inactive)
REMARK    1  A    between atoms: O1_2  and  C2_3 
REMARK    2  A    between atoms: C5_6  and  N1_7 
REMARK    3  A    between atoms: N1_7  and  C6_8 
REMARK    4  A    between atoms: C10_14  and  O2_15 
REMARK    5  A    between atoms: C12_17  and  O3_18 
REMARK    6  A    between atoms: C17_23  and  O4_24 
ROOT
HETATM    1  C6  UNL     1      23.179   1.651  52.072  1.00  0.00     0.142 A 
HETATM    2  N2  UNL     1      22.747   2.924  52.019  1.00  0.00    -0.224 NA
HETATM    3  C7  UNL     1      23.377   3.954  52.613  1.00  0.00     0.236 A 
HETATM    4  N3  UNL     1      24.521   3.728  53.319  1.00  0.00    -0.241 NA
HETATM    5  C8  UNL     1      24.996   2.473  53.404  1.00  0.00     0.075 A 
HETATM    6  C9  UNL     1      26.144   2.171  54.103  1.00  0.00     0.072 A 
HETATM    7  C10 UNL     1      26.596   0.869  54.170  1.00  0.00     0.103 A 
HETATM    8  C12 UNL     1      25.955  -0.188  53.562  1.00  0.00     0.102 A 
HETATM    9  C14 UNL     1      24.806   0.125  52.864  1.00  0.00     0.057 A 
HETATM   10  C15 UNL     1      24.343   1.422  52.789  1.00  0.00     0.042 A 
ENDROOT
BRANCH   1  11
HETATM   11  N1  UNL     1      22.458   0.629  51.424  1.00  0.00    -0.340 N 
HETATM   12  H6  UNL     1      22.758   0.178  50.532  1.00  0.00     0.167 HD
BRANCH  11  13
HETATM   13  C5  UNL     1      21.242   0.165  51.998  1.00  0.00     0.036 A 
HETATM   14  C4  UNL     1      21.307  -0.526  53.199  1.00  0.00     0.032 A 
HETATM   15  C3  UNL     1      20.135  -0.981  53.763  1.00  0.00     0.042 A 
HETATM   16  C2  UNL     1      18.933  -0.759  53.156  1.00  0.00     0.101 A 
HETATM   17  C17 UNL     1      18.815  -0.072  51.954  1.00  0.00     0.103 A 
HETATM   18  C16 UNL     1      20.013   0.374  51.410  1.00  0.00     0.069 A 
BRANCH  16  19
HETATM   19  O1  UNL     1      17.745  -1.209  53.708  1.00  0.00    -0.353 OA
HETATM   20  C1  UNL     1      17.363  -2.554  53.557  1.00  0.00     0.210 C 
ENDBRANCH  16  19
BRANCH  17  21
HETATM   21  O4  UNL     1      17.580   0.136  51.369  1.00  0.00    -0.353 OA
HETATM   22  C18 UNL     1      17.451   0.144  49.979  1.00  0.00     0.210 C 
ENDBRANCH  17  21
ENDBRANCH  11  13
ENDBRANCH   1  11
BRANCH   8  23
HETATM   23  O3  UNL     1      26.530  -1.442  53.718  1.00  0.00    -0.353 OA
HETATM   24  C13 UNL     1      27.136  -2.031  52.583  1.00  0.00     0.210 C 
ENDBRANCH   8  23
BRANCH   7  25
HETATM   25  O2  UNL     1      27.745   0.700  54.893  1.00  0.00    -0.353 OA
HETATM   26  C11 UNL     1      29.040   0.919  54.432  1.00  0.00     0.210 C 
ENDBRANCH   7  25
TORSDOF 6
ENDMDL
MODEL 2
REMARK VINA RESULT:      -7.2      1.882      7.066
REMARK  6 active torsions:
REMARK  status: ('A' for Active; 'I' for Inactive)
REMARK    1  A    between atoms: O1_2  and  C2_3 
REMARK    2  A    between atoms: C5_6  and  N1_7 
REMARK    3  A    between atoms: N1_7  and  C6_8 
REMARK    4  A    between atoms: C10_14  and  O2_15 
REMARK    5  A    between atoms: C12_17  and  O3_18 
REMARK    6  A    between atoms: C17_23  and  O4_24 
ROOT
HETATM    1  C6  UNL     1      24.149   2.799  51.526  1.00  0.00     0.142 A 
HETATM    2  N2  UNL     1      24.566   3.226  50.319  1.00  0.00    -0.224 NA
HETATM    3  C7  UNL     1      23.901   2.992  49.173  1.00  0.00     0.236 A 
HETATM    4  N3  UNL     1      22.737   2.284  49.201  1.00  0.00    -0.241 NA
HETATM    5  C8  UNL     1      22.277   1.833  50.381  1.00  0.00     0.075 A 
HETATM    6  C9  UNL     1      21.110   1.107  50.483  1.00  0.00     0.072 A 
HETATM    7  C10 UNL     1      20.674   0.660  51.714  1.00  0.00     0.103 A 
HETATM    8  C12 UNL     1      21.351   0.898  52.890  1.00  0.00     0.102 A 
HETATM    9  C14 UNL     1      22.519   1.626  52.776  1.00  0.00     0.057 A 
HETATM   10  C15 UNL     1      22.965   2.079  51.554  1.00  0.00     0.042 A 
ENDROOT
BRANCH   1  11
HETATM   11  N1  UNL     1      24.907   3.083  52.680  1.00  0.00    -0.340 N 
HETATM   12  H6  UNL     1      24.826   3.968  53.227  1.00  0.00     0.167 HD
BRANCH  11  13
HETATM   13  C5  UNL     1      25.849   2.125  53.146  1.00  0.00     0.036 A 
HETATM   14  C4  UNL     1      27.102   2.097  52.551  1.00  0.00     0.032 A 
HETATM   15  C3  UNL     1      28.022   1.171  52.995  1.00  0.00     0.042 A 
HETATM   16  C2  UNL     1      27.711   0.299  53.997  1.00  0.00     0.101 A 
HETATM   17  C17 UNL     1      26.471   0.288  54.624  1.00  0.00     0.103 A 
HETATM   18  C16 UNL     1      25.565   1.232  54.156  1.00  0.00     0.069 A 
BRANCH  16  19
HETATM   19  O1  UNL     1      28.622  -0.638  54.455  1.00  0.00    -0.353 OA
HETATM   20  C1  UNL     1      29.787  -0.909  53.715  1.00  0.00     0.210 C 
ENDBRANCH  16  19
BRANCH  17  21
HETATM   21  O4  UNL     1      26.191  -0.610  55.637  1.00  0.00    -0.353 OA
HETATM   22  C18 UNL     1      24.946  -1.239  55.698  1.00  0.00     0.210 C 
ENDBRANCH  17  21
ENDBRANCH  11  13
ENDBRANCH   1  11
BRANCH   8  23
HETATM   23  O3  UNL     1      20.789   0.383  54.050  1.00  0.00    -0.353 OA
HETATM   24  C13 UNL     1      21.401  -0.757  54.625  1.00  0.00     0.210 C 
ENDBRANCH   8  23
BRANCH   7  25
HETATM   25  O2  UNL     1      19.504  -0.048  51.682  1.00  0.00    -0.353 OA
HETATM   26  C11 UNL     1      18.353   0.309  50.985  1.00  0.00     0.210 C 
ENDBRANCH   7  25
TORSDOF 6
ENDMDL
MODEL 3
REMARK VINA RESULT:      -7.1      1.875      7.974
REMARK  6 active torsions:
REMARK  status: ('A' for Active; 'I' for Inactive)
REMARK    1  A    between atoms: O1_2  and  C2_3 
REMARK    2  A    between atoms: C5_6  and  N1_7 
REMARK    3  A    between atoms: N1_7  and  C6_8 
REMARK    4  A    between atoms: C10_14  and  O2_15 
REMARK    5  A    between atoms: C12_17  and  O3_18 
REMARK    6  A    between atoms: C17_23  and  O4_24 
ROOT
HETATM    1  C6  UNL     1      22.933  -0.177  53.396  1.00  0.00     0.142 A 
HETATM    2  N2  UNL     1      23.216  -0.877  54.510  1.00  0.00    -0.224 NA
HETATM    3  C7  UNL     1      22.299  -1.571  55.210  1.00  0.00     0.236 A 
HETATM    4  N3  UNL     1      21.001  -1.586  54.794  1.00  0.00    -0.241 NA
HETATM    5  C8  UNL     1      20.666  -0.901  53.686  1.00  0.00     0.075 A 
HETATM    6  C9  UNL     1      19.373  -0.868  53.210  1.00  0.00     0.072 A 
HETATM    7  C10 UNL     1      19.069  -0.150  52.072  1.00  0.00     0.103 A 
HETATM    8  C12 UNL     1      20.003   0.561  51.352  1.00  0.00     0.102 A 
HETATM    9  C14 UNL     1      21.295   0.521  51.837  1.00  0.00     0.057 A 
HETATM   10  C15 UNL     1      21.613  -0.192  52.973  1.00  0.00     0.042 A 
ENDROOT
BRANCH   1  11
HETATM   11  N1  UNL     1      23.951   0.528  52.724  1.00  0.00    -0.340 N 
HETATM   12  H6  UNL     1      23.775   1.307  52.051  1.00  0.00     0.167 HD
BRANCH  11  13
HETATM   13  C5  UNL     1      25.309   0.175  52.954  1.00  0.00     0.036 A 
HETATM   14  C4  UNL     1      25.754  -1.054  52.488  1.00  0.00     0.032 A 
HETATM   15  C3  UNL     1      27.068  -1.406  52.708  1.00  0.00     0.042 A 
HETATM   16  C2  UNL     1      27.917  -0.568  53.371  1.00  0.00     0.101 A 
HETATM   17  C17 UNL     1      27.520   0.672  53.856  1.00  0.00     0.103 A 
HETATM   18  C16 UNL     1      26.190   1.000  53.620  1.00  0.00     0.069 A 
BRANCH  16  19
HETATM   19  O1  UNL     1      29.240  -0.906  53.601  1.00  0.00    -0.353 OA
HETATM   20  C1  UNL     1      29.672  -2.231  53.413  1.00  0.00     0.210 C 
ENDBRANCH  16  19
BRANCH  17  21
HETATM   21  O4  UNL     1      28.408   1.496  54.522  1.00  0.00    -0.353 OA
HETATM   22  C18 UNL     1      29.077   2.510  53.836  1.00  0.00     0.210 C 
ENDBRANCH  17  21
ENDBRANCH  11  13
ENDBRANCH   1  11
BRANCH   8  23
HETATM   23  O3  UNL     1      19.546   1.235  50.228  1.00  0.00    -0.353 OA
HETATM   24  C13 UNL     1      20.456   1.419  49.159  1.00  0.00     0.210 C 
ENDBRANCH   8  23
BRANCH   7  25
HETATM   25  O2  UNL     1      17.752  -0.197  51.703  1.00  0.00    -0.353 OA
HETATM   26  C11 UNL     1      16.684  -0.532  52.530  1.00  0.00     0.210 C 
ENDBRANCH   7  25
TORSDOF 6
ENDMDL
MODEL 4
REMARK VINA RESULT:      -7.1      4.530      7.913
REMARK  6 active torsions:
REMARK  status: ('A' for Active; 'I' for Inactive)
REMARK    1  A    between atoms: O1_2  and  C2_3 
REMARK    2  A    between atoms: C5_6  and  N1_7 
REMARK    3  A    between atoms: N1_7  and  C6_8 
REMARK    4  A    between atoms: C10_14  and  O2_15 
REMARK    5  A    between atoms: C12_17  and  O3_18 
REMARK    6  A    between atoms: C17_23  and  O4_24 
ROOT
HETATM    1  C6  UNL     1      26.072   2.564  50.935  1.00  0.00     0.142 A 
HETATM    2  N2  UNL     1      27.244   2.622  51.594  1.00  0.00    -0.224 NA
HETATM    3  C7  UNL     1      27.442   2.094  52.816  1.00  0.00     0.236 A 
HETATM    4  N3  UNL     1      26.418   1.457  53.450  1.00  0.00    -0.241 NA
HETATM    5  C8  UNL     1      25.225   1.372  52.835  1.00  0.00     0.075 A 
HETATM    6  C9  UNL     1      24.144   0.746  53.419  1.00  0.00     0.072 A 
HETATM    7  C10 UNL     1      22.936   0.683  52.756  1.00  0.00     0.103 A 
HETATM    8  C12 UNL     1      22.728   1.221  51.505  1.00  0.00     0.102 A 
HETATM    9  C14 UNL     1      23.817   1.845  50.929  1.00  0.00     0.057 A 
HETATM   10  C15 UNL     1      25.030   1.916  51.580  1.00  0.00     0.042 A 
ENDROOT
BRANCH   1  11
HETATM   11  N1  UNL     1      25.946   3.147  49.658  1.00  0.00    -0.340 N 
HETATM   12  H6  UNL     1      25.672   2.618  48.800  1.00  0.00     0.167 HD
BRANCH  11  13
HETATM   13  C5  UNL     1      26.204   4.536  49.500  1.00  0.00     0.036 A 
HETATM   14  C4  UNL     1      27.284   4.916  48.716  1.00  0.00     0.032 A 
HETATM   15  C3  UNL     1      27.544   6.260  48.558  1.00  0.00     0.042 A 
HETATM   16  C2  UNL     1      26.758   7.201  49.158  1.00  0.00     0.101 A 
HETATM   17  C17 UNL     1      25.666   6.871  49.951  1.00  0.00     0.103 A 
HETATM   18  C16 UNL     1      25.429   5.509  50.092  1.00  0.00     0.069 A 
BRANCH  16  19
HETATM   19  O1  UNL     1      27.004   8.556  49.010  1.00  0.00    -0.353 OA
HETATM   20  C1  UNL     1      28.223   9.102  49.451  1.00  0.00     0.210 C 
ENDBRANCH  16  19
BRANCH  17  21
HETATM   21  O4  UNL     1      24.891   7.852  50.541  1.00  0.00    -0.353 OA
HETATM   22  C18 UNL     1      23.591   8.089  50.092  1.00  0.00     0.210 C 
ENDBRANCH  17  21
ENDBRANCH  11  13
ENDBRANCH   1  11
BRANCH   8  23
HETATM   23  O3  UNL     1      21.457   1.079  50.966  1.00  0.00    -0.353 OA
HETATM   24  C13 UNL     1      21.343   1.050  49.555  1.00  0.00     0.210 C 
ENDBRANCH   8  23
BRANCH   7  25
HETATM   25  O2  UNL     1      21.943   0.037  53.440  1.00  0.00    -0.353 OA
HETATM   26  C11 UNL     1      22.104  -0.700  54.610  1.00  0.00     0.210 C 
ENDBRANCH   7  25
TORSDOF 6
ENDMDL
MODEL 5
REMARK VINA RESULT:      -7.1      2.483      3.779
REMARK  6 active torsions:
REMARK  status: ('A' for Active; 'I' for Inactive)
REMARK    1  A    between atoms: O1_2  and  C2_3 
REMARK    2  A    between atoms: C5_6  and  N1_7 
REMARK    3  A    between atoms: N1_7  and  C6_8 
REMARK    4  A    between atoms: C10_14  and  O2_15 
REMARK    5  A    between atoms: C12_17  and  O3_18 
REMARK    6  A    between atoms: C17_23  and  O4_24 
ROOT
HETATM    1  C6  UNL     1      23.063  -0.539  53.244  1.00  0.00     0.142 A 
HETATM    2  N2  UNL     1      22.423  -1.258  54.185  1.00  0.00    -0.224 NA
HETATM    3  C7  UNL     1      22.969  -1.600  55.366  1.00  0.00     0.236 A 
HETATM    4  N3  UNL     1      24.243  -1.212  55.658  1.00  0.00    -0.241 NA
HETATM    5  C8  UNL     1      24.927  -0.491  54.751  1.00  0.00     0.075 A 
HETATM    6  C9  UNL     1      26.219  -0.069  54.977  1.00  0.00     0.072 A 
HETATM    7  C10 UNL     1      26.888   0.666  54.020  1.00  0.00     0.103 A 
HETATM    8  C12 UNL     1      26.333   1.018  52.810  1.00  0.00     0.102 A 
HETATM    9  C14 UNL     1      25.038   0.590  52.593  1.00  0.00     0.057 A 
HETATM   10  C15 UNL     1      24.358  -0.144  53.541  1.00  0.00     0.042 A 
ENDROOT
BRANCH   1  11
HETATM   11  N1  UNL     1      22.420  -0.227  52.030  1.00  0.00    -0.340 N 
HETATM   12  H6  UNL     1      22.632  -0.693  51.120  1.00  0.00     0.167 HD
BRANCH  11  13
HETATM   13  C5  UNL     1      21.418   0.783  52.013  1.00  0.00     0.036 A 
HETATM   14  C4  UNL     1      20.096   0.389  51.863  1.00  0.00     0.032 A 
HETATM   15  C3  UNL     1      19.118   1.359  51.844  1.00  0.00     0.042 A 
HETATM   16  C2  UNL     1      19.438   2.680  51.969  1.00  0.00     0.101 A 
HETATM   17  C17 UNL     1      20.745   3.124  52.123  1.00  0.00     0.103 A 
HETATM   18  C16 UNL     1      21.710   2.124  52.138  1.00  0.00     0.069 A 
BRANCH  16  19
HETATM   19  O1  UNL     1      18.468   3.669  51.952  1.00  0.00    -0.353 OA
HETATM   20  C1  UNL     1      17.145   3.352  51.594  1.00  0.00     0.210 C 
ENDBRANCH  16  19
BRANCH  17  21
HETATM   21  O4  UNL     1      21.032   4.470  52.248  1.00  0.00    -0.353 OA
HETATM   22  C18 UNL     1      22.322   4.942  51.998  1.00  0.00     0.210 C 
ENDBRANCH  17  21
ENDBRANCH  11  13
ENDBRANCH   1  11
BRANCH   8  23
HETATM   23  O3  UNL     1      27.130   1.759  51.947  1.00  0.00    -0.353 OA
HETATM   24  C13 UNL     1      26.486   2.686  51.093  1.00  0.00     0.210 C 
ENDBRANCH   8  23
BRANCH   7  25
HETATM   25  O2  UNL     1      28.163   1.025  54.364  1.00  0.00    -0.353 OA
HETATM   26  C11 UNL     1      29.309   0.262  54.159  1.00  0.00     0.210 C 
ENDBRANCH   7  25
TORSDOF 6
ENDMDL
MODEL 6
REMARK VINA RESULT:      -7.0      1.832      2.883
REMARK  6 active torsions:
REMARK  status: ('A' for Active; 'I' for Inactive)
REMARK    1  A    between atoms: O1_2  and  C2_3 
REMARK    2  A    between atoms: C5_6  and  N1_7 
REMARK    3  A    between atoms: N1_7  and  C6_8 
REMARK    4  A    between atoms: C10_14  and  O2_15 
REMARK    5  A    between atoms: C12_17  and  O3_18 
REMARK    6  A    between atoms: C17_23  and  O4_24 
ROOT
HETATM    1  C6  UNL     1      24.467   2.646  52.119  1.00  0.00     0.142 A 
HETATM    2  N2  UNL     1      24.791   3.370  51.032  1.00  0.00    -0.224 NA
HETATM    3  C7  UNL     1      25.952   3.237  50.363  1.00  0.00     0.236 A 
HETATM    4  N3  UNL     1      26.873   2.326  50.786  1.00  0.00    -0.241 NA
HETATM    5  C8  UNL     1      26.599   1.577  51.869  1.00  0.00     0.075 A 
HETATM    6  C9  UNL     1      27.485   0.641  52.355  1.00  0.00     0.072 A 
HETATM    7  C10 UNL     1      27.167  -0.105  53.471  1.00  0.00     0.103 A 
HETATM    8  C12 UNL     1      25.981   0.027  54.158  1.00  0.00     0.102 A 
HETATM    9  C14 UNL     1      25.099   0.968  53.663  1.00  0.00     0.057 A 
HETATM   10  C15 UNL     1      25.404   1.720  52.549  1.00  0.00     0.042 A 
ENDROOT
BRANCH   1  11
HETATM   11  N1  UNL     1      23.231   2.850  52.765  1.00  0.00    -0.340 N 
HETATM   12  H6  UNL     1      23.078   3.550  53.524  1.00  0.00     0.167 HD
BRANCH  11  13
HETATM   13  C5  UNL     1      22.108   2.067  52.380  1.00  0.00     0.036 A 
HETATM   14  C4  UNL     1      21.463   2.388  51.194  1.00  0.00     0.032 A 
HETATM   15  C3  UNL     1      20.373   1.636  50.813  1.00  0.00     0.042 A 
HETATM   16  C2  UNL     1      19.933   0.598  51.582  1.00  0.00     0.101 A 
HETATM   17  C17 UNL     1      20.545   0.238  52.776  1.00  0.00     0.103 A 
HETATM   18  C16 UNL     1      21.641   1.013  53.135  1.00  0.00     0.069 A 
BRANCH  16  19
HETATM   19  O1  UNL     1      18.839  -0.168  51.215  1.00  0.00    -0.353 OA
HETATM   20  C1  UNL     1      17.881   0.353  50.327  1.00  0.00     0.210 C 
ENDBRANCH  16  19
BRANCH  17  21
HETATM   21  O4  UNL     1      20.073  -0.821  53.529  1.00  0.00    -0.353 OA
HETATM   22  C18 UNL     1      20.953  -1.591  54.292  1.00  0.00     0.210 C 
ENDBRANCH  17  21
ENDBRANCH  11  13
ENDBRANCH   1  11
BRANCH   8  23
HETATM   23  O3  UNL     1      25.803  -0.793  55.264  1.00  0.00    -0.353 OA
HETATM   24  C13 UNL     1      24.486  -1.221  55.558  1.00  0.00     0.210 C 
ENDBRANCH   8  23
BRANCH   7  25
HETATM   25  O2  UNL     1      28.129  -1.000  53.853  1.00  0.00    -0.353 OA
HETATM   26  C11 UNL     1      29.503  -0.781  53.828  1.00  0.00     0.210 C 
ENDBRANCH   7  25
TORSDOF 6
ENDMDL
MODEL 7
REMARK VINA RESULT:      -6.9      7.453      9.276
REMARK  6 active torsions:
REMARK  status: ('A' for Active; 'I' for Inactive)
REMARK    1  A    between atoms: O1_2  and  C2_3 
REMARK    2  A    between atoms: C5_6  and  N1_7 
REMARK    3  A    between atoms: N1_7  and  C6_8 
REMARK    4  A    between atoms: C10_14  and  O2_15 
REMARK    5  A    between atoms: C12_17  and  O3_18 
REMARK    6  A    between atoms: C17_23  and  O4_24 
ROOT
HETATM    1  C6  UNL     1      29.094   7.268  48.331  1.00  0.00     0.142 A 
HETATM    2  N2  UNL     1      28.833   8.513  48.771  1.00  0.00    -0.224 NA
HETATM    3  C7  UNL     1      29.760   9.324  49.312  1.00  0.00     0.236 A 
HETATM    4  N3  UNL     1      31.046   8.891  49.436  1.00  0.00    -0.241 NA
HETATM    5  C8  UNL     1      31.360   7.655  49.012  1.00  0.00     0.075 A 
HETATM    6  C9  UNL     1      32.639   7.150  49.111  1.00  0.00     0.072 A 
HETATM    7  C10 UNL     1      32.919   5.874  48.667  1.00  0.00     0.103 A 
HETATM    8  C12 UNL     1      31.974   5.039  48.112  1.00  0.00     0.102 A 
HETATM    9  C14 UNL     1      30.696   5.555  48.018  1.00  0.00     0.057 A 
HETATM   10  C15 UNL     1      30.402   6.828  48.457  1.00  0.00     0.042 A 
ENDROOT
BRANCH   1  11
HETATM   11  N1  UNL     1      28.064   6.479  47.780  1.00  0.00    -0.340 N 
HETATM   12  H6  UNL     1      27.916   6.346  46.755  1.00  0.00     0.167 HD
BRANCH  11  13
HETATM   13  C5  UNL     1      27.156   5.816  48.650  1.00  0.00     0.036 A 
HETATM   14  C4  UNL     1      27.332   4.457  48.866  1.00  0.00     0.032 A 
HETATM   15  C3  UNL     1      26.456   3.804  49.706  1.00  0.00     0.042 A 
HETATM   16  C2  UNL     1      25.435   4.476  50.314  1.00  0.00     0.101 A 
HETATM   17  C17 UNL     1      25.218   5.835  50.129  1.00  0.00     0.103 A 
HETATM   18  C16 UNL     1      26.116   6.467  49.278  1.00  0.00     0.069 A 
BRANCH  16  19
HETATM   19  O1  UNL     1      24.545   3.836  51.161  1.00  0.00    -0.353 OA
HETATM   20  C1  UNL     1      24.258   2.471  50.980  1.00  0.00     0.210 C 
ENDBRANCH  16  19
BRANCH  17  21
HETATM   21  O4  UNL     1      24.174   6.483  50.763  1.00  0.00    -0.353 OA
HETATM   22  C18 UNL     1      23.978   7.853  50.577  1.00  0.00     0.210 C 
ENDBRANCH  17  21
ENDBRANCH  11  13
ENDBRANCH   1  11
BRANCH   8  23
HETATM   23  O3  UNL     1      32.406   3.783  47.712  1.00  0.00    -0.353 OA
HETATM   24  C13 UNL     1      32.011   3.331  46.430  1.00  0.00     0.210 C 
ENDBRANCH   8  23
BRANCH   7  25
HETATM   25  O2  UNL     1      34.223   5.490  48.820  1.00  0.00    -0.353 OA
HETATM   26  C11 UNL     1      35.334   6.324  48.738  1.00  0.00     0.210 C 
ENDBRANCH   7  25
TORSDOF 6
ENDMDL
MODEL 8
REMARK VINA RESULT:      -6.9      4.713      8.279
REMARK  6 active torsions:
REMARK  status: ('A' for Active; 'I' for Inactive)
REMARK    1  A    between atoms: O1_2  and  C2_3 
REMARK    2  A    between atoms: C5_6  and  N1_7 
REMARK    3  A    between atoms: N1_7  and  C6_8 
REMARK    4  A    between atoms: C10_14  and  O2_15 
REMARK    5  A    between atoms: C12_17  and  O3_18 
REMARK    6  A    between atoms: C17_23  and  O4_24 
ROOT
HETATM    1  C6  UNL     1      26.019   2.540  50.948  1.00  0.00     0.142 A 
HETATM    2  N2  UNL     1      27.228   2.608  51.537  1.00  0.00    -0.224 NA
HETATM    3  C7  UNL     1      27.501   2.082  52.745  1.00  0.00     0.236 A 
HETATM    4  N3  UNL     1      26.521   1.437  53.438  1.00  0.00    -0.241 NA
HETATM    5  C8  UNL     1      25.295   1.341  52.894  1.00  0.00     0.075 A 
HETATM    6  C9  UNL     1      24.255   0.707  53.539  1.00  0.00     0.072 A 
HETATM    7  C10 UNL     1      23.011   0.633  52.948  1.00  0.00     0.103 A 
HETATM    8  C12 UNL     1      22.726   1.170  51.712  1.00  0.00     0.102 A 
HETATM    9  C14 UNL     1      23.774   1.803  51.074  1.00  0.00     0.057 A 
HETATM   10  C15 UNL     1      25.023   1.884  51.653  1.00  0.00     0.042 A 
ENDROOT
BRANCH   1  11
HETATM   11  N1  UNL     1      25.814   3.122  49.681  1.00  0.00    -0.340 N 
HETATM   12  H6  UNL     1      25.409   2.613  48.864  1.00  0.00     0.167 HD
BRANCH  11  13
HETATM   13  C5  UNL     1      26.173   4.482  49.475  1.00  0.00     0.036 A 
HETATM   14  C4  UNL     1      25.383   5.463  50.056  1.00  0.00     0.032 A 
HETATM   15  C3  UNL     1      25.721   6.784  49.861  1.00  0.00     0.042 A 
HETATM   16  C2  UNL     1      26.809   7.126  49.112  1.00  0.00     0.101 A 
HETATM   17  C17 UNL     1      27.631   6.182  48.510  1.00  0.00     0.103 A 
HETATM   18  C16 UNL     1      27.266   4.858  48.724  1.00  0.00     0.069 A 
BRANCH  16  19
HETATM   19  O1  UNL     1      27.164   8.449  48.905  1.00  0.00    -0.353 OA
HETATM   20  C1  UNL     1      27.581   9.244  49.987  1.00  0.00     0.210 C 
ENDBRANCH  16  19
BRANCH  17  21
HETATM   21  O4  UNL     1      28.727   6.564  47.758  1.00  0.00    -0.353 OA
HETATM   22  C18 UNL     1      29.963   5.945  47.949  1.00  0.00     0.210 C 
ENDBRANCH  17  21
ENDBRANCH  11  13
ENDBRANCH   1  11
BRANCH   8  23
HETATM   23  O3  UNL     1      21.427   1.017  51.248  1.00  0.00    -0.353 OA
HETATM   24  C13 UNL     1      20.591   2.160  51.251  1.00  0.00     0.210 C 
ENDBRANCH   8  23
BRANCH   7  25
HETATM   25  O2  UNL     1      22.065  -0.021  53.689  1.00  0.00    -0.353 OA
HETATM   26  C11 UNL     1      22.304  -1.062  54.581  1.00  0.00     0.210 C 
ENDBRANCH   7  25
TORSDOF 6
ENDMDL
MODEL 9
REMARK VINA RESULT:      -6.9      5.027      7.623
REMARK  6 active torsions:
REMARK  status: ('A' for Active; 'I' for Inactive)
REMARK    1  A    between atoms: O1_2  and  C2_3 
REMARK    2  A    between atoms: C5_6  and  N1_7 
REMARK    3  A    between atoms: N1_7  and  C6_8 
REMARK    4  A    between atoms: C10_14  and  O2_15 
REMARK    5  A    between atoms: C12_17  and  O3_18 
REMARK    6  A    between atoms: C17_23  and  O4_24 
ROOT
HETATM    1  C6  UNL     1      24.821   5.076  50.025  1.00  0.00     0.142 A 
HETATM    2  N2  UNL     1      23.783   5.481  50.780  1.00  0.00    -0.224 NA
HETATM    3  C7  UNL     1      23.575   6.760  51.142  1.00  0.00     0.236 A 
HETATM    4  N3  UNL     1      24.447   7.726  50.738  1.00  0.00    -0.241 NA
HETATM    5  C8  UNL     1      25.502   7.375  49.981  1.00  0.00     0.075 A 
HETATM    6  C9  UNL     1      26.426   8.298  49.540  1.00  0.00     0.072 A 
HETATM    7  C10 UNL     1      27.497   7.896  48.768  1.00  0.00     0.103 A 
HETATM    8  C12 UNL     1      27.714   6.588  48.395  1.00  0.00     0.102 A 
HETATM    9  C14 UNL     1      26.782   5.671  48.842  1.00  0.00     0.057 A 
HETATM   10  C15 UNL     1      25.708   6.059  49.613  1.00  0.00     0.042 A 
ENDROOT
BRANCH   1  11
HETATM   11  N1  UNL     1      24.969   3.715  49.693  1.00  0.00    -0.340 N 
HETATM   12  H6  UNL     1      24.855   3.334  48.728  1.00  0.00     0.167 HD
BRANCH  11  13
HETATM   13  C5  UNL     1      25.291   2.781  50.716  1.00  0.00     0.036 A 
HETATM   14  C4  UNL     1      24.264   2.012  51.246  1.00  0.00     0.032 A 
HETATM   15  C3  UNL     1      24.565   1.105  52.239  1.00  0.00     0.042 A 
HETATM   16  C2  UNL     1      25.843   0.964  52.696  1.00  0.00     0.101 A 
HETATM   17  C17 UNL     1      26.904   1.710  52.198  1.00  0.00     0.103 A 
HETATM   18  C16 UNL     1      26.571   2.616  51.198  1.00  0.00     0.069 A 
BRANCH  16  19
HETATM   19  O1  UNL     1      26.163   0.059  53.694  1.00  0.00    -0.353 OA
HETATM   20  C1  UNL     1      25.146  -0.660  54.347  1.00  0.00     0.210 C 
ENDBRANCH  16  19
BRANCH  17  21
HETATM   21  O4  UNL     1      28.187   1.540  52.685  1.00  0.00    -0.353 OA
HETATM   22  C18 UNL     1      28.700   2.415  53.643  1.00  0.00     0.210 C 
ENDBRANCH  17  21
ENDBRANCH  11  13
ENDBRANCH   1  11
BRANCH   8  23
HETATM   23  O3  UNL     1      28.835   6.337  47.617  1.00  0.00    -0.353 OA
HETATM   24  C13 UNL     1      29.933   5.693  48.238  1.00  0.00     0.210 C 
ENDBRANCH   8  23
BRANCH   7  25
HETATM   25  O2  UNL     1      28.341   8.905  48.394  1.00  0.00    -0.353 OA
HETATM   26  C11 UNL     1      29.084   9.709  49.254  1.00  0.00     0.210 C 
ENDBRANCH   7  25
TORSDOF 6
ENDMDL
