MODEL 1
REMARK VINA RESULT:      -8.2      0.000      0.000
REMARK  7 active torsions:
REMARK  status: ('A' for Active; 'I' for Inactive)
REMARK    1  A    between atoms: C2_2  and  N1_3 
REMARK    2  A    between atoms: N1_3  and  C4_5 
REMARK    3  A    between atoms: C4_5  and  C5_6 
REMARK    4  A    between atoms: C5_6  and  N2_7 
REMARK    5  A    between atoms: N2_7  and  C6_8 
REMARK    6  A    between atoms: C9_11  and  N3_12 
REMARK       I    between atoms: N3_12  and  C10_13 
REMARK    7  A    between atoms: C10_13  and  C11_15 
ROOT
HETATM    1  N3  UNL     1      20.112   0.209  52.505  1.00  0.00    -0.323 N 
HETATM    2  C10 UNL     1      18.874  -0.454  52.634  1.00  0.00     0.256 C 
HETATM    3  O1  UNL     1      18.745  -1.445  53.375  1.00  0.00    -0.267 OA
HETATM    4  H14 UNL     1      20.060   1.015  51.848  1.00  0.00     0.169 HD
ENDROOT
BRANCH   2   5
HETATM    5  C11 UNL     1      17.687  -0.004  51.901  1.00  0.00     0.064 C 
HETATM    6  C12 UNL     1      16.450  -0.557  51.971  1.00  0.00     0.065 C 
HETATM    7  C13 UNL     1      15.916  -0.776  50.612  1.00  0.00     0.048 C 
HETATM    8  N7  UNL     1      15.394  -1.023  52.865  1.00  0.00    -0.276 N 
HETATM    9  C14 UNL     1      16.640  -0.434  49.541  1.00  0.00     0.086 C 
HETATM   10  N4  UNL     1      17.500   0.731  49.637  1.00  0.00    -0.387 N 
HETATM   11  C15 UNL     1      17.766   1.185  50.976  1.00  0.00     0.145 C 
HETATM   12  H17 UNL     1      17.912   1.218  48.807  1.00  0.00     0.159 HD
HETATM   13  C16 UNL     1      16.819   2.244  51.392  1.00  0.00     0.004 C 
HETATM   14  C17 UNL     1      15.900   3.141  51.793  1.00  0.00     0.017 C 
HETATM   15  C18 UNL     1      14.536   3.255  52.371  1.00  0.00     0.118 C 
HETATM   16  N5  UNL     1      13.713   2.319  52.771  1.00  0.00    -0.252 NA
HETATM   17  C19 UNL     1      14.271   0.991  52.605  1.00  0.00     0.254 C 
HETATM   18  N6  UNL     1      15.042   0.252  53.402  1.00  0.00    -0.168 NA
HETATM   19  H23 UNL     1      15.241  -2.046  52.829  1.00  0.00     0.189 HD
ENDBRANCH   2   5
BRANCH   1  20
HETATM   20  C9  UNL     1      21.333  -0.113  53.148  1.00  0.00     0.035 A 
HETATM   21  C8  UNL     1      21.517  -0.808  54.314  1.00  0.00     0.032 A 
HETATM   22  C7  UNL     1      22.763  -1.053  54.821  1.00  0.00     0.031 A 
HETATM   23  C6  UNL     1      23.921  -0.635  54.225  1.00  0.00     0.028 A 
HETATM   24  C21 UNL     1      23.727   0.063  53.051  1.00  0.00     0.031 A 
HETATM   25  C20 UNL     1      22.480   0.313  52.535  1.00  0.00     0.032 A 
BRANCH  23  26
HETATM   26  N2  UNL     1      25.224  -0.845  54.707  1.00  0.00    -0.388 N 
HETATM   27  H11 UNL     1      25.431  -1.804  55.114  1.00  0.00     0.159 HD
BRANCH  26  28
HETATM   28  C5  UNL     1      26.341   0.040  54.744  1.00  0.00     0.139 C 
BRANCH  28  29
HETATM   29  C4  UNL     1      27.259  -0.188  53.580  1.00  0.00     0.141 C 
BRANCH  29  30
HETATM   30  N1  UNL     1      28.434   0.693  53.665  1.00  0.00    -0.396 N 
HETATM   31  C3  UNL     1      28.318   2.156  53.557  1.00  0.00     0.148 C 
BRANCH  30  32
HETATM   32  C2  UNL     1      29.736   0.097  53.853  1.00  0.00     0.058 C 
HETATM   33  C1  UNL     1      29.748  -1.144  53.367  1.00  0.00     0.049 C 
ENDBRANCH  30  32
ENDBRANCH  29  30
ENDBRANCH  28  29
ENDBRANCH  26  28
ENDBRANCH  23  26
ENDBRANCH   1  20
TORSDOF 7
ENDMDL
MODEL 2
REMARK VINA RESULT:      -8.0      7.311     13.378
REMARK  7 active torsions:
REMARK  status: ('A' for Active; 'I' for Inactive)
REMARK    1  A    between atoms: C2_2  and  N1_3 
REMARK    2  A    between atoms: N1_3  and  C4_5 
REMARK    3  A    between atoms: C4_5  and  C5_6 
REMARK    4  A    between atoms: C5_6  and  N2_7 
REMARK    5  A    between atoms: N2_7  and  C6_8 
REMARK    6  A    between atoms: C9_11  and  N3_12 
REMARK       I    between atoms: N3_12  and  C10_13 
REMARK    7  A    between atoms: C10_13  and  C11_15 
ROOT
HETATM    1  N3  UNL     1      28.149   5.655  48.903  1.00  0.00    -0.323 N 
HETATM    2  C10 UNL     1      28.593   6.653  48.012  1.00  0.00     0.256 C 
HETATM    3  O1  UNL     1      27.812   7.205  47.216  1.00  0.00    -0.267 OA
HETATM    4  H14 UNL     1      28.919   5.289  49.500  1.00  0.00     0.169 HD
ENDROOT
BRANCH   2   5
HETATM    5  C11 UNL     1      29.994   7.084  47.985  1.00  0.00     0.064 C 
HETATM    6  C12 UNL     1      30.889   6.949  48.995  1.00  0.00     0.065 C 
HETATM    7  C13 UNL     1      31.594   8.227  49.221  1.00  0.00     0.048 C 
HETATM    8  N7  UNL     1      31.469   6.029  49.969  1.00  0.00    -0.276 N 
HETATM    9  C14 UNL     1      31.307   9.295  48.468  1.00  0.00     0.086 C 
HETATM   10  N4  UNL     1      30.942   9.080  47.081  1.00  0.00    -0.387 N 
HETATM   11  C15 UNL     1      30.570   7.730  46.750  1.00  0.00     0.145 C 
HETATM   12  H17 UNL     1      30.936   9.837  46.357  1.00  0.00     0.159 HD
HETATM   13  C16 UNL     1      31.722   6.957  46.235  1.00  0.00     0.004 C 
HETATM   14  C17 UNL     1      32.793   6.238  45.853  1.00  0.00     0.017 C 
HETATM   15  C18 UNL     1      33.936   5.449  46.383  1.00  0.00     0.118 C 
HETATM   16  N5  UNL     1      34.242   5.143  47.618  1.00  0.00    -0.252 NA
HETATM   17  C19 UNL     1      33.285   5.674  48.569  1.00  0.00     0.254 C 
HETATM   18  N6  UNL     1      32.138   5.182  49.035  1.00  0.00    -0.168 NA
HETATM   19  H23 UNL     1      31.237   6.263  50.951  1.00  0.00     0.189 HD
ENDBRANCH   2   5
BRANCH   1  20
HETATM   20  C9  UNL     1      26.834   5.144  49.037  1.00  0.00     0.035 A 
HETATM   21  C8  UNL     1      25.647   5.803  48.851  1.00  0.00     0.032 A 
HETATM   22  C7  UNL     1      24.441   5.179  49.012  1.00  0.00     0.031 A 
HETATM   23  C6  UNL     1      24.306   3.865  49.366  1.00  0.00     0.028 A 
HETATM   24  C21 UNL     1      25.506   3.209  49.550  1.00  0.00     0.031 A 
HETATM   25  C20 UNL     1      26.721   3.827  49.391  1.00  0.00     0.032 A 
BRANCH  23  26
HETATM   26  N2  UNL     1      23.096   3.178  49.559  1.00  0.00    -0.388 N 
HETATM   27  H11 UNL     1      22.239   3.583  49.080  1.00  0.00     0.159 HD
BRANCH  26  28
HETATM   28  C5  UNL     1      22.821   2.000  50.313  1.00  0.00     0.139 C 
BRANCH  28  29
HETATM   29  C4  UNL     1      22.444   2.331  51.727  1.00  0.00     0.141 C 
BRANCH  29  30
HETATM   30  N1  UNL     1      23.494   1.895  52.660  1.00  0.00    -0.396 N 
HETATM   31  C3  UNL     1      23.587   0.505  53.133  1.00  0.00     0.148 C 
BRANCH  30  32
HETATM   32  C2  UNL     1      24.455   2.868  53.127  1.00  0.00     0.058 C 
HETATM   33  C1  UNL     1      25.572   2.258  53.522  1.00  0.00     0.049 C 
ENDBRANCH  30  32
ENDBRANCH  29  30
ENDBRANCH  28  29
ENDBRANCH  26  28
ENDBRANCH  23  26
ENDBRANCH   1  20
TORSDOF 7
ENDMDL
MODEL 3
REMARK VINA RESULT:      -7.9      8.347     14.944
REMARK  7 active torsions:
REMARK  status: ('A' for Active; 'I' for Inactive)
REMARK    1  A    between atoms: C2_2  and  N1_3 
REMARK    2  A    between atoms: N1_3  and  C4_5 
REMARK    3  A    between atoms: C4_5  and  C5_6 
REMARK    4  A    between atoms: C5_6  and  N2_7 
REMARK    5  A    between atoms: N2_7  and  C6_8 
REMARK    6  A    between atoms: C9_11  and  N3_12 
REMARK       I    between atoms: N3_12  and  C10_13 
REMARK    7  A    between atoms: C10_13  and  C11_15 
ROOT
HETATM    1  N3  UNL     1      29.996   6.026  47.826  1.00  0.00    -0.323 N 
HETATM    2  C10 UNL     1      31.175   5.828  48.573  1.00  0.00     0.256 C 
HETATM    3  O1  UNL     1      31.133   5.513  49.776  1.00  0.00    -0.267 OA
HETATM    4  H14 UNL     1      30.194   6.288  46.839  1.00  0.00     0.169 HD
ENDROOT
BRANCH   2   5
HETATM    5  C11 UNL     1      32.499   5.983  47.964  1.00  0.00     0.064 C 
HETATM    6  C12 UNL     1      33.599   5.242  48.250  1.00  0.00     0.065 C 
HETATM    7  C13 UNL     1      34.758   6.127  48.482  1.00  0.00     0.048 C 
HETATM    8  N7  UNL     1      34.126   3.890  48.412  1.00  0.00    -0.276 N 
HETATM    9  C14 UNL     1      34.621   7.454  48.390  1.00  0.00     0.086 C 
HETATM   10  N4  UNL     1      33.683   7.982  47.417  1.00  0.00    -0.387 N 
HETATM   11  C15 UNL     1      32.734   7.030  46.904  1.00  0.00     0.145 C 
HETATM   12  H17 UNL     1      33.676   8.980  47.100  1.00  0.00     0.159 HD
HETATM   13  C16 UNL     1      33.205   6.413  45.644  1.00  0.00     0.004 C 
HETATM   14  C17 UNL     1      33.681   5.793  44.549  1.00  0.00     0.017 C 
HETATM   15  C18 UNL     1      34.553   4.672  44.112  1.00  0.00     0.118 C 
HETATM   16  N5  UNL     1      35.185   3.774  44.825  1.00  0.00    -0.252 NA
HETATM   17  C19 UNL     1      34.959   3.944  46.247  1.00  0.00     0.254 C 
HETATM   18  N6  UNL     1      33.998   3.486  47.049  1.00  0.00    -0.168 NA
HETATM   19  H23 UNL     1      34.408   3.668  49.383  1.00  0.00     0.189 HD
ENDBRANCH   2   5
BRANCH   1  20
HETATM   20  C9  UNL     1      28.658   5.912  48.281  1.00  0.00     0.035 A 
HETATM   21  C8  UNL     1      27.961   4.771  48.578  1.00  0.00     0.032 A 
HETATM   22  C7  UNL     1      26.666   4.808  49.016  1.00  0.00     0.031 A 
HETATM   23  C6  UNL     1      25.957   5.964  49.194  1.00  0.00     0.028 A 
HETATM   24  C21 UNL     1      26.667   7.108  48.894  1.00  0.00     0.031 A 
HETATM   25  C20 UNL     1      27.967   7.080  48.455  1.00  0.00     0.032 A 
BRANCH  23  26
HETATM   26  N2  UNL     1      24.624   6.060  49.626  1.00  0.00    -0.388 N 
HETATM   27  H11 UNL     1      23.900   6.291  48.883  1.00  0.00     0.159 HD
BRANCH  26  28
HETATM   28  C5  UNL     1      24.068   5.898  50.928  1.00  0.00     0.139 C 
BRANCH  28  29
HETATM   29  C4  UNL     1      22.978   4.867  50.934  1.00  0.00     0.141 C 
BRANCH  29  30
HETATM   30  N1  UNL     1      23.545   3.511  50.900  1.00  0.00    -0.396 N 
HETATM   31  C3  UNL     1      24.683   3.122  51.749  1.00  0.00     0.148 C 
BRANCH  30  32
HETATM   32  C2  UNL     1      22.968   2.539  50.000  1.00  0.00     0.058 C 
HETATM   33  C1  UNL     1      23.230   2.872  48.736  1.00  0.00     0.049 C 
ENDBRANCH  30  32
ENDBRANCH  29  30
ENDBRANCH  28  29
ENDBRANCH  26  28
ENDBRANCH  23  26
ENDBRANCH   1  20
TORSDOF 7
ENDMDL
MODEL 4
REMARK VINA RESULT:      -7.5      6.777      9.434
REMARK  7 active torsions:
REMARK  status: ('A' for Active; 'I' for Inactive)
REMARK    1  A    between atoms: C2_2  and  N1_3 
REMARK    2  A    between atoms: N1_3  and  C4_5 
REMARK    3  A    between atoms: C4_5  and  C5_6 
REMARK    4  A    between atoms: C5_6  and  N2_7 
REMARK    5  A    between atoms: N2_7  and  C6_8 
REMARK    6  A    between atoms: C9_11  and  N3_12 
REMARK       I    between atoms: N3_12  and  C10_13 
REMARK    7  A    between atoms: C10_13  and  C11_15 
ROOT
HETATM    1  N3  UNL     1      26.015   5.140  49.978  1.00  0.00    -0.323 N 
HETATM    2  C10 UNL     1      24.758   4.543  49.758  1.00  0.00     0.256 C 
HETATM    3  O1  UNL     1      24.168   4.662  48.668  1.00  0.00    -0.267 OA
HETATM    4  H14 UNL     1      26.376   4.954  50.937  1.00  0.00     0.169 HD
ENDROOT
BRANCH   2   5
HETATM    5  C11 UNL     1      24.091   3.757  50.800  1.00  0.00     0.064 C 
HETATM    6  C12 UNL     1      23.498   4.252  51.915  1.00  0.00     0.065 C 
HETATM    7  C13 UNL     1      23.947   3.500  53.104  1.00  0.00     0.048 C 
HETATM    8  N7  UNL     1      22.559   5.242  52.434  1.00  0.00    -0.276 N 
HETATM    9  C14 UNL     1      24.814   2.491  52.973  1.00  0.00     0.086 C 
HETATM   10  N4  UNL     1      24.747   1.678  51.773  1.00  0.00    -0.387 N 
HETATM   11  C15 UNL     1      24.004   2.255  50.686  1.00  0.00     0.145 C 
HETATM   12  H17 UNL     1      25.203   0.739  51.682  1.00  0.00     0.159 HD
HETATM   13  C16 UNL     1      22.594   1.805  50.687  1.00  0.00     0.004 C 
HETATM   14  C17 UNL     1      21.295   1.460  50.748  1.00  0.00     0.017 C 
HETATM   15  C18 UNL     1      20.007   1.823  51.395  1.00  0.00     0.118 C 
HETATM   16  N5  UNL     1      19.726   2.808  52.210  1.00  0.00    -0.252 NA
HETATM   17  C19 UNL     1      20.881   3.640  52.484  1.00  0.00     0.254 C 
HETATM   18  N6  UNL     1      21.381   4.695  51.843  1.00  0.00    -0.168 NA
HETATM   19  H23 UNL     1      23.004   5.967  53.024  1.00  0.00     0.189 HD
ENDBRANCH   2   5
BRANCH   1  20
HETATM   20  C9  UNL     1      26.771   5.921  49.068  1.00  0.00     0.035 A 
HETATM   21  C8  UNL     1      26.442   7.132  48.519  1.00  0.00     0.032 A 
HETATM   22  C7  UNL     1      27.275   7.783  47.651  1.00  0.00     0.031 A 
HETATM   23  C6  UNL     1      28.490   7.295  47.256  1.00  0.00     0.028 A 
HETATM   24  C21 UNL     1      28.814   6.077  47.815  1.00  0.00     0.031 A 
HETATM   25  C20 UNL     1      27.984   5.417  48.687  1.00  0.00     0.032 A 
BRANCH  23  26
HETATM   26  N2  UNL     1      29.378   7.912  46.358  1.00  0.00    -0.388 N 
HETATM   27  H11 UNL     1      29.754   7.306  45.572  1.00  0.00     0.159 HD
BRANCH  26  28
HETATM   28  C5  UNL     1      29.871   9.249  46.330  1.00  0.00     0.139 C 
BRANCH  28  29
HETATM   29  C4  UNL     1      31.171   9.369  47.067  1.00  0.00     0.141 C 
BRANCH  29  30
HETATM   30  N1  UNL     1      30.945   9.397  48.520  1.00  0.00    -0.396 N 
HETATM   31  C3  UNL     1      31.508   8.375  49.415  1.00  0.00     0.148 C 
BRANCH  30  32
HETATM   32  C2  UNL     1      30.139  10.459  49.077  1.00  0.00     0.058 C 
HETATM   33  C1  UNL     1      30.800  11.615  49.022  1.00  0.00     0.049 C 
ENDBRANCH  30  32
ENDBRANCH  29  30
ENDBRANCH  28  29
ENDBRANCH  26  28
ENDBRANCH  23  26
ENDBRANCH   1  20
TORSDOF 7
ENDMDL
MODEL 5
REMARK VINA RESULT:      -7.4      7.598     13.531
REMARK  7 active torsions:
REMARK  status: ('A' for Active; 'I' for Inactive)
REMARK    1  A    between atoms: C2_2  and  N1_3 
REMARK    2  A    between atoms: N1_3  and  C4_5 
REMARK    3  A    between atoms: C4_5  and  C5_6 
REMARK    4  A    between atoms: C5_6  and  N2_7 
REMARK    5  A    between atoms: N2_7  and  C6_8 
REMARK    6  A    between atoms: C9_11  and  N3_12 
REMARK       I    between atoms: N3_12  and  C10_13 
REMARK    7  A    between atoms: C10_13  and  C11_15 
ROOT
HETATM    1  N3  UNL     1      27.556   6.306  48.724  1.00  0.00    -0.323 N 
HETATM    2  C10 UNL     1      28.884   6.090  48.304  1.00  0.00     0.256 C 
HETATM    3  O1  UNL     1      29.332   4.941  48.137  1.00  0.00    -0.267 OA
HETATM    4  H14 UNL     1      27.333   7.318  48.821  1.00  0.00     0.169 HD
ENDROOT
BRANCH   2   5
HETATM    5  C11 UNL     1      29.794   7.210  48.045  1.00  0.00     0.064 C 
HETATM    6  C12 UNL     1      30.622   7.790  48.949  1.00  0.00     0.065 C 
HETATM    7  C13 UNL     1      30.482   9.259  48.893  1.00  0.00     0.048 C 
HETATM    8  N7  UNL     1      31.633   7.552  49.975  1.00  0.00    -0.276 N 
HETATM    9  C14 UNL     1      29.631   9.821  48.028  1.00  0.00     0.086 C 
HETATM   10  N4  UNL     1      29.433   9.178  46.743  1.00  0.00    -0.387 N 
HETATM   11  C15 UNL     1      29.887   7.815  46.666  1.00  0.00     0.145 C 
HETATM   12  H17 UNL     1      28.990   9.650  45.920  1.00  0.00     0.159 HD
HETATM   13  C16 UNL     1      31.267   7.727  46.140  1.00  0.00     0.004 C 
HETATM   14  C17 UNL     1      32.552   7.664  45.745  1.00  0.00     0.017 C 
HETATM   15  C18 UNL     1      33.947   7.759  46.248  1.00  0.00     0.118 C 
HETATM   16  N5  UNL     1      34.389   7.918  47.470  1.00  0.00    -0.252 NA
HETATM   17  C19 UNL     1      33.312   8.001  48.437  1.00  0.00     0.254 C 
HETATM   18  N6  UNL     1      32.652   7.057  49.106  1.00  0.00    -0.168 NA
HETATM   19  H23 UNL     1      31.323   7.801  50.931  1.00  0.00     0.189 HD
ENDBRANCH   2   5
BRANCH   1  20
HETATM   20  C9  UNL     1      26.572   5.326  49.009  1.00  0.00     0.035 A 
HETATM   21  C8  UNL     1      26.762   4.029  49.406  1.00  0.00     0.032 A 
HETATM   22  C7  UNL     1      25.713   3.187  49.654  1.00  0.00     0.031 A 
HETATM   23  C6  UNL     1      24.401   3.554  49.532  1.00  0.00     0.028 A 
HETATM   24  C21 UNL     1      24.219   4.862  49.134  1.00  0.00     0.031 A 
HETATM   25  C20 UNL     1      25.266   5.713  48.883  1.00  0.00     0.032 A 
BRANCH  23  26
HETATM   26  N2  UNL     1      23.286   2.729  49.758  1.00  0.00    -0.388 N 
HETATM   27  H11 UNL     1      22.915   2.192  48.921  1.00  0.00     0.159 HD
BRANCH  26  28
HETATM   28  C5  UNL     1      22.550   2.492  50.956  1.00  0.00     0.139 C 
BRANCH  28  29
HETATM   29  C4  UNL     1      22.818   1.119  51.500  1.00  0.00     0.141 C 
BRANCH  29  30
HETATM   30  N1  UNL     1      21.570   0.488  51.955  1.00  0.00    -0.396 N 
HETATM   31  C3  UNL     1      20.359   0.466  51.119  1.00  0.00     0.148 C 
BRANCH  30  32
HETATM   32  C2  UNL     1      21.537  -0.120  53.265  1.00  0.00     0.058 C 
HETATM   33  C1  UNL     1      22.777  -0.358  53.692  1.00  0.00     0.049 C 
ENDBRANCH  30  32
ENDBRANCH  29  30
ENDBRANCH  28  29
ENDBRANCH  26  28
ENDBRANCH  23  26
ENDBRANCH   1  20
TORSDOF 7
ENDMDL
MODEL 6
REMARK VINA RESULT:      -7.4      7.579     13.426
REMARK  7 active torsions:
REMARK  status: ('A' for Active; 'I' for Inactive)
REMARK    1  A    between atoms: C2_2  and  N1_3 
REMARK    2  A    between atoms: N1_3  and  C4_5 
REMARK    3  A    between atoms: C4_5  and  C5_6 
REMARK    4  A    between atoms: C5_6  and  N2_7 
REMARK    5  A    between atoms: N2_7  and  C6_8 
REMARK    6  A    between atoms: C9_11  and  N3_12 
REMARK       I    between atoms: N3_12  and  C10_13 
REMARK    7  A    between atoms: C10_13  and  C11_15 
ROOT
HETATM    1  N3  UNL     1      27.544   6.636  49.294  1.00  0.00    -0.323 N 
HETATM    2  C10 UNL     1      28.099   7.267  48.163  1.00  0.00     0.256 C 
HETATM    3  O1  UNL     1      27.390   7.606  47.198  1.00  0.00    -0.267 OA
HETATM    4  H14 UNL     1      28.264   6.412  50.012  1.00  0.00     0.169 HD
ENDROOT
BRANCH   2   5
HETATM    5  C11 UNL     1      29.535   7.552  48.074  1.00  0.00     0.064 C 
HETATM    6  C12 UNL     1      30.477   7.192  48.981  1.00  0.00     0.065 C 
HETATM    7  C13 UNL     1      31.334   8.349  49.307  1.00  0.00     0.048 C 
HETATM    8  N7  UNL     1      31.015   6.094  49.779  1.00  0.00    -0.276 N 
HETATM    9  C14 UNL     1      31.118   9.532  48.723  1.00  0.00     0.086 C 
HETATM   10  N4  UNL     1      30.636   9.544  47.355  1.00  0.00    -0.387 N 
HETATM   11  C15 UNL     1      30.093   8.297  46.887  1.00  0.00     0.145 C 
HETATM   12  H17 UNL     1      30.665  10.389  46.736  1.00  0.00     0.159 HD
HETATM   13  C16 UNL     1      31.113   7.487  46.184  1.00  0.00     0.004 C 
HETATM   14  C17 UNL     1      32.067   6.720  45.626  1.00  0.00     0.017 C 
HETATM   15  C18 UNL     1      33.148   5.754  45.956  1.00  0.00     0.118 C 
HETATM   16  N5  UNL     1      33.502   5.254  47.112  1.00  0.00    -0.252 NA
HETATM   17  C19 UNL     1      32.678   5.748  48.198  1.00  0.00     0.254 C 
HETATM   18  N6  UNL     1      31.519   5.317  48.693  1.00  0.00    -0.168 NA
HETATM   19  H23 UNL     1      30.878   6.215  50.798  1.00  0.00     0.189 HD
ENDBRANCH   2   5
BRANCH   1  20
HETATM   20  C9  UNL     1      26.185   6.301  49.514  1.00  0.00     0.035 A 
HETATM   21  C8  UNL     1      25.478   5.250  48.991  1.00  0.00     0.032 A 
HETATM   22  C7  UNL     1      24.161   5.042  49.295  1.00  0.00     0.031 A 
HETATM   23  C6  UNL     1      23.439   5.846  50.133  1.00  0.00     0.028 A 
HETATM   24  C21 UNL     1      24.159   6.900  50.657  1.00  0.00     0.031 A 
HETATM   25  C20 UNL     1      25.480   7.117  50.357  1.00  0.00     0.032 A 
BRANCH  23  26
HETATM   26  N2  UNL     1      22.084   5.689  50.469  1.00  0.00    -0.388 N 
HETATM   27  H11 UNL     1      21.557   6.569  50.741  1.00  0.00     0.159 HD
BRANCH  26  28
HETATM   28  C5  UNL     1      21.280   4.512  50.508  1.00  0.00     0.139 C 
BRANCH  28  29
HETATM   29  C4  UNL     1      21.495   3.744  51.779  1.00  0.00     0.141 C 
BRANCH  29  30
HETATM   30  N1  UNL     1      22.436   2.635  51.563  1.00  0.00    -0.396 N 
HETATM   31  C3  UNL     1      22.433   1.842  50.323  1.00  0.00     0.148 C 
BRANCH  30  32
HETATM   32  C2  UNL     1      23.384   2.315  52.606  1.00  0.00     0.058 C 
HETATM   33  C1  UNL     1      24.129   3.383  52.892  1.00  0.00     0.049 C 
ENDBRANCH  30  32
ENDBRANCH  29  30
ENDBRANCH  28  29
ENDBRANCH  26  28
ENDBRANCH  23  26
ENDBRANCH   1  20
TORSDOF 7
ENDMDL
MODEL 7
REMARK VINA RESULT:      -7.4      7.420     13.789
REMARK  7 active torsions:
REMARK  status: ('A' for Active; 'I' for Inactive)
REMARK    1  A    between atoms: C2_2  and  N1_3 
REMARK    2  A    between atoms: N1_3  and  C4_5 
REMARK    3  A    between atoms: C4_5  and  C5_6 
REMARK    4  A    between atoms: C5_6  and  N2_7 
REMARK    5  A    between atoms: N2_7  and  C6_8 
REMARK    6  A    between atoms: C9_11  and  N3_12 
REMARK       I    between atoms: N3_12  and  C10_13 
REMARK    7  A    between atoms: C10_13  and  C11_15 
ROOT
HETATM    1  N3  UNL     1      28.200   5.725  48.870  1.00  0.00    -0.323 N 
HETATM    2  C10 UNL     1      28.667   6.735  48.004  1.00  0.00     0.256 C 
HETATM    3  O1  UNL     1      27.894   7.340  47.240  1.00  0.00    -0.267 OA
HETATM    4  H14 UNL     1      28.966   5.312  49.441  1.00  0.00     0.169 HD
ENDROOT
BRANCH   2   5
HETATM    5  C11 UNL     1      30.082   7.116  47.968  1.00  0.00     0.064 C 
HETATM    6  C12 UNL     1      30.979   6.948  48.971  1.00  0.00     0.065 C 
HETATM    7  C13 UNL     1      31.730   8.199  49.194  1.00  0.00     0.048 C 
HETATM    8  N7  UNL     1      31.533   6.005  49.939  1.00  0.00    -0.276 N 
HETATM    9  C14 UNL     1      31.476   9.278  48.445  1.00  0.00     0.086 C 
HETATM   10  N4  UNL     1      31.093   9.079  47.060  1.00  0.00    -0.387 N 
HETATM   11  C15 UNL     1      30.672   7.744  46.729  1.00  0.00     0.145 C 
HETATM   12  H17 UNL     1      31.109   9.838  46.338  1.00  0.00     0.159 HD
HETATM   13  C16 UNL     1      31.792   6.931  46.205  1.00  0.00     0.004 C 
HETATM   14  C17 UNL     1      32.834   6.176  45.813  1.00  0.00     0.017 C 
HETATM   15  C18 UNL     1      33.952   5.346  46.334  1.00  0.00     0.118 C 
HETATM   16  N5  UNL     1      34.256   5.026  47.566  1.00  0.00    -0.252 NA
HETATM   17  C19 UNL     1      33.325   5.589  48.524  1.00  0.00     0.254 C 
HETATM   18  N6  UNL     1      32.165   5.137  48.999  1.00  0.00    -0.168 NA
HETATM   19  H23 UNL     1      31.316   6.245  50.923  1.00  0.00     0.189 HD
ENDBRANCH   2   5
BRANCH   1  20
HETATM   20  C9  UNL     1      26.870   5.257  49.010  1.00  0.00     0.035 A 
HETATM   21  C8  UNL     1      25.705   5.948  48.807  1.00  0.00     0.032 A 
HETATM   22  C7  UNL     1      24.479   5.365  48.975  1.00  0.00     0.031 A 
HETATM   23  C6  UNL     1      24.303   4.063  49.354  1.00  0.00     0.028 A 
HETATM   24  C21 UNL     1      25.481   3.374  49.554  1.00  0.00     0.031 A 
HETATM   25  C20 UNL     1      26.716   3.951  49.388  1.00  0.00     0.032 A 
BRANCH  23  26
HETATM   26  N2  UNL     1      23.072   3.418  49.556  1.00  0.00    -0.388 N 
HETATM   27  H11 UNL     1      23.107   2.461  50.015  1.00  0.00     0.159 HD
BRANCH  26  28
HETATM   28  C5  UNL     1      21.750   3.845  49.237  1.00  0.00     0.139 C 
BRANCH  28  29
HETATM   29  C4  UNL     1      20.767   2.718  49.349  1.00  0.00     0.141 C 
BRANCH  29  30
HETATM   30  N1  UNL     1      20.405   2.482  50.755  1.00  0.00    -0.396 N 
HETATM   31  C3  UNL     1      20.172   3.590  51.694  1.00  0.00     0.148 C 
BRANCH  30  32
HETATM   32  C2  UNL     1      20.282   1.120  51.221  1.00  0.00     0.058 C 
HETATM   33  C1  UNL     1      21.372   0.424  50.899  1.00  0.00     0.049 C 
ENDBRANCH  30  32
ENDBRANCH  29  30
ENDBRANCH  28  29
ENDBRANCH  26  28
ENDBRANCH  23  26
ENDBRANCH   1  20
TORSDOF 7
ENDMDL
MODEL 8
REMARK VINA RESULT:      -7.3      7.681     13.994
REMARK  7 active torsions:
REMARK  status: ('A' for Active; 'I' for Inactive)
REMARK    1  A    between atoms: C2_2  and  N1_3 
REMARK    2  A    between atoms: N1_3  and  C4_5 
REMARK    3  A    between atoms: C4_5  and  C5_6 
REMARK    4  A    between atoms: C5_6  and  N2_7 
REMARK    5  A    between atoms: N2_7  and  C6_8 
REMARK    6  A    between atoms: C9_11  and  N3_12 
REMARK       I    between atoms: N3_12  and  C10_13 
REMARK    7  A    between atoms: C10_13  and  C11_15 
ROOT
HETATM    1  N3  UNL     1      28.149   5.664  48.883  1.00  0.00    -0.323 N 
HETATM    2  C10 UNL     1      28.591   6.670  48.000  1.00  0.00     0.256 C 
HETATM    3  O1  UNL     1      27.808   7.229  47.211  1.00  0.00    -0.267 OA
HETATM    4  H14 UNL     1      28.920   5.293  49.475  1.00  0.00     0.169 HD
ENDROOT
BRANCH   2   5
HETATM    5  C11 UNL     1      29.992   7.102  47.974  1.00  0.00     0.064 C 
HETATM    6  C12 UNL     1      30.884   6.977  48.988  1.00  0.00     0.065 C 
HETATM    7  C13 UNL     1      31.587   8.257  49.204  1.00  0.00     0.048 C 
HETATM    8  N7  UNL     1      31.461   6.065  49.972  1.00  0.00    -0.276 N 
HETATM    9  C14 UNL     1      31.302   9.318  48.442  1.00  0.00     0.086 C 
HETATM   10  N4  UNL     1      30.941   9.090  47.055  1.00  0.00    -0.387 N 
HETATM   11  C15 UNL     1      30.572   7.737  46.735  1.00  0.00     0.145 C 
HETATM   12  H17 UNL     1      30.937   9.841  46.325  1.00  0.00     0.159 HD
HETATM   13  C16 UNL     1      31.726   6.960  46.230  1.00  0.00     0.004 C 
HETATM   14  C17 UNL     1      32.799   6.239  45.858  1.00  0.00     0.017 C 
HETATM   15  C18 UNL     1      33.940   5.456  46.399  1.00  0.00     0.118 C 
HETATM   16  N5  UNL     1      34.242   5.161  47.638  1.00  0.00    -0.252 NA
HETATM   17  C19 UNL     1      33.281   5.700  48.580  1.00  0.00     0.254 C 
HETATM   18  N6  UNL     1      32.134   5.211  49.048  1.00  0.00    -0.168 NA
HETATM   19  H23 UNL     1      31.225   6.307  50.951  1.00  0.00     0.189 HD
ENDBRANCH   2   5
BRANCH   1  20
HETATM   20  C9  UNL     1      26.835   5.151  49.016  1.00  0.00     0.035 A 
HETATM   21  C8  UNL     1      25.648   5.804  48.812  1.00  0.00     0.032 A 
HETATM   22  C7  UNL     1      24.442   5.179  48.973  1.00  0.00     0.031 A 
HETATM   23  C6  UNL     1      24.308   3.870  49.346  1.00  0.00     0.028 A 
HETATM   24  C21 UNL     1      25.508   3.220  49.548  1.00  0.00     0.031 A 
HETATM   25  C20 UNL     1      26.723   3.839  49.388  1.00  0.00     0.032 A 
BRANCH  23  26
HETATM   26  N2  UNL     1      23.099   3.183  49.540  1.00  0.00    -0.388 N 
HETATM   27  H11 UNL     1      22.688   3.212  50.519  1.00  0.00     0.159 HD
BRANCH  26  28
HETATM   28  C5  UNL     1      22.313   2.432  48.618  1.00  0.00     0.139 C 
BRANCH  28  29
HETATM   29  C4  UNL     1      20.962   3.053  48.417  1.00  0.00     0.141 C 
BRANCH  29  30
HETATM   30  N1  UNL     1      20.751   3.393  47.001  1.00  0.00    -0.396 N 
HETATM   31  C3  UNL     1      19.404   3.518  46.424  1.00  0.00     0.148 C 
BRANCH  30  32
HETATM   32  C2  UNL     1      21.906   3.601  46.158  1.00  0.00     0.058 C 
HETATM   33  C1  UNL     1      21.856   4.811  45.602  1.00  0.00     0.049 C 
ENDBRANCH  30  32
ENDBRANCH  29  30
ENDBRANCH  28  29
ENDBRANCH  26  28
ENDBRANCH  23  26
ENDBRANCH   1  20
TORSDOF 7
ENDMDL
MODEL 9
REMARK VINA RESULT:      -7.3      1.207      2.818
REMARK  7 active torsions:
REMARK  status: ('A' for Active; 'I' for Inactive)
REMARK    1  A    between atoms: C2_2  and  N1_3 
REMARK    2  A    between atoms: N1_3  and  C4_5 
REMARK    3  A    between atoms: C4_5  and  C5_6 
REMARK    4  A    between atoms: C5_6  and  N2_7 
REMARK    5  A    between atoms: N2_7  and  C6_8 
REMARK    6  A    between atoms: C9_11  and  N3_12 
REMARK       I    between atoms: N3_12  and  C10_13 
REMARK    7  A    between atoms: C10_13  and  C11_15 
ROOT
HETATM    1  N3  UNL     1      19.528   0.233  52.360  1.00  0.00    -0.323 N 
HETATM    2  C10 UNL     1      18.396  -0.560  52.636  1.00  0.00     0.256 C 
HETATM    3  O1  UNL     1      18.472  -1.562  53.369  1.00  0.00    -0.267 OA
HETATM    4  H14 UNL     1      19.305   1.031  51.730  1.00  0.00     0.169 HD
ENDROOT
BRANCH   2   5
HETATM    5  C11 UNL     1      17.082  -0.238  52.072  1.00  0.00     0.064 C 
HETATM    6  C12 UNL     1      16.696   0.969  51.586  1.00  0.00     0.065 C 
HETATM    7  C13 UNL     1      15.383   1.343  52.146  1.00  0.00     0.048 C 
HETATM    8  N7  UNL     1      17.051   2.073  50.700  1.00  0.00    -0.276 N 
HETATM    9  C14 UNL     1      14.756   0.525  52.999  1.00  0.00     0.086 C 
HETATM   10  N4  UNL     1      14.915  -0.906  52.819  1.00  0.00    -0.387 N 
HETATM   11  C15 UNL     1      16.013  -1.297  51.975  1.00  0.00     0.145 C 
HETATM   12  H17 UNL     1      14.292  -1.620  53.264  1.00  0.00     0.159 HD
HETATM   13  C16 UNL     1      15.582  -1.490  50.572  1.00  0.00     0.004 C 
HETATM   14  C17 UNL     1      15.200  -1.576  49.285  1.00  0.00     0.017 C 
HETATM   15  C18 UNL     1      14.975  -0.759  48.064  1.00  0.00     0.118 C 
HETATM   16  N5  UNL     1      15.175   0.518  47.860  1.00  0.00    -0.252 NA
HETATM   17  C19 UNL     1      15.700   1.185  49.036  1.00  0.00     0.254 C 
HETATM   18  N6  UNL     1      16.947   1.354  49.471  1.00  0.00    -0.168 NA
HETATM   19  H23 UNL     1      17.246   2.960  51.198  1.00  0.00     0.189 HD
ENDBRANCH   2   5
BRANCH   1  20
HETATM   20  C9  UNL     1      20.850   0.042  52.832  1.00  0.00     0.035 A 
HETATM   21  C8  UNL     1      21.257  -0.609  53.967  1.00  0.00     0.032 A 
HETATM   22  C7  UNL     1      22.578  -0.724  54.301  1.00  0.00     0.031 A 
HETATM   23  C6  UNL     1      23.599  -0.209  53.550  1.00  0.00     0.028 A 
HETATM   24  C21 UNL     1      23.181   0.443  52.409  1.00  0.00     0.031 A 
HETATM   25  C20 UNL     1      21.857   0.563  52.066  1.00  0.00     0.032 A 
BRANCH  23  26
HETATM   26  N2  UNL     1      24.969  -0.284  53.852  1.00  0.00    -0.388 N 
HETATM   27  H11 UNL     1      25.304   0.289  54.680  1.00  0.00     0.159 HD
BRANCH  26  28
HETATM   28  C5  UNL     1      26.009  -1.019  53.213  1.00  0.00     0.139 C 
BRANCH  28  29
HETATM   29  C4  UNL     1      26.943  -0.112  52.468  1.00  0.00     0.141 C 
BRANCH  29  30
HETATM   30  N1  UNL     1      27.815   0.616  53.403  1.00  0.00    -0.396 N 
HETATM   31  C3  UNL     1      27.844   2.086  53.454  1.00  0.00     0.148 C 
BRANCH  30  32
HETATM   32  C2  UNL     1      28.670  -0.141  54.288  1.00  0.00     0.058 C 
HETATM   33  C1  UNL     1      29.669  -0.694  53.601  1.00  0.00     0.049 C 
ENDBRANCH  30  32
ENDBRANCH  29  30
ENDBRANCH  28  29
ENDBRANCH  26  28
ENDBRANCH  23  26
ENDBRANCH   1  20
TORSDOF 7
ENDMDL
