MODEL 1
REMARK VINA RESULT:      -8.5      0.000      0.000
REMARK  6 active torsions:
REMARK  status: ('A' for Active; 'I' for Inactive)
REMARK    1  A    between atoms: C2_2  and  C3_4 
REMARK    2  A    between atoms: C4_5  and  C5_6 
REMARK    3  A    between atoms: C6_7  and  N1_8 
REMARK    4  A    between atoms: C6_7  and  C11_15 
REMARK       I    between atoms: N1_8  and  C7_9 
REMARK    5  A    between atoms: C7_9  and  C8_11 
REMARK    6  A    between atoms: C9_12  and  C10_13 
ROOT
HETATM    1  C5  UNL     1      25.320   2.233  50.942  1.00  0.00     0.032 C 
HETATM    2  C6  UNL     1      25.401   1.437  51.986  1.00  0.00     0.065 C 
ENDROOT
BRANCH   2   3
HETATM    3  N1  UNL     1      24.057   1.035  52.201  1.00  0.00    -0.314 N 
HETATM    4  C7  UNL     1      23.481   0.249  53.257  1.00  0.00     0.301 C 
HETATM    5  O1  UNL     1      24.249  -0.189  54.179  1.00  0.00    -0.258 OA
HETATM    6  H6  UNL     1      23.304   1.319  51.517  1.00  0.00     0.170 HD
BRANCH   4   7
HETATM    7  C8  UNL     1      22.091  -0.078  53.339  1.00  0.00    -0.003 C 
HETATM    8  C9  UNL     1      20.918  -0.345  53.390  1.00  0.00    -0.065 C 
BRANCH   8   9
HETATM    9  C10 UNL     1      19.492  -0.680  53.436  1.00  0.00     0.316 C 
HETATM   10  F1  UNL     1      19.292  -1.982  53.833  1.00  0.00    -0.242 F 
ENDBRANCH   8   9
ENDBRANCH   4   7
ENDBRANCH   2   3
BRANCH   2  11
HETATM   11  C11 UNL     1      26.689   1.235  52.609  1.00  0.00     0.097 A 
HETATM   12  N2  UNL     1      27.376   2.292  53.047  1.00  0.00    -0.239 NA
HETATM   13  C12 UNL     1      28.564   2.256  53.623  1.00  0.00     0.234 A 
HETATM   14  N3  UNL     1      29.178   1.083  53.805  1.00  0.00    -0.240 NA
HETATM   15  C13 UNL     1      28.594  -0.051  53.406  1.00  0.00     0.088 A 
HETATM   16  C14 UNL     1      29.170  -1.318  53.537  1.00  0.00     0.148 A 
HETATM   17  C17 UNL     1      27.357   0.055  52.813  1.00  0.00     0.027 A 
HETATM   18  N4  UNL     1      28.549  -2.438  53.097  1.00  0.00    -0.271 NA
HETATM   19  C15 UNL     1      27.332  -2.348  52.508  1.00  0.00     0.117 A 
HETATM   20  C16 UNL     1      26.774  -1.097  52.386  1.00  0.00     0.035 A 
ENDBRANCH   2  11
BRANCH   1  21
HETATM   21  C4  UNL     1      26.469   2.899  50.338  1.00  0.00     0.004 C 
HETATM   22  C3  UNL     1      26.359   3.992  49.617  1.00  0.00     0.023 C 
BRANCH  22  23
HETATM   23  C2  UNL     1      27.088   4.972  48.859  1.00  0.00     0.024 C 
HETATM   24  C1  UNL     1      28.322   5.012  48.447  1.00  0.00     0.037 C 
HETATM   25 CL1  UNL     1      25.852   6.192  48.593  1.00  0.00    -0.085 Cl
ENDBRANCH  22  23
ENDBRANCH   1  21
TORSDOF 6
ENDMDL
MODEL 2
REMARK VINA RESULT:      -7.6      3.911      6.530
REMARK  6 active torsions:
REMARK  status: ('A' for Active; 'I' for Inactive)
REMARK    1  A    between atoms: C2_2  and  C3_4 
REMARK    2  A    between atoms: C4_5  and  C5_6 
REMARK    3  A    between atoms: C6_7  and  N1_8 
REMARK    4  A    between atoms: C6_7  and  C11_15 
REMARK       I    between atoms: N1_8  and  C7_9 
REMARK    5  A    between atoms: C7_9  and  C8_11 
REMARK    6  A    between atoms: C9_12  and  C10_13 
ROOT
HETATM    1  C5  UNL     1      23.943   2.095  52.462  1.00  0.00     0.032 C 
HETATM    2  C6  UNL     1      25.204   2.069  52.088  1.00  0.00     0.065 C 
ENDROOT
BRANCH   2   3
HETATM    3  N1  UNL     1      25.337   3.236  51.291  1.00  0.00    -0.314 N 
HETATM    4  C7  UNL     1      26.185   3.497  50.161  1.00  0.00     0.301 C 
HETATM    5  O1  UNL     1      26.969   2.571  49.761  1.00  0.00    -0.258 OA
HETATM    6  H6  UNL     1      24.754   4.091  51.503  1.00  0.00     0.170 HD
BRANCH   4   7
HETATM    7  C8  UNL     1      26.208   4.739  49.451  1.00  0.00    -0.003 C 
HETATM    8  C9  UNL     1      26.211   5.777  48.841  1.00  0.00    -0.065 C 
BRANCH   8   9
HETATM    9  C10 UNL     1      26.197   7.043  48.103  1.00  0.00     0.316 C 
HETATM   10  F1  UNL     1      27.377   7.244  47.425  1.00  0.00    -0.242 F 
ENDBRANCH   8   9
ENDBRANCH   4   7
ENDBRANCH   2   3
BRANCH   2  11
HETATM   11  C11 UNL     1      26.030   0.957  52.499  1.00  0.00     0.097 A 
HETATM   12  N2  UNL     1      25.589  -0.289  52.308  1.00  0.00    -0.239 NA
HETATM   13  C12 UNL     1      26.231  -1.394  52.643  1.00  0.00     0.234 A 
HETATM   14  N3  UNL     1      27.429  -1.314  53.230  1.00  0.00    -0.240 NA
HETATM   15  C13 UNL     1      27.979  -0.121  53.478  1.00  0.00     0.088 A 
HETATM   16  C14 UNL     1      29.215   0.058  54.105  1.00  0.00     0.148 A 
HETATM   17  C17 UNL     1      27.259   0.991  53.104  1.00  0.00     0.027 A 
HETATM   18  N4  UNL     1      29.721   1.288  54.356  1.00  0.00    -0.271 NA
HETATM   19  C15 UNL     1      29.023   2.392  53.997  1.00  0.00     0.117 A 
HETATM   20  C16 UNL     1      27.808   2.205  53.379  1.00  0.00     0.035 A 
ENDBRANCH   2  11
BRANCH   1  21
HETATM   21  C4  UNL     1      23.329   1.082  53.313  1.00  0.00     0.004 C 
HETATM   22  C3  UNL     1      22.091   0.672  53.149  1.00  0.00     0.023 C 
BRANCH  22  23
HETATM   23  C2  UNL     1      21.077  -0.215  53.649  1.00  0.00     0.024 C 
HETATM   24  C1  UNL     1      19.820  -0.362  53.343  1.00  0.00     0.037 C 
HETATM   25 CL1  UNL     1      21.977  -1.125  54.852  1.00  0.00    -0.085 Cl
ENDBRANCH  22  23
ENDBRANCH   1  21
TORSDOF 6
ENDMDL
MODEL 3
REMARK VINA RESULT:      -7.6      3.988      7.401
REMARK  6 active torsions:
REMARK  status: ('A' for Active; 'I' for Inactive)
REMARK    1  A    between atoms: C2_2  and  C3_4 
REMARK    2  A    between atoms: C4_5  and  C5_6 
REMARK    3  A    between atoms: C6_7  and  N1_8 
REMARK    4  A    between atoms: C6_7  and  C11_15 
REMARK       I    between atoms: N1_8  and  C7_9 
REMARK    5  A    between atoms: C7_9  and  C8_11 
REMARK    6  A    between atoms: C9_12  and  C10_13 
ROOT
HETATM    1  C5  UNL     1      22.917   0.327  53.285  1.00  0.00     0.032 C 
HETATM    2  C6  UNL     1      23.736   1.122  52.631  1.00  0.00     0.065 C 
ENDROOT
BRANCH   2   3
HETATM    3  N1  UNL     1      24.992   0.471  52.746  1.00  0.00    -0.314 N 
HETATM    4  C7  UNL     1      26.155   0.828  53.509  1.00  0.00     0.301 C 
HETATM    5  O1  UNL     1      26.117   1.890  54.218  1.00  0.00    -0.258 OA
HETATM    6  H6  UNL     1      25.176  -0.422  52.213  1.00  0.00     0.170 HD
BRANCH   4   7
HETATM    7  C8  UNL     1      27.364   0.062  53.525  1.00  0.00    -0.003 C 
HETATM    8  C9  UNL     1      28.382  -0.581  53.517  1.00  0.00    -0.065 C 
BRANCH   8   9
HETATM    9  C10 UNL     1      29.630  -1.349  53.499  1.00  0.00     0.316 C 
HETATM   10  F1  UNL     1      29.388  -2.702  53.443  1.00  0.00    -0.242 F 
ENDBRANCH   8   9
ENDBRANCH   4   7
ENDBRANCH   2   3
BRANCH   2  11
HETATM   11  C11 UNL     1      23.215   2.345  52.064  1.00  0.00     0.097 A 
HETATM   12  N2  UNL     1      23.340   3.486  52.747  1.00  0.00    -0.239 NA
HETATM   13  C12 UNL     1      22.903   4.670  52.357  1.00  0.00     0.234 A 
HETATM   14  N3  UNL     1      22.272   4.792  51.185  1.00  0.00    -0.240 NA
HETATM   15  C13 UNL     1      22.081   3.721  50.409  1.00  0.00     0.088 A 
HETATM   16  C14 UNL     1      21.414   3.751  49.181  1.00  0.00     0.148 A 
HETATM   17  C17 UNL     1      22.560   2.517  50.873  1.00  0.00     0.027 A 
HETATM   18  N4  UNL     1      21.226   2.634  48.439  1.00  0.00    -0.271 NA
HETATM   19  C15 UNL     1      21.689   1.441  48.884  1.00  0.00     0.117 A 
HETATM   20  C16 UNL     1      22.344   1.423  50.093  1.00  0.00     0.035 A 
ENDBRANCH   2  11
BRANCH   1  21
HETATM   21  C4  UNL     1      21.489   0.583  53.440  1.00  0.00     0.004 C 
HETATM   22  C3  UNL     1      20.568  -0.165  52.875  1.00  0.00     0.023 C 
BRANCH  22  23
HETATM   23  C2  UNL     1      19.152  -0.351  52.709  1.00  0.00     0.024 C 
HETATM   24  C1  UNL     1      18.303  -1.142  53.299  1.00  0.00     0.037 C 
HETATM   25 CL1  UNL     1      18.798   0.812  51.442  1.00  0.00    -0.085 Cl
ENDBRANCH  22  23
ENDBRANCH   1  21
TORSDOF 6
ENDMDL
MODEL 4
REMARK VINA RESULT:      -7.6      3.551      6.479
REMARK  6 active torsions:
REMARK  status: ('A' for Active; 'I' for Inactive)
REMARK    1  A    between atoms: C2_2  and  C3_4 
REMARK    2  A    between atoms: C4_5  and  C5_6 
REMARK    3  A    between atoms: C6_7  and  N1_8 
REMARK    4  A    between atoms: C6_7  and  C11_15 
REMARK       I    between atoms: N1_8  and  C7_9 
REMARK    5  A    between atoms: C7_9  and  C8_11 
REMARK    6  A    between atoms: C9_12  and  C10_13 
ROOT
HETATM    1  C5  UNL     1      24.371   2.892  52.354  1.00  0.00     0.032 C 
HETATM    2  C6  UNL     1      24.155   1.672  51.911  1.00  0.00     0.065 C 
ENDROOT
BRANCH   2   3
HETATM    3  N1  UNL     1      25.401   1.021  52.113  1.00  0.00    -0.314 N 
HETATM    4  C7  UNL     1      25.809   0.095  53.132  1.00  0.00     0.301 C 
HETATM    5  O1  UNL     1      24.962  -0.236  54.029  1.00  0.00    -0.258 OA
HETATM    6  H6  UNL     1      26.205   1.200  51.451  1.00  0.00     0.170 HD
BRANCH   4   7
HETATM    7  C8  UNL     1      27.116  -0.483  53.207  1.00  0.00    -0.003 C 
HETATM    8  C9  UNL     1      28.213  -0.973  53.290  1.00  0.00    -0.065 C 
BRANCH   8   9
HETATM    9  C10 UNL     1      29.540  -1.584  53.399  1.00  0.00     0.316 C 
HETATM   10  F1  UNL     1      30.524  -0.632  53.528  1.00  0.00    -0.242 F 
ENDBRANCH   8   9
ENDBRANCH   4   7
ENDBRANCH   2   3
BRANCH   2  11
HETATM   11  C11 UNL     1      22.863   1.353  51.349  1.00  0.00     0.097 A 
HETATM   12  N2  UNL     1      22.634   1.597  50.057  1.00  0.00    -0.239 NA
HETATM   13  C12 UNL     1      21.502   1.367  49.417  1.00  0.00     0.234 A 
HETATM   14  N3  UNL     1      20.461   0.848  50.075  1.00  0.00    -0.240 NA
HETATM   15  C13 UNL     1      20.563   0.560  51.377  1.00  0.00     0.088 A 
HETATM   16  C14 UNL     1      19.523   0.035  52.148  1.00  0.00     0.148 A 
HETATM   17  C17 UNL     1      21.769   0.824  51.984  1.00  0.00     0.027 A 
HETATM   18  N4  UNL     1      19.666  -0.219  53.470  1.00  0.00    -0.271 NA
HETATM   19  C15 UNL     1      20.848   0.039  54.083  1.00  0.00     0.117 A 
HETATM   20  C16 UNL     1      21.865   0.554  53.314  1.00  0.00     0.035 A 
ENDBRANCH   2  11
BRANCH   1  21
HETATM   21  C4  UNL     1      23.362   3.945  52.354  1.00  0.00     0.004 C 
HETATM   22  C3  UNL     1      23.399   4.966  51.527  1.00  0.00     0.023 C 
BRANCH  22  23
HETATM   23  C2  UNL     1      22.730   6.174  51.129  1.00  0.00     0.024 C 
HETATM   24  C1  UNL     1      21.482   6.429  50.858  1.00  0.00     0.037 C 
HETATM   25 CL1  UNL     1      24.068   7.312  51.089  1.00  0.00    -0.085 Cl
ENDBRANCH  22  23
ENDBRANCH   1  21
TORSDOF 6
ENDMDL
MODEL 5
REMARK VINA RESULT:      -7.6      3.889      6.105
REMARK  6 active torsions:
REMARK  status: ('A' for Active; 'I' for Inactive)
REMARK    1  A    between atoms: C2_2  and  C3_4 
REMARK    2  A    between atoms: C4_5  and  C5_6 
REMARK    3  A    between atoms: C6_7  and  N1_8 
REMARK    4  A    between atoms: C6_7  and  C11_15 
REMARK       I    between atoms: N1_8  and  C7_9 
REMARK    5  A    between atoms: C7_9  and  C8_11 
REMARK    6  A    between atoms: C9_12  and  C10_13 
ROOT
HETATM    1  C5  UNL     1      24.757   1.676  52.875  1.00  0.00     0.032 C 
HETATM    2  C6  UNL     1      25.979   2.089  52.615  1.00  0.00     0.065 C 
ENDROOT
BRANCH   2   3
HETATM    3  N1  UNL     1      25.777   3.189  51.740  1.00  0.00    -0.314 N 
HETATM    4  C7  UNL     1      26.240   3.402  50.397  1.00  0.00     0.301 C 
HETATM    5  O1  UNL     1      26.952   2.495  49.847  1.00  0.00    -0.258 OA
HETATM    6  H6  UNL     1      25.210   4.021  52.058  1.00  0.00     0.170 HD
BRANCH   4   7
HETATM    7  C8  UNL     1      25.953   4.577  49.632  1.00  0.00    -0.003 C 
HETATM    8  C9  UNL     1      25.710   5.554  48.971  1.00  0.00    -0.065 C 
BRANCH   8   9
HETATM    9  C10 UNL     1      25.398   6.734  48.161  1.00  0.00     0.316 C 
HETATM   10  F1  UNL     1      26.508   7.194  47.492  1.00  0.00    -0.242 F 
ENDBRANCH   8   9
ENDBRANCH   4   7
ENDBRANCH   2   3
BRANCH   2  11
HETATM   11  C11 UNL     1      27.093   1.368  53.186  1.00  0.00     0.097 A 
HETATM   12  N2  UNL     1      27.975   2.023  53.945  1.00  0.00    -0.239 NA
HETATM   13  C12 UNL     1      29.041   1.495  54.518  1.00  0.00     0.234 A 
HETATM   14  N3  UNL     1      29.308   0.196  54.356  1.00  0.00    -0.240 NA
HETATM   15  C13 UNL     1      28.501  -0.570  53.615  1.00  0.00     0.088 A 
HETATM   16  C14 UNL     1      28.713  -1.929  53.373  1.00  0.00     0.148 A 
HETATM   17  C17 UNL     1      27.407   0.042  53.045  1.00  0.00     0.027 A 
HETATM   18  N4  UNL     1      27.878  -2.659  52.596  1.00  0.00    -0.271 NA
HETATM   19  C15 UNL     1      26.799  -2.071  52.025  1.00  0.00     0.117 A 
HETATM   20  C16 UNL     1      26.599  -0.733  52.271  1.00  0.00     0.035 A 
ENDBRANCH   2  11
BRANCH   1  21
HETATM   21  C4  UNL     1      24.450   0.549  53.749  1.00  0.00     0.004 C 
HETATM   22  C3  UNL     1      23.254   0.007  53.816  1.00  0.00     0.023 C 
BRANCH  22  23
HETATM   23  C2  UNL     1      22.470  -1.022  54.442  1.00  0.00     0.024 C 
HETATM   24  C1  UNL     1      21.300  -1.519  54.160  1.00  0.00     0.037 C 
HETATM   25 CL1  UNL     1      23.519  -1.494  55.770  1.00  0.00    -0.085 Cl
ENDBRANCH  22  23
ENDBRANCH   1  21
TORSDOF 6
ENDMDL
MODEL 6
REMARK VINA RESULT:      -7.4      5.027      8.285
REMARK  6 active torsions:
REMARK  status: ('A' for Active; 'I' for Inactive)
REMARK    1  A    between atoms: C2_2  and  C3_4 
REMARK    2  A    between atoms: C4_5  and  C5_6 
REMARK    3  A    between atoms: C6_7  and  N1_8 
REMARK    4  A    between atoms: C6_7  and  C11_15 
REMARK       I    between atoms: N1_8  and  C7_9 
REMARK    5  A    between atoms: C7_9  and  C8_11 
REMARK    6  A    between atoms: C9_12  and  C10_13 
ROOT
HETATM    1  C5  UNL     1      25.251   2.752  51.843  1.00  0.00     0.032 C 
HETATM    2  C6  UNL     1      24.903   3.635  50.932  1.00  0.00     0.065 C 
ENDROOT
BRANCH   2   3
HETATM    3  N1  UNL     1      26.138   3.990  50.327  1.00  0.00    -0.314 N 
HETATM    4  C7  UNL     1      26.413   4.881  49.234  1.00  0.00     0.301 C 
HETATM    5  O1  UNL     1      25.433   5.478  48.674  1.00  0.00    -0.258 OA
HETATM    6  H6  UNL     1      27.040   3.571  50.682  1.00  0.00     0.170 HD
BRANCH   4   7
HETATM    7  C8  UNL     1      27.726   5.141  48.730  1.00  0.00    -0.003 C 
HETATM    8  C9  UNL     1      28.840   5.352  48.322  1.00  0.00    -0.065 C 
BRANCH   8   9
HETATM    9  C10 UNL     1      30.198   5.590  47.828  1.00  0.00     0.316 C 
HETATM   10  F1  UNL     1      30.821   4.414  47.480  1.00  0.00    -0.242 F 
ENDBRANCH   8   9
ENDBRANCH   4   7
ENDBRANCH   2   3
BRANCH   2  11
HETATM   11  C11 UNL     1      23.513   4.012  50.823  1.00  0.00     0.097 A 
HETATM   12  N2  UNL     1      23.015   4.922  51.663  1.00  0.00    -0.239 NA
HETATM   13  C12 UNL     1      21.766   5.351  51.684  1.00  0.00     0.234 A 
HETATM   14  N3  UNL     1      20.881   4.861  50.811  1.00  0.00    -0.240 NA
HETATM   15  C13 UNL     1      21.256   3.940  49.917  1.00  0.00     0.088 A 
HETATM   16  C14 UNL     1      20.396   3.359  48.982  1.00  0.00     0.148 A 
HETATM   17  C17 UNL     1      22.571   3.536  49.948  1.00  0.00     0.027 A 
HETATM   18  N4  UNL     1      20.816   2.412  48.111  1.00  0.00    -0.271 NA
HETATM   19  C15 UNL     1      22.108   2.001  48.131  1.00  0.00     0.117 A 
HETATM   20  C16 UNL     1      22.946   2.581  49.054  1.00  0.00     0.035 A 
ENDBRANCH   2  11
BRANCH   1  21
HETATM   21  C4  UNL     1      24.304   2.087  52.732  1.00  0.00     0.004 C 
HETATM   22  C3  UNL     1      23.691   0.970  52.410  1.00  0.00     0.023 C 
BRANCH  22  23
HETATM   23  C2  UNL     1      22.752  -0.020  52.861  1.00  0.00     0.024 C 
HETATM   24  C1  UNL     1      22.754  -0.818  53.890  1.00  0.00     0.037 C 
HETATM   25 CL1  UNL     1      21.509   0.096  51.625  1.00  0.00    -0.085 Cl
ENDBRANCH  22  23
ENDBRANCH   1  21
TORSDOF 6
ENDMDL
MODEL 7
REMARK VINA RESULT:      -7.4      5.134      8.198
REMARK  6 active torsions:
REMARK  status: ('A' for Active; 'I' for Inactive)
REMARK    1  A    between atoms: C2_2  and  C3_4 
REMARK    2  A    between atoms: C4_5  and  C5_6 
REMARK    3  A    between atoms: C6_7  and  N1_8 
REMARK    4  A    between atoms: C6_7  and  C11_15 
REMARK       I    between atoms: N1_8  and  C7_9 
REMARK    5  A    between atoms: C7_9  and  C8_11 
REMARK    6  A    between atoms: C9_12  and  C10_13 
ROOT
HETATM    1  C5  UNL     1      26.470   2.440  50.939  1.00  0.00     0.032 C 
HETATM    2  C6  UNL     1      25.817   3.506  50.528  1.00  0.00     0.065 C 
ENDROOT
BRANCH   2   3
HETATM    3  N1  UNL     1      26.809   4.260  49.848  1.00  0.00    -0.314 N 
HETATM    4  C7  UNL     1      26.674   5.363  48.938  1.00  0.00     0.301 C 
HETATM    5  O1  UNL     1      25.499   5.779  48.655  1.00  0.00    -0.258 OA
HETATM    6  H6  UNL     1      27.831   4.030  49.980  1.00  0.00     0.170 HD
BRANCH   4   7
HETATM    7  C8  UNL     1      27.780   6.030  48.323  1.00  0.00    -0.003 C 
HETATM    8  C9  UNL     1      28.720   6.573  47.801  1.00  0.00    -0.065 C 
BRANCH   8   9
HETATM    9  C10 UNL     1      29.859   7.224  47.148  1.00  0.00     0.316 C 
HETATM   10  F1  UNL     1      29.521   7.701  45.903  1.00  0.00    -0.242 F 
ENDBRANCH   8   9
ENDBRANCH   4   7
ENDBRANCH   2   3
BRANCH   2  11
HETATM   11  C11 UNL     1      24.422   3.645  50.878  1.00  0.00     0.097 A 
HETATM   12  N2  UNL     1      24.094   4.161  52.064  1.00  0.00    -0.239 NA
HETATM   13  C12 UNL     1      22.865   4.335  52.517  1.00  0.00     0.234 A 
HETATM   14  N3  UNL     1      21.822   3.978  51.761  1.00  0.00    -0.240 NA
HETATM   15  C13 UNL     1      22.019   3.446  50.551  1.00  0.00     0.088 A 
HETATM   16  C14 UNL     1      20.992   3.025  49.702  1.00  0.00     0.148 A 
HETATM   17  C17 UNL     1      23.323   3.291  50.139  1.00  0.00     0.027 A 
HETATM   18  N4  UNL     1      21.241   2.470  48.493  1.00  0.00    -0.271 NA
HETATM   19  C15 UNL     1      22.520   2.309  48.074  1.00  0.00     0.117 A 
HETATM   20  C16 UNL     1      23.523   2.727  48.917  1.00  0.00     0.035 A 
ENDBRANCH   2  11
BRANCH   1  21
HETATM   21  C4  UNL     1      25.857   1.354  51.696  1.00  0.00     0.004 C 
HETATM   22  C3  UNL     1      26.516   0.273  52.049  1.00  0.00     0.023 C 
BRANCH  22  23
HETATM   23  C2  UNL     1      26.416  -0.986  52.734  1.00  0.00     0.024 C 
HETATM   24  C1  UNL     1      26.934  -2.155  52.489  1.00  0.00     0.037 C 
HETATM   25 CL1  UNL     1      25.362  -0.565  54.076  1.00  0.00    -0.085 Cl
ENDBRANCH  22  23
ENDBRANCH   1  21
TORSDOF 6
ENDMDL
MODEL 8
REMARK VINA RESULT:      -7.3      4.413      7.857
REMARK  6 active torsions:
REMARK  status: ('A' for Active; 'I' for Inactive)
REMARK    1  A    between atoms: C2_2  and  C3_4 
REMARK    2  A    between atoms: C4_5  and  C5_6 
REMARK    3  A    between atoms: C6_7  and  N1_8 
REMARK    4  A    between atoms: C6_7  and  C11_15 
REMARK       I    between atoms: N1_8  and  C7_9 
REMARK    5  A    between atoms: C7_9  and  C8_11 
REMARK    6  A    between atoms: C9_12  and  C10_13 
ROOT
HETATM    1  C5  UNL     1      22.411   0.259  53.333  1.00  0.00     0.032 C 
HETATM    2  C6  UNL     1      23.205   0.725  52.393  1.00  0.00     0.065 C 
ENDROOT
BRANCH   2   3
HETATM    3  N1  UNL     1      24.482   0.222  52.760  1.00  0.00    -0.314 N 
HETATM    4  C7  UNL     1      25.793   0.614  52.323  1.00  0.00     0.301 C 
HETATM    5  O1  UNL     1      25.894   1.559  51.470  1.00  0.00    -0.258 OA
HETATM    6  H6  UNL     1      24.559  -0.568  53.456  1.00  0.00     0.170 HD
BRANCH   4   7
HETATM    7  C8  UNL     1      27.002   0.006  52.787  1.00  0.00    -0.003 C 
HETATM    8  C9  UNL     1      28.027  -0.487  53.182  1.00  0.00    -0.065 C 
BRANCH   8   9
HETATM    9  C10 UNL     1      29.273  -1.078  53.679  1.00  0.00     0.316 C 
HETATM   10  F1  UNL     1      30.374  -0.402  53.208  1.00  0.00    -0.242 F 
ENDBRANCH   8   9
ENDBRANCH   4   7
ENDBRANCH   2   3
BRANCH   2  11
HETATM   11  C11 UNL     1      22.646   1.576  51.368  1.00  0.00     0.097 A 
HETATM   12  N2  UNL     1      22.082   1.019  50.294  1.00  0.00    -0.239 NA
HETATM   13  C12 UNL     1      21.544   1.671  49.279  1.00  0.00     0.234 A 
HETATM   14  N3  UNL     1      21.539   3.008  49.277  1.00  0.00    -0.240 NA
HETATM   15  C13 UNL     1      22.076   3.685  50.297  1.00  0.00     0.088 A 
HETATM   16  C14 UNL     1      22.133   5.079  50.370  1.00  0.00     0.148 A 
HETATM   17  C17 UNL     1      22.620   2.945  51.322  1.00  0.00     0.027 A 
HETATM   18  N4  UNL     1      22.708   5.720  51.414  1.00  0.00    -0.271 NA
HETATM   19  C15 UNL     1      23.251   5.006  52.430  1.00  0.00     0.117 A 
HETATM   20  C16 UNL     1      23.188   3.635  52.349  1.00  0.00     0.035 A 
ENDBRANCH   2  11
BRANCH   1  21
HETATM   21  C4  UNL     1      20.976   0.514  53.382  1.00  0.00     0.004 C 
HETATM   22  C3  UNL     1      20.088  -0.324  52.895  1.00  0.00     0.023 C 
BRANCH  22  23
HETATM   23  C2  UNL     1      18.684  -0.555  52.694  1.00  0.00     0.024 C 
HETATM   24  C1  UNL     1      17.790   0.077  51.989  1.00  0.00     0.037 C 
HETATM   25 CL1  UNL     1      18.424  -1.984  53.682  1.00  0.00    -0.085 Cl
ENDBRANCH  22  23
ENDBRANCH   1  21
TORSDOF 6
ENDMDL
MODEL 9
REMARK VINA RESULT:      -7.2      3.781      6.966
REMARK  6 active torsions:
REMARK  status: ('A' for Active; 'I' for Inactive)
REMARK    1  A    between atoms: C2_2  and  C3_4 
REMARK    2  A    between atoms: C4_5  and  C5_6 
REMARK    3  A    between atoms: C6_7  and  N1_8 
REMARK    4  A    between atoms: C6_7  and  C11_15 
REMARK       I    between atoms: N1_8  and  C7_9 
REMARK    5  A    between atoms: C7_9  and  C8_11 
REMARK    6  A    between atoms: C9_12  and  C10_13 
ROOT
HETATM    1  C5  UNL     1      23.596   0.926  52.379  1.00  0.00     0.032 C 
HETATM    2  C6  UNL     1      24.599   1.754  52.184  1.00  0.00     0.065 C 
ENDROOT
BRANCH   2   3
HETATM    3  N1  UNL     1      25.744   0.951  52.432  1.00  0.00    -0.314 N 
HETATM    4  C7  UNL     1      26.832   1.146  53.349  1.00  0.00     0.301 C 
HETATM    5  O1  UNL     1      26.828   2.188  54.087  1.00  0.00    -0.258 OA
HETATM    6  H6  UNL     1      25.888   0.054  51.893  1.00  0.00     0.170 HD
BRANCH   4   7
HETATM    7  C8  UNL     1      27.929   0.238  53.489  1.00  0.00    -0.003 C 
HETATM    8  C9  UNL     1      28.842  -0.541  53.595  1.00  0.00    -0.065 C 
BRANCH   8   9
HETATM    9  C10 UNL     1      29.953  -1.489  53.706  1.00  0.00     0.316 C 
HETATM   10  F1  UNL     1      29.519  -2.789  53.589  1.00  0.00    -0.242 F 
ENDBRANCH   8   9
ENDBRANCH   4   7
ENDBRANCH   2   3
BRANCH   2  11
HETATM   11  C11 UNL     1      24.312   3.130  51.849  1.00  0.00     0.097 A 
HETATM   12  N2  UNL     1      23.313   3.758  52.472  1.00  0.00    -0.239 NA
HETATM   13  C12 UNL     1      22.934   5.006  52.259  1.00  0.00     0.234 A 
HETATM   14  N3  UNL     1      23.572   5.747  51.349  1.00  0.00    -0.240 NA
HETATM   15  C13 UNL     1      24.591   5.231  50.655  1.00  0.00     0.088 A 
HETATM   16  C14 UNL     1      25.301   5.924  49.671  1.00  0.00     0.148 A 
HETATM   17  C17 UNL     1      24.936   3.926  50.924  1.00  0.00     0.027 A 
HETATM   18  N4  UNL     1      26.313   5.351  48.977  1.00  0.00    -0.271 NA
HETATM   19  C15 UNL     1      26.662   4.066  49.229  1.00  0.00     0.117 A 
HETATM   20  C16 UNL     1      25.957   3.394  50.200  1.00  0.00     0.035 A 
ENDBRANCH   2  11
BRANCH   1  21
HETATM   21  C4  UNL     1      22.194   1.303  52.235  1.00  0.00     0.004 C 
HETATM   22  C3  UNL     1      21.253   0.437  51.932  1.00  0.00     0.023 C 
BRANCH  22  23
HETATM   23  C2  UNL     1      19.845   0.276  51.688  1.00  0.00     0.024 C 
HETATM   24  C1  UNL     1      19.091   0.615  50.683  1.00  0.00     0.037 C 
HETATM   25 CL1  UNL     1      19.332  -0.541  53.157  1.00  0.00    -0.085 Cl
ENDBRANCH  22  23
ENDBRANCH   1  21
TORSDOF 6
ENDMDL
