MODEL 1
REMARK VINA RESULT:      -7.9      0.000      0.000
REMARK  3 active torsions:
REMARK  status: ('A' for Active; 'I' for Inactive)
REMARK       I    between atoms: C3_3  and  N1_5 
REMARK    1  A    between atoms: N1_5  and  C4_6 
REMARK    2  A    between atoms: C8_12  and  N4_13 
REMARK    3  A    between atoms: N4_13  and  C9_14 
ROOT
HETATM    1  C1  UNL     1      25.123   4.979  49.288  1.00  0.00     0.022 C 
HETATM    2  C2  UNL     1      25.733   4.120  49.908  1.00  0.00    -0.016 C 
HETATM    3  C3  UNL     1      26.465   3.083  50.623  1.00  0.00     0.301 C 
HETATM    4  O1  UNL     1      26.968   2.110  49.985  1.00  0.00    -0.258 OA
HETATM    5  N1  UNL     1      26.583   3.212  52.016  1.00  0.00    -0.300 N 
HETATM    6  H2  UNL     1      26.160   4.032  52.451  1.00  0.00     0.171 HD
ENDROOT
BRANCH   5   7
HETATM    7  C4  UNL     1      27.319   2.122  52.517  1.00  0.00     0.137 C 
HETATM    8  C5  UNL     1      26.472   1.268  53.036  1.00  0.00     0.015 C 
HETATM    9  C6  UNL     1      26.904  -0.204  52.748  1.00  0.00     0.104 C 
HETATM   10  C8  UNL     1      25.323   1.141  53.945  1.00  0.00     0.234 C 
HETATM   11  C7  UNL     1      27.933   0.035  53.895  1.00  0.00     0.076 C 
HETATM   12  N2  UNL     1      27.266  -0.463  54.934  1.00  0.00    -0.180 NA
HETATM   13  C15 UNL     1      29.074   0.797  53.366  1.00  0.00     0.148 C 
HETATM   14  N3  UNL     1      25.981   0.318  55.124  1.00  0.00    -0.286 N 
HETATM   15  H5  UNL     1      25.573   0.282  56.067  1.00  0.00     0.185 HD
HETATM   16  N5  UNL     1      28.709   1.878  52.681  1.00  0.00    -0.241 NA
BRANCH  10  17
HETATM   17  N4  UNL     1      24.398   0.178  53.425  1.00  0.00    -0.364 N 
HETATM   18  H7  UNL     1      24.764  -0.431  52.638  1.00  0.00     0.162 HD
BRANCH  17  19
HETATM   19  C9  UNL     1      23.063  -0.297  53.611  1.00  0.00     0.031 A 
HETATM   20  C10 UNL     1      22.561  -1.157  54.576  1.00  0.00     0.029 A 
HETATM   21  C11 UNL     1      21.239  -1.499  54.581  1.00  0.00     0.004 A 
HETATM   22  C12 UNL     1      20.331  -1.042  53.668  1.00  0.00     0.019 A 
HETATM   23  C13 UNL     1      20.791  -0.184  52.692  1.00  0.00     0.013 A 
HETATM   24 BR1  UNL     1      19.514   0.442  51.432  1.00  0.00    -0.051 Br
HETATM   25  C14 UNL     1      22.126   0.149  52.704  1.00  0.00     0.048 A 
ENDBRANCH  17  19
ENDBRANCH  10  17
ENDBRANCH   5   7
TORSDOF 3
ENDMDL
MODEL 2
REMARK VINA RESULT:      -7.8      2.874      6.528
REMARK  3 active torsions:
REMARK  status: ('A' for Active; 'I' for Inactive)
REMARK       I    between atoms: C3_3  and  N1_5 
REMARK    1  A    between atoms: N1_5  and  C4_6 
REMARK    2  A    between atoms: C8_12  and  N4_13 
REMARK    3  A    between atoms: N4_13  and  C9_14 
ROOT
HETATM    1  C1  UNL     1      29.692  -0.570  53.621  1.00  0.00     0.022 C 
HETATM    2  C2  UNL     1      28.482  -0.509  53.452  1.00  0.00    -0.016 C 
HETATM    3  C3  UNL     1      27.042  -0.461  53.239  1.00  0.00     0.301 C 
HETATM    4  O1  UNL     1      26.456  -1.424  52.661  1.00  0.00    -0.258 OA
HETATM    5  N1  UNL     1      26.354   0.675  53.695  1.00  0.00    -0.300 N 
HETATM    6  H2  UNL     1      26.898   1.400  54.162  1.00  0.00     0.171 HD
ENDROOT
BRANCH   5   7
HETATM    7  C4  UNL     1      24.985   0.532  53.399  1.00  0.00     0.137 C 
HETATM    8  C5  UNL     1      24.636   1.519  52.611  1.00  0.00     0.015 C 
HETATM    9  C6  UNL     1      23.622   1.046  51.524  1.00  0.00     0.104 C 
HETATM   10  C8  UNL     1      24.706   2.977  52.438  1.00  0.00     0.234 C 
HETATM   11  C7  UNL     1      22.582   1.115  52.682  1.00  0.00     0.076 C 
HETATM   12  N2  UNL     1      22.077   2.333  52.489  1.00  0.00    -0.180 NA
HETATM   13  C15 UNL     1      22.713  -0.085  53.521  1.00  0.00     0.148 C 
HETATM   14  N3  UNL     1      23.183   3.360  52.629  1.00  0.00    -0.286 N 
HETATM   15  H5  UNL     1      22.878   4.314  52.862  1.00  0.00     0.185 HD
HETATM   16  N5  UNL     1      23.969  -0.335  53.884  1.00  0.00    -0.241 NA
BRANCH  10  17
HETATM   17  N4  UNL     1      24.893   3.293  51.053  1.00  0.00    -0.364 N 
HETATM   18  H7  UNL     1      24.244   2.795  50.378  1.00  0.00     0.162 HD
BRANCH  17  19
HETATM   19  C9  UNL     1      25.693   4.108  50.195  1.00  0.00     0.031 A 
HETATM   20  C10 UNL     1      26.845   3.783  49.495  1.00  0.00     0.029 A 
HETATM   21  C11 UNL     1      27.476   4.718  48.723  1.00  0.00     0.004 A 
HETATM   22  C12 UNL     1      27.042   6.006  48.582  1.00  0.00     0.019 A 
HETATM   23  C13 UNL     1      25.899   6.368  49.263  1.00  0.00     0.013 A 
HETATM   24 BR1  UNL     1      25.311   8.163  49.053  1.00  0.00    -0.051 Br
HETATM   25  C14 UNL     1      25.279   5.413  50.034  1.00  0.00     0.048 A 
ENDBRANCH  17  19
ENDBRANCH  10  17
ENDBRANCH   5   7
TORSDOF 3
ENDMDL
MODEL 3
REMARK VINA RESULT:      -7.5      3.586      5.766
REMARK  3 active torsions:
REMARK  status: ('A' for Active; 'I' for Inactive)
REMARK       I    between atoms: C3_3  and  N1_5 
REMARK    1  A    between atoms: N1_5  and  C4_6 
REMARK    2  A    between atoms: C8_12  and  N4_13 
REMARK    3  A    between atoms: N4_13  and  C9_14 
ROOT
HETATM    1  C1  UNL     1      28.028   5.898  48.138  1.00  0.00     0.022 C 
HETATM    2  C2  UNL     1      27.030   5.639  48.796  1.00  0.00    -0.016 C 
HETATM    3  C3  UNL     1      25.844   5.353  49.592  1.00  0.00     0.301 C 
HETATM    4  O1  UNL     1      25.426   6.206  50.430  1.00  0.00    -0.258 OA
HETATM    5  N1  UNL     1      25.204   4.121  49.388  1.00  0.00    -0.300 N 
HETATM    6  H2  UNL     1      25.597   3.495  48.684  1.00  0.00     0.171 HD
ENDROOT
BRANCH   5   7
HETATM    7  C4  UNL     1      24.089   4.036  50.242  1.00  0.00     0.137 C 
HETATM    8  C5  UNL     1      24.371   3.177  51.191  1.00  0.00     0.015 C 
HETATM    9  C6  UNL     1      23.794   3.641  52.565  1.00  0.00     0.104 C 
HETATM   10  C8  UNL     1      24.898   1.830  51.451  1.00  0.00     0.234 C 
HETATM   11  C7  UNL     1      22.437   3.127  51.996  1.00  0.00     0.076 C 
HETATM   12  N2  UNL     1      22.405   1.896  52.504  1.00  0.00    -0.180 NA
HETATM   13  C15 UNL     1      21.887   4.135  51.078  1.00  0.00     0.148 C 
HETATM   14  N3  UNL     1      23.595   1.112  51.987  1.00  0.00    -0.286 N 
HETATM   15  H5  UNL     1      23.495   0.089  52.003  1.00  0.00     0.185 HD
HETATM   16  N5  UNL     1      22.769   4.559  50.176  1.00  0.00    -0.241 NA
BRANCH  10  17
HETATM   17  N4  UNL     1      25.706   1.845  52.635  1.00  0.00    -0.364 N 
HETATM   18  H7  UNL     1      25.262   2.293  53.487  1.00  0.00     0.162 HD
BRANCH  17  19
HETATM   19  C9  UNL     1      26.987   1.432  53.114  1.00  0.00     0.031 A 
HETATM   20  C10 UNL     1      27.990   2.184  53.705  1.00  0.00     0.029 A 
HETATM   21  C11 UNL     1      29.161   1.596  54.094  1.00  0.00     0.004 A 
HETATM   22  C12 UNL     1      29.434   0.267  53.937  1.00  0.00     0.019 A 
HETATM   23  C13 UNL     1      28.461  -0.515  53.352  1.00  0.00     0.013 A 
HETATM   24 BR1  UNL     1      28.858  -2.361  53.143  1.00  0.00    -0.051 Br
HETATM   25  C14 UNL     1      27.289   0.095  52.968  1.00  0.00     0.048 A 
ENDBRANCH  17  19
ENDBRANCH  10  17
ENDBRANCH   5   7
TORSDOF 3
ENDMDL
MODEL 4
REMARK VINA RESULT:      -7.4      3.399      6.203
REMARK  3 active torsions:
REMARK  status: ('A' for Active; 'I' for Inactive)
REMARK       I    between atoms: C3_3  and  N1_5 
REMARK    1  A    between atoms: N1_5  and  C4_6 
REMARK    2  A    between atoms: C8_12  and  N4_13 
REMARK    3  A    between atoms: N4_13  and  C9_14 
ROOT
HETATM    1  C1  UNL     1      22.644   2.399  47.783  1.00  0.00     0.022 C 
HETATM    2  C2  UNL     1      22.120   2.046  48.830  1.00  0.00    -0.016 C 
HETATM    3  C3  UNL     1      21.489   1.650  50.082  1.00  0.00     0.301 C 
HETATM    4  O1  UNL     1      20.939   2.524  50.816  1.00  0.00    -0.258 OA
HETATM    5  N1  UNL     1      21.519   0.289  50.425  1.00  0.00    -0.300 N 
HETATM    6  H2  UNL     1      21.971  -0.352  49.772  1.00  0.00     0.171 HD
ENDROOT
BRANCH   5   7
HETATM    7  C4  UNL     1      20.863   0.112  51.657  1.00  0.00     0.137 C 
HETATM    8  C5  UNL     1      21.776  -0.060  52.581  1.00  0.00     0.015 C 
HETATM    9  C6  UNL     1      21.376   0.648  53.912  1.00  0.00     0.104 C 
HETATM   10  C8  UNL     1      22.994  -0.812  52.917  1.00  0.00     0.234 C 
HETATM   11  C7  UNL     1      20.429  -0.575  54.100  1.00  0.00     0.076 C 
HETATM   12  N2  UNL     1      21.189  -1.363  54.858  1.00  0.00    -0.180 NA
HETATM   13  C15 UNL     1      19.225  -0.383  53.279  1.00  0.00     0.148 C 
HETATM   14  N3  UNL     1      22.456  -1.711  54.102  1.00  0.00    -0.286 N 
HETATM   15  H5  UNL     1      22.935  -2.569  54.406  1.00  0.00     0.185 HD
HETATM   16  N5  UNL     1      19.498  -0.051  52.019  1.00  0.00    -0.241 NA
BRANCH  10  17
HETATM   17  N4  UNL     1      23.911   0.039  53.617  1.00  0.00    -0.364 N 
HETATM   18  H7  UNL     1      23.554   0.446  54.528  1.00  0.00     0.162 HD
BRANCH  17  19
HETATM   19  C9  UNL     1      25.236   0.563  53.522  1.00  0.00     0.031 A 
HETATM   20  C10 UNL     1      25.660   1.882  53.464  1.00  0.00     0.029 A 
HETATM   21  C11 UNL     1      26.989   2.181  53.367  1.00  0.00     0.004 A 
HETATM   22  C12 UNL     1      27.979   1.241  53.320  1.00  0.00     0.019 A 
HETATM   23  C13 UNL     1      27.599  -0.082  53.376  1.00  0.00     0.013 A 
HETATM   24 BR1  UNL     1      28.990  -1.376  53.311  1.00  0.00    -0.051 Br
HETATM   25  C14 UNL     1      26.256  -0.364  53.473  1.00  0.00     0.048 A 
ENDBRANCH  17  19
ENDBRANCH  10  17
ENDBRANCH   5   7
TORSDOF 3
ENDMDL
MODEL 5
REMARK VINA RESULT:      -7.4      3.545      5.533
REMARK  3 active torsions:
REMARK  status: ('A' for Active; 'I' for Inactive)
REMARK       I    between atoms: C3_3  and  N1_5 
REMARK    1  A    between atoms: N1_5  and  C4_6 
REMARK    2  A    between atoms: C8_12  and  N4_13 
REMARK    3  A    between atoms: N4_13  and  C9_14 
ROOT
HETATM    1  C1  UNL     1      27.955   5.153  48.493  1.00  0.00     0.022 C 
HETATM    2  C2  UNL     1      26.807   5.139  48.914  1.00  0.00    -0.016 C 
HETATM    3  C3  UNL     1      25.430   5.126  49.391  1.00  0.00     0.301 C 
HETATM    4  O1  UNL     1      24.476   5.265  48.569  1.00  0.00    -0.258 OA
HETATM    5  N1  UNL     1      25.219   4.955  50.768  1.00  0.00    -0.300 N 
HETATM    6  H2  UNL     1      26.042   4.837  51.360  1.00  0.00     0.171 HD
ENDROOT
BRANCH   5   7
HETATM    7  C4  UNL     1      23.836   4.969  51.025  1.00  0.00     0.137 C 
HETATM    8  C5  UNL     1      23.449   3.734  51.224  1.00  0.00     0.015 C 
HETATM    9  C6  UNL     1      22.373   3.651  52.352  1.00  0.00     0.104 C 
HETATM   10  C8  UNL     1      23.515   2.369  50.680  1.00  0.00     0.234 C 
HETATM   11  C7  UNL     1      21.399   4.168  51.250  1.00  0.00     0.076 C 
HETATM   12  N2  UNL     1      20.890   3.019  50.810  1.00  0.00    -0.180 NA
HETATM   13  C15 UNL     1      21.572   5.620  51.098  1.00  0.00     0.148 C 
HETATM   14  N3  UNL     1      22.008   2.159  50.251  1.00  0.00    -0.286 N 
HETATM   15  H5  UNL     1      21.721   1.441  49.575  1.00  0.00     0.185 HD
HETATM   16  N5  UNL     1      22.844   5.985  50.964  1.00  0.00    -0.241 NA
BRANCH  10  17
HETATM   17  N4  UNL     1      23.626   1.425  51.752  1.00  0.00    -0.364 N 
HETATM   18  H7  UNL     1      22.745   0.879  51.975  1.00  0.00     0.162 HD
BRANCH  17  19
HETATM   19  C9  UNL     1      24.575   0.911  52.689  1.00  0.00     0.031 A 
HETATM   20  C10 UNL     1      24.454  -0.154  53.569  1.00  0.00     0.029 A 
HETATM   21  C11 UNL     1      25.486  -0.488  54.400  1.00  0.00     0.004 A 
HETATM   22  C12 UNL     1      26.680   0.174  54.434  1.00  0.00     0.019 A 
HETATM   23  C13 UNL     1      26.839   1.239  53.574  1.00  0.00     0.013 A 
HETATM   24 BR1  UNL     1      28.507   2.147  53.635  1.00  0.00    -0.051 Br
HETATM   25  C14 UNL     1      25.789   1.560  52.745  1.00  0.00     0.048 A 
ENDBRANCH  17  19
ENDBRANCH  10  17
ENDBRANCH   5   7
TORSDOF 3
ENDMDL
MODEL 6
REMARK VINA RESULT:      -7.3      2.643      5.303
REMARK  3 active torsions:
REMARK  status: ('A' for Active; 'I' for Inactive)
REMARK       I    between atoms: C3_3  and  N1_5 
REMARK    1  A    between atoms: N1_5  and  C4_6 
REMARK    2  A    between atoms: C8_12  and  N4_13 
REMARK    3  A    between atoms: N4_13  and  C9_14 
ROOT
HETATM    1  C1  UNL     1      20.810  -1.901  54.284  1.00  0.00     0.022 C 
HETATM    2  C2  UNL     1      21.953  -1.469  54.340  1.00  0.00    -0.016 C 
HETATM    3  C3  UNL     1      23.316  -0.961  54.433  1.00  0.00     0.301 C 
HETATM    4  O1  UNL     1      23.936  -1.016  55.537  1.00  0.00    -0.258 OA
HETATM    5  N1  UNL     1      23.892  -0.425  53.271  1.00  0.00    -0.300 N 
HETATM    6  H2  UNL     1      23.329  -0.431  52.420  1.00  0.00     0.171 HD
ENDROOT
BRANCH   5   7
HETATM    7  C4  UNL     1      25.199   0.006  53.564  1.00  0.00     0.137 C 
HETATM    8  C5  UNL     1      25.367   1.186  53.021  1.00  0.00     0.015 C 
HETATM    9  C6  UNL     1      26.212   2.119  53.942  1.00  0.00     0.104 C 
HETATM   10  C8  UNL     1      25.199   1.953  51.777  1.00  0.00     0.234 C 
HETATM   11  C7  UNL     1      27.423   1.295  53.409  1.00  0.00     0.076 C 
HETATM   12  N2  UNL     1      27.829   2.073  52.407  1.00  0.00    -0.180 NA
HETATM   13  C15 UNL     1      27.488   0.015  54.128  1.00  0.00     0.148 C 
HETATM   14  N3  UNL     1      26.712   2.203  51.391  1.00  0.00    -0.286 N 
HETATM   15  H5  UNL     1      27.004   2.456  50.438  1.00  0.00     0.185 HD
HETATM   16  N5  UNL     1      26.322  -0.625  54.164  1.00  0.00    -0.241 NA
BRANCH  10  17
HETATM   17  N4  UNL     1      24.774   3.287  52.084  1.00  0.00    -0.364 N 
HETATM   18  H7  UNL     1      25.365   3.804  52.796  1.00  0.00     0.162 HD
BRANCH  17  19
HETATM   19  C9  UNL     1      23.770   4.243  51.737  1.00  0.00     0.031 A 
HETATM   20  C10 UNL     1      23.903   5.591  51.442  1.00  0.00     0.029 A 
HETATM   21  C11 UNL     1      22.806   6.346  51.137  1.00  0.00     0.004 A 
HETATM   22  C12 UNL     1      21.531   5.856  51.100  1.00  0.00     0.019 A 
HETATM   23  C13 UNL     1      21.358   4.519  51.387  1.00  0.00     0.013 A 
HETATM   24 BR1  UNL     1      19.578   3.856  51.329  1.00  0.00    -0.051 Br
HETATM   25  C14 UNL     1      22.474   3.776  51.692  1.00  0.00     0.048 A 
ENDBRANCH  17  19
ENDBRANCH  10  17
ENDBRANCH   5   7
TORSDOF 3
ENDMDL
MODEL 7
REMARK VINA RESULT:      -7.3      3.461      5.701
REMARK  3 active torsions:
REMARK  status: ('A' for Active; 'I' for Inactive)
REMARK       I    between atoms: C3_3  and  N1_5 
REMARK    1  A    between atoms: N1_5  and  C4_6 
REMARK    2  A    between atoms: C8_12  and  N4_13 
REMARK    3  A    between atoms: N4_13  and  C9_14 
ROOT
HETATM    1  C1  UNL     1      28.402   5.504  48.375  1.00  0.00     0.022 C 
HETATM    2  C2  UNL     1      27.262   5.758  48.741  1.00  0.00    -0.016 C 
HETATM    3  C3  UNL     1      25.900   6.070  49.153  1.00  0.00     0.301 C 
HETATM    4  O1  UNL     1      25.086   6.564  48.318  1.00  0.00    -0.258 OA
HETATM    5  N1  UNL     1      25.545   5.802  50.484  1.00  0.00    -0.300 N 
HETATM    6  H2  UNL     1      26.257   5.391  51.089  1.00  0.00     0.171 HD
ENDROOT
BRANCH   5   7
HETATM    7  C4  UNL     1      24.201   6.167  50.683  1.00  0.00     0.137 C 
HETATM    8  C5  UNL     1      23.498   5.070  50.813  1.00  0.00     0.015 C 
HETATM    9  C6  UNL     1      22.380   5.236  51.889  1.00  0.00     0.104 C 
HETATM   10  C8  UNL     1      23.238   3.751  50.216  1.00  0.00     0.234 C 
HETATM   11  C7  UNL     1      21.631   6.020  50.770  1.00  0.00     0.076 C 
HETATM   12  N2  UNL     1      20.867   5.056  50.260  1.00  0.00    -0.180 NA
HETATM   13  C15 UNL     1      22.180   7.382  50.686  1.00  0.00     0.148 C 
HETATM   14  N3  UNL     1      21.752   3.953  49.714  1.00  0.00    -0.286 N 
HETATM   15  H5  UNL     1      21.325   3.354  48.996  1.00  0.00     0.185 HD
HETATM   16  N5  UNL     1      23.509   7.407  50.622  1.00  0.00    -0.241 NA
BRANCH  10  17
HETATM   17  N4  UNL     1      23.046   2.779  51.251  1.00  0.00    -0.364 N 
HETATM   18  H7  UNL     1      22.085   2.770  51.698  1.00  0.00     0.162 HD
BRANCH  17  19
HETATM   19  C9  UNL     1      23.735   1.733  51.937  1.00  0.00     0.031 A 
HETATM   20  C10 UNL     1      25.073   1.376  51.881  1.00  0.00     0.029 A 
HETATM   21  C11 UNL     1      25.544   0.326  52.619  1.00  0.00     0.004 A 
HETATM   22  C12 UNL     1      24.764  -0.434  53.443  1.00  0.00     0.019 A 
HETATM   23  C13 UNL     1      23.427  -0.110  53.526  1.00  0.00     0.013 A 
HETATM   24 BR1  UNL     1      22.358  -1.178  54.679  1.00  0.00    -0.051 Br
HETATM   25  C14 UNL     1      22.972   0.949  52.776  1.00  0.00     0.048 A 
ENDBRANCH  17  19
ENDBRANCH  10  17
ENDBRANCH   5   7
TORSDOF 3
ENDMDL
MODEL 8
REMARK VINA RESULT:      -7.2      3.443      6.380
REMARK  3 active torsions:
REMARK  status: ('A' for Active; 'I' for Inactive)
REMARK       I    between atoms: C3_3  and  N1_5 
REMARK    1  A    between atoms: N1_5  and  C4_6 
REMARK    2  A    between atoms: C8_12  and  N4_13 
REMARK    3  A    between atoms: N4_13  and  C9_14 
ROOT
HETATM    1  C1  UNL     1      20.626   0.152  54.210  1.00  0.00     0.022 C 
HETATM    2  C2  UNL     1      21.037   0.745  53.222  1.00  0.00    -0.016 C 
HETATM    3  C3  UNL     1      21.529   1.427  52.033  1.00  0.00     0.301 C 
HETATM    4  O1  UNL     1      21.870   0.755  51.014  1.00  0.00    -0.258 OA
HETATM    5  N1  UNL     1      21.604   2.828  52.070  1.00  0.00    -0.300 N 
HETATM    6  H2  UNL     1      21.298   3.295  52.924  1.00  0.00     0.171 HD
ENDROOT
BRANCH   5   7
HETATM    7  C4  UNL     1      22.097   3.294  50.837  1.00  0.00     0.137 C 
HETATM    8  C5  UNL     1      23.401   3.384  50.931  1.00  0.00     0.015 C 
HETATM    9  C6  UNL     1      24.096   2.949  49.603  1.00  0.00     0.104 C 
HETATM   10  C8  UNL     1      24.496   3.896  51.767  1.00  0.00     0.234 C 
HETATM   11  C7  UNL     1      23.667   4.359  49.096  1.00  0.00     0.076 C 
HETATM   12  N2  UNL     1      24.775   5.057  49.338  1.00  0.00    -0.180 NA
HETATM   13  C15 UNL     1      22.246   4.325  48.722  1.00  0.00     0.148 C 
HETATM   14  N3  UNL     1      25.068   5.030  50.826  1.00  0.00    -0.286 N 
HETATM   15  H5  UNL     1      25.653   5.798  51.178  1.00  0.00     0.185 HD
HETATM   16  N5  UNL     1      21.471   3.787  49.661  1.00  0.00    -0.241 NA
BRANCH  10  17
HETATM   17  N4  UNL     1      25.586   2.965  51.763  1.00  0.00    -0.364 N 
HETATM   18  H7  UNL     1      26.454   3.279  51.242  1.00  0.00     0.162 HD
BRANCH  17  19
HETATM   19  C9  UNL     1      25.950   1.675  52.257  1.00  0.00     0.031 A 
HETATM   20  C10 UNL     1      25.162   0.548  52.440  1.00  0.00     0.029 A 
HETATM   21  C11 UNL     1      25.703  -0.604  52.937  1.00  0.00     0.004 A 
HETATM   22  C12 UNL     1      27.017  -0.738  53.285  1.00  0.00     0.019 A 
HETATM   23  C13 UNL     1      27.833   0.360  53.118  1.00  0.00     0.013 A 
HETATM   24 BR1  UNL     1      29.658   0.153  53.607  1.00  0.00    -0.051 Br
HETATM   25  C14 UNL     1      27.270   1.510  52.617  1.00  0.00     0.048 A 
ENDBRANCH  17  19
ENDBRANCH  10  17
ENDBRANCH   5   7
TORSDOF 3
ENDMDL
MODEL 9
REMARK VINA RESULT:      -7.1      3.004      4.457
REMARK  3 active torsions:
REMARK  status: ('A' for Active; 'I' for Inactive)
REMARK       I    between atoms: C3_3  and  N1_5 
REMARK    1  A    between atoms: N1_5  and  C4_6 
REMARK    2  A    between atoms: C8_12  and  N4_13 
REMARK    3  A    between atoms: N4_13  and  C9_14 
ROOT
HETATM    1  C1  UNL     1      21.818   4.745  49.882  1.00  0.00     0.022 C 
HETATM    2  C2  UNL     1      22.195   3.741  50.471  1.00  0.00    -0.016 C 
HETATM    3  C3  UNL     1      22.648   2.533  51.149  1.00  0.00     0.301 C 
HETATM    4  O1  UNL     1      23.036   1.536  50.471  1.00  0.00    -0.258 OA
HETATM    5  N1  UNL     1      22.634   2.531  52.553  1.00  0.00    -0.300 N 
HETATM    6  H2  UNL     1      22.319   3.379  53.023  1.00  0.00     0.171 HD
ENDROOT
BRANCH   5   7
HETATM    7  C4  UNL     1      23.105   1.287  53.014  1.00  0.00     0.137 C 
HETATM    8  C5  UNL     1      22.066   0.547  53.313  1.00  0.00     0.015 C 
HETATM    9  C6  UNL     1      22.297  -0.943  52.912  1.00  0.00     0.104 C 
HETATM   10  C8  UNL     1      20.789   0.537  54.041  1.00  0.00     0.234 C 
HETATM   11  C7  UNL     1      23.168  -0.996  54.203  1.00  0.00     0.076 C 
HETATM   12  N2  UNL     1      22.284  -1.467  55.080  1.00  0.00    -0.180 NA
HETATM   13  C15 UNL     1      24.481  -0.397  53.922  1.00  0.00     0.148 C 
HETATM   14  N3  UNL     1      21.125  -0.496  55.191  1.00  0.00    -0.286 N 
HETATM   15  H5  UNL     1      20.581  -0.549  56.062  1.00  0.00     0.185 HD
HETATM   16  N5  UNL     1      24.399   0.790  53.328  1.00  0.00    -0.241 NA
BRANCH  10  17
HETATM   17  N4  UNL     1      19.810  -0.198  53.295  1.00  0.00    -0.364 N 
HETATM   18  H7  UNL     1      19.678  -1.209  53.584  1.00  0.00     0.162 HD
BRANCH  17  19
HETATM   19  C9  UNL     1      18.872  -0.037  52.230  1.00  0.00     0.031 A 
HETATM   20  C10 UNL     1      17.682  -0.709  51.996  1.00  0.00     0.029 A 
HETATM   21  C11 UNL     1      16.919  -0.411  50.903  1.00  0.00     0.004 A 
HETATM   22  C12 UNL     1      17.252   0.539  49.979  1.00  0.00     0.019 A 
HETATM   23  C13 UNL     1      18.428   1.230  50.177  1.00  0.00     0.013 A 
HETATM   24 BR1  UNL     1      18.874   2.548  48.882  1.00  0.00    -0.051 Br
HETATM   25  C14 UNL     1      19.183   0.915  51.283  1.00  0.00     0.048 A 
ENDBRANCH  17  19
ENDBRANCH  10  17
ENDBRANCH   5   7
TORSDOF 3
ENDMDL
