MODEL 1
REMARK VINA RESULT:      -9.2      0.000      0.000
REMARK  2 active torsions:
REMARK  status: ('A' for Active; 'I' for Inactive)
REMARK    1  A    between atoms: C5_6  and  N1_7 
REMARK    2  A    between atoms: N1_7  and  C6_8 
ROOT
HETATM    1  C6  UNL     1      23.941  -0.286  53.569  1.00  0.00     0.160 A 
HETATM    2  N2  UNL     1      24.314  -0.859  54.705  1.00  0.00    -0.222 NA
HETATM    3  C7  UNL     1      23.473  -1.412  55.581  1.00  0.00     0.238 A 
HETATM    4  N3  UNL     1      22.130  -1.422  55.351  1.00  0.00    -0.215 NA
HETATM    5  C8  UNL     1      21.658  -0.857  54.210  1.00  0.00     0.202 A 
HETATM    6  C9  UNL     1      22.587  -0.290  53.323  1.00  0.00     0.129 A 
HETATM    7  N4  UNL     1      22.231   0.322  52.086  1.00  0.00    -0.379 N 
HETATM    8  C10 UNL     1      21.033   1.084  51.742  1.00  0.00     0.161 C 
HETATM    9  C11 UNL     1      19.820   0.276  52.050  1.00  0.00    -0.005 A 
HETATM   10  C12 UNL     1      18.852   0.471  51.086  1.00  0.00     0.030 A 
HETATM   11  C13 UNL     1      17.625  -0.160  51.130  1.00  0.00     0.011 A 
HETATM   12 BR2  UNL     1      16.274   0.099  49.804  1.00  0.00    -0.051 Br
HETATM   13  C14 UNL     1      17.305  -1.027  52.153  1.00  0.00     0.022 A 
HETATM   14  C15 UNL     1      18.261  -1.236  53.128  1.00  0.00     0.039 A 
HETATM   15  C16 UNL     1      19.477  -0.590  53.056  1.00  0.00     0.086 A 
HETATM   16  O1  UNL     1      20.267  -0.961  54.147  1.00  0.00    -0.289 OA
HETATM   17  H6  UNL     1      23.009   0.137  51.381  1.00  0.00     0.160 HD
ENDROOT
BRANCH   1  18
HETATM   18  N1  UNL     1      24.851   0.299  52.656  1.00  0.00    -0.339 N 
HETATM   19  H4  UNL     1      24.756   0.609  51.684  1.00  0.00     0.167 HD
BRANCH  18  20
HETATM   20  C5  UNL     1      26.196   0.614  52.960  1.00  0.00     0.035 A 
HETATM   21  C4  UNL     1      26.546   1.927  53.174  1.00  0.00     0.029 A 
HETATM   22  C3  UNL     1      27.831   2.306  53.497  1.00  0.00     0.004 A 
HETATM   23  C2  UNL     1      28.848   1.386  53.625  1.00  0.00     0.019 A 
HETATM   24  C1  UNL     1      28.555   0.057  53.421  1.00  0.00     0.013 A 
HETATM   25 BR1  UNL     1      29.842  -1.351  53.557  1.00  0.00    -0.051 Br
HETATM   26  C17 UNL     1      27.257  -0.266  53.102  1.00  0.00     0.048 A 
ENDBRANCH  18  20
ENDBRANCH   1  18
TORSDOF 2
ENDMDL
MODEL 2
REMARK VINA RESULT:      -9.0      4.095      5.198
REMARK  2 active torsions:
REMARK  status: ('A' for Active; 'I' for Inactive)
REMARK    1  A    between atoms: C5_6  and  N1_7 
REMARK    2  A    between atoms: N1_7  and  C6_8 
ROOT
HETATM    1  C6  UNL     1      25.976   2.297  51.104  1.00  0.00     0.160 A 
HETATM    2  N2  UNL     1      27.161   2.218  51.695  1.00  0.00    -0.222 NA
HETATM    3  C7  UNL     1      27.375   1.633  52.875  1.00  0.00     0.238 A 
HETATM    4  N3  UNL     1      26.352   1.061  53.569  1.00  0.00    -0.215 NA
HETATM    5  C8  UNL     1      25.103   1.095  53.038  1.00  0.00     0.202 A 
HETATM    6  C9  UNL     1      24.933   1.722  51.793  1.00  0.00     0.129 A 
HETATM    7  N4  UNL     1      23.682   1.818  51.117  1.00  0.00    -0.379 N 
HETATM    8  C10 UNL     1      22.338   1.958  51.672  1.00  0.00     0.161 C 
HETATM    9  C11 UNL     1      22.082   0.861  52.647  1.00  0.00    -0.005 A 
HETATM   10  C12 UNL     1      20.777   0.425  52.551  1.00  0.00     0.030 A 
HETATM   11  C13 UNL     1      20.274  -0.587  53.345  1.00  0.00     0.011 A 
HETATM   12 BR2  UNL     1      18.470  -1.203  53.226  1.00  0.00    -0.051 Br
HETATM   13  C14 UNL     1      21.064  -1.219  54.282  1.00  0.00     0.022 A 
HETATM   14  C15 UNL     1      22.374  -0.796  54.393  1.00  0.00     0.039 A 
HETATM   15  C16 UNL     1      22.847   0.218  53.587  1.00  0.00     0.086 A 
HETATM   16  O1  UNL     1      24.189   0.463  53.884  1.00  0.00    -0.289 OA
HETATM   17  H6  UNL     1      23.861   1.765  50.067  1.00  0.00     0.160 HD
ENDROOT
BRANCH   1  18
HETATM   18  N1  UNL     1      25.770   2.927  49.853  1.00  0.00    -0.339 N 
HETATM   19  H4  UNL     1      25.342   2.610  48.978  1.00  0.00     0.167 HD
BRANCH  18  20
HETATM   20  C5  UNL     1      26.142   4.260  49.559  1.00  0.00     0.035 A 
HETATM   21  C4  UNL     1      27.292   4.494  48.841  1.00  0.00     0.029 A 
HETATM   22  C3  UNL     1      27.703   5.764  48.498  1.00  0.00     0.004 A 
HETATM   23  C2  UNL     1      26.983   6.881  48.857  1.00  0.00     0.019 A 
HETATM   24  C1  UNL     1      25.824   6.707  49.578  1.00  0.00     0.013 A 
HETATM   25 BR1  UNL     1      24.704   8.144  50.159  1.00  0.00    -0.051 Br
HETATM   26  C17 UNL     1      25.459   5.419  49.893  1.00  0.00     0.048 A 
ENDBRANCH  18  20
ENDBRANCH   1  18
TORSDOF 2
ENDMDL
MODEL 3
REMARK VINA RESULT:      -8.6      2.380      3.652
REMARK  2 active torsions:
REMARK  status: ('A' for Active; 'I' for Inactive)
REMARK    1  A    between atoms: C5_6  and  N1_7 
REMARK    2  A    between atoms: N1_7  and  C6_8 
ROOT
HETATM    1  C6  UNL     1      24.944   2.720  51.557  1.00  0.00     0.160 A 
HETATM    2  N2  UNL     1      25.379   3.395  50.501  1.00  0.00    -0.222 NA
HETATM    3  C7  UNL     1      24.714   3.500  49.350  1.00  0.00     0.238 A 
HETATM    4  N3  UNL     1      23.503   2.899  49.183  1.00  0.00    -0.215 NA
HETATM    5  C8  UNL     1      22.980   2.187  50.215  1.00  0.00     0.202 A 
HETATM    6  C9  UNL     1      23.721   2.109  51.405  1.00  0.00     0.129 A 
HETATM    7  N4  UNL     1      23.286   1.409  52.567  1.00  0.00    -0.379 N 
HETATM    8  C10 UNL     1      22.491   0.187  52.668  1.00  0.00     0.161 C 
HETATM    9  C11 UNL     1      21.220   0.353  51.909  1.00  0.00    -0.005 A 
HETATM   10  C12 UNL     1      20.176  -0.256  52.576  1.00  0.00     0.030 A 
HETATM   11  C13 UNL     1      18.884  -0.252  52.090  1.00  0.00     0.011 A 
HETATM   12 BR2  UNL     1      17.428  -1.090  53.001  1.00  0.00    -0.051 Br
HETATM   13  C14 UNL     1      18.571   0.370  50.900  1.00  0.00     0.022 A 
HETATM   14  C15 UNL     1      19.602   0.985  50.217  1.00  0.00     0.039 A 
HETATM   15  C16 UNL     1      20.882   0.964  50.728  1.00  0.00     0.086 A 
HETATM   16  O1  UNL     1      21.740   1.648  49.864  1.00  0.00    -0.289 OA
HETATM   17  H6  UNL     1      23.636   1.931  53.428  1.00  0.00     0.160 HD
ENDROOT
BRANCH   1  18
HETATM   18  N1  UNL     1      25.670   2.618  52.768  1.00  0.00    -0.339 N 
HETATM   19  H4  UNL     1      25.585   3.095  53.672  1.00  0.00     0.167 HD
BRANCH  18  20
HETATM   20  C5  UNL     1      26.749   1.728  52.981  1.00  0.00     0.035 A 
HETATM   21  C4  UNL     1      27.950   2.224  53.434  1.00  0.00     0.029 A 
HETATM   22  C3  UNL     1      29.036   1.415  53.686  1.00  0.00     0.004 A 
HETATM   23  C2  UNL     1      28.984   0.052  53.495  1.00  0.00     0.019 A 
HETATM   24  C1  UNL     1      27.808  -0.500  53.042  1.00  0.00     0.013 A 
HETATM   25 BR1  UNL     1      27.560  -2.369  52.723  1.00  0.00    -0.051 Br
HETATM   26  C17 UNL     1      26.755   0.353  52.807  1.00  0.00     0.048 A 
ENDBRANCH  18  20
ENDBRANCH   1  18
TORSDOF 2
ENDMDL
MODEL 4
REMARK VINA RESULT:      -8.5      4.442      7.805
REMARK  2 active torsions:
REMARK  status: ('A' for Active; 'I' for Inactive)
REMARK    1  A    between atoms: C5_6  and  N1_7 
REMARK    2  A    between atoms: N1_7  and  C6_8 
ROOT
HETATM    1  C6  UNL     1      24.380   1.439  52.581  1.00  0.00     0.160 A 
HETATM    2  N2  UNL     1      25.164   0.427  52.929  1.00  0.00    -0.222 NA
HETATM    3  C7  UNL     1      26.374   0.202  52.415  1.00  0.00     0.238 A 
HETATM    4  N3  UNL     1      26.897   1.028  51.466  1.00  0.00    -0.215 NA
HETATM    5  C8  UNL     1      26.163   2.092  51.050  1.00  0.00     0.202 A 
HETATM    6  C9  UNL     1      24.896   2.284  51.624  1.00  0.00     0.129 A 
HETATM    7  N4  UNL     1      24.028   3.364  51.291  1.00  0.00    -0.379 N 
HETATM    8  C10 UNL     1      23.846   4.043  50.010  1.00  0.00     0.161 C 
HETATM    9  C11 UNL     1      25.161   4.534  49.513  1.00  0.00    -0.005 A 
HETATM   10  C12 UNL     1      25.018   5.765  48.904  1.00  0.00     0.030 A 
HETATM   11  C13 UNL     1      26.085   6.447  48.354  1.00  0.00     0.011 A 
HETATM   12 BR2  UNL     1      25.904   8.151  47.509  1.00  0.00    -0.051 Br
HETATM   13  C14 UNL     1      27.360   5.925  48.387  1.00  0.00     0.022 A 
HETATM   14  C15 UNL     1      27.524   4.694  48.992  1.00  0.00     0.039 A 
HETATM   15  C16 UNL     1      26.439   4.037  49.532  1.00  0.00     0.086 A 
HETATM   16  O1  UNL     1      26.856   2.822  50.082  1.00  0.00    -0.289 OA
HETATM   17  H6  UNL     1      23.485   3.643  52.165  1.00  0.00     0.160 HD
ENDROOT
BRANCH   1  18
HETATM   18  N1  UNL     1      23.096   1.656  53.136  1.00  0.00    -0.339 N 
HETATM   19  H4  UNL     1      22.608   2.503  53.447  1.00  0.00     0.167 HD
BRANCH  18  20
HETATM   20  C5  UNL     1      22.143   0.637  53.370  1.00  0.00     0.035 A 
HETATM   21  C4  UNL     1      22.451  -0.382  54.242  1.00  0.00     0.029 A 
HETATM   22  C3  UNL     1      21.564  -1.395  54.536  1.00  0.00     0.004 A 
HETATM   23  C2  UNL     1      20.311  -1.449  53.969  1.00  0.00     0.019 A 
HETATM   24  C1  UNL     1      19.949  -0.456  53.088  1.00  0.00     0.013 A 
HETATM   25 BR1  UNL     1      18.253  -0.375  52.210  1.00  0.00    -0.051 Br
HETATM   26  C17 UNL     1      20.872   0.531  52.830  1.00  0.00     0.048 A 
ENDBRANCH  18  20
ENDBRANCH   1  18
TORSDOF 2
ENDMDL
MODEL 5
REMARK VINA RESULT:      -8.5      4.560      7.380
REMARK  2 active torsions:
REMARK  status: ('A' for Active; 'I' for Inactive)
REMARK    1  A    between atoms: C5_6  and  N1_7 
REMARK    2  A    between atoms: N1_7  and  C6_8 
ROOT
HETATM    1  C6  UNL     1      23.151   4.439  52.324  1.00  0.00     0.160 A 
HETATM    2  N2  UNL     1      21.833   4.296  52.285  1.00  0.00    -0.222 NA
HETATM    3  C7  UNL     1      21.204   3.120  52.278  1.00  0.00     0.238 A 
HETATM    4  N3  UNL     1      21.903   1.951  52.312  1.00  0.00    -0.215 NA
HETATM    5  C8  UNL     1      23.260   2.003  52.355  1.00  0.00     0.202 A 
HETATM    6  C9  UNL     1      23.871   3.267  52.361  1.00  0.00     0.129 A 
HETATM    7  N4  UNL     1      25.281   3.467  52.417  1.00  0.00    -0.379 N 
HETATM    8  C10 UNL     1      26.354   2.654  51.848  1.00  0.00     0.161 C 
HETATM    9  C11 UNL     1      26.219   1.247  52.318  1.00  0.00    -0.005 A 
HETATM   10  C12 UNL     1      27.462   0.698  52.562  1.00  0.00     0.030 A 
HETATM   11  C13 UNL     1      27.624  -0.598  53.008  1.00  0.00     0.011 A 
HETATM   12 BR2  UNL     1      29.336  -1.373  53.349  1.00  0.00    -0.051 Br
HETATM   13  C14 UNL     1      26.538  -1.416  53.235  1.00  0.00     0.022 A 
HETATM   14  C15 UNL     1      25.285  -0.885  52.997  1.00  0.00     0.039 A 
HETATM   15  C16 UNL     1      25.155   0.413  52.551  1.00  0.00     0.086 A 
HETATM   16  O1  UNL     1      23.802   0.717  52.386  1.00  0.00    -0.289 OA
HETATM   17  H6  UNL     1      25.475   4.354  52.976  1.00  0.00     0.160 HD
ENDROOT
BRANCH   1  18
HETATM   18  N1  UNL     1      23.798   5.698  52.326  1.00  0.00    -0.339 N 
HETATM   19  H4  UNL     1      24.190   6.277  53.076  1.00  0.00     0.167 HD
BRANCH  18  20
HETATM   20  C5  UNL     1      24.068   6.460  51.164  1.00  0.00     0.035 A 
HETATM   21  C4  UNL     1      23.171   7.428  50.773  1.00  0.00     0.029 A 
HETATM   22  C3  UNL     1      23.379   8.223  49.667  1.00  0.00     0.004 A 
HETATM   23  C2  UNL     1      24.503   8.094  48.882  1.00  0.00     0.019 A 
HETATM   24  C1  UNL     1      25.435   7.141  49.226  1.00  0.00     0.013 A 
HETATM   25 BR1  UNL     1      27.049   6.826  48.251  1.00  0.00    -0.051 Br
HETATM   26  C17 UNL     1      25.178   6.375  50.340  1.00  0.00     0.048 A 
ENDBRANCH  18  20
ENDBRANCH   1  18
TORSDOF 2
ENDMDL
MODEL 6
REMARK VINA RESULT:      -8.4      2.048      8.237
REMARK  2 active torsions:
REMARK  status: ('A' for Active; 'I' for Inactive)
REMARK    1  A    between atoms: C5_6  and  N1_7 
REMARK    2  A    between atoms: N1_7  and  C6_8 
ROOT
HETATM    1  C6  UNL     1      22.380   1.887  51.757  1.00  0.00     0.160 A 
HETATM    2  N2  UNL     1      21.905   3.125  51.803  1.00  0.00    -0.222 NA
HETATM    3  C7  UNL     1      22.557   4.161  52.333  1.00  0.00     0.238 A 
HETATM    4  N3  UNL     1      23.795   4.005  52.879  1.00  0.00    -0.215 NA
HETATM    5  C8  UNL     1      24.360   2.770  52.875  1.00  0.00     0.202 A 
HETATM    6  C9  UNL     1      23.631   1.714  52.304  1.00  0.00     0.129 A 
HETATM    7  N4  UNL     1      24.109   0.374  52.220  1.00  0.00    -0.379 N 
HETATM    8  C10 UNL     1      24.964  -0.363  53.147  1.00  0.00     0.161 C 
HETATM    9  C11 UNL     1      26.220   0.401  53.385  1.00  0.00    -0.005 A 
HETATM   10  C12 UNL     1      27.297  -0.457  53.479  1.00  0.00     0.030 A 
HETATM   11  C13 UNL     1      28.583  -0.009  53.699  1.00  0.00     0.011 A 
HETATM   12 BR2  UNL     1      30.085  -1.183  53.832  1.00  0.00    -0.051 Br
HETATM   13  C14 UNL     1      28.858   1.336  53.836  1.00  0.00     0.022 A 
HETATM   14  C15 UNL     1      27.793   2.211  53.745  1.00  0.00     0.039 A 
HETATM   15  C16 UNL     1      26.519   1.733  53.525  1.00  0.00     0.086 A 
HETATM   16  O1  UNL     1      25.622   2.802  53.472  1.00  0.00    -0.289 OA
HETATM   17  H6  UNL     1      23.739  -0.061  51.320  1.00  0.00     0.160 HD
ENDROOT
BRANCH   1  18
HETATM   18  N1  UNL     1      21.669   0.801  51.193  1.00  0.00    -0.339 N 
HETATM   19  H4  UNL     1      21.826   0.226  50.360  1.00  0.00     0.167 HD
BRANCH  18  20
HETATM   20  C5  UNL     1      20.496   0.239  51.750  1.00  0.00     0.035 A 
HETATM   21  C4  UNL     1      20.562  -0.366  52.985  1.00  0.00     0.029 A 
HETATM   22  C3  UNL     1      19.457  -0.914  53.599  1.00  0.00     0.004 A 
HETATM   23  C2  UNL     1      18.213  -0.889  53.009  1.00  0.00     0.019 A 
HETATM   24  C1  UNL     1      18.088  -0.297  51.773  1.00  0.00     0.013 A 
HETATM   25 BR1  UNL     1      16.440  -0.175  50.812  1.00  0.00    -0.051 Br
HETATM   26  C17 UNL     1      19.222   0.234  51.205  1.00  0.00     0.048 A 
ENDBRANCH  18  20
ENDBRANCH   1  18
TORSDOF 2
ENDMDL
MODEL 7
REMARK VINA RESULT:      -8.4      5.817      7.124
REMARK  2 active torsions:
REMARK  status: ('A' for Active; 'I' for Inactive)
REMARK    1  A    between atoms: C5_6  and  N1_7 
REMARK    2  A    between atoms: N1_7  and  C6_8 
ROOT
HETATM    1  C6  UNL     1      23.520   6.633  51.088  1.00  0.00     0.160 A 
HETATM    2  N2  UNL     1      22.641   7.465  50.547  1.00  0.00    -0.222 NA
HETATM    3  C7  UNL     1      21.358   7.168  50.331  1.00  0.00     0.238 A 
HETATM    4  N3  UNL     1      20.857   5.946  50.665  1.00  0.00    -0.215 NA
HETATM    5  C8  UNL     1      21.687   5.030  51.226  1.00  0.00     0.202 A 
HETATM    6  C9  UNL     1      23.027   5.395  51.433  1.00  0.00     0.129 A 
HETATM    7  N4  UNL     1      24.001   4.538  52.024  1.00  0.00    -0.379 N 
HETATM    8  C10 UNL     1      24.130   3.086  51.936  1.00  0.00     0.161 C 
HETATM    9  C11 UNL     1      22.854   2.444  52.357  1.00  0.00    -0.005 A 
HETATM   10  C12 UNL     1      23.106   1.294  53.077  1.00  0.00     0.030 A 
HETATM   11  C13 UNL     1      22.096   0.503  53.587  1.00  0.00     0.011 A 
HETATM   12 BR2  UNL     1      22.428  -1.092  54.585  1.00  0.00    -0.051 Br
HETATM   13  C14 UNL     1      20.770   0.830  53.400  1.00  0.00     0.022 A 
HETATM   14  C15 UNL     1      20.497   1.977  52.682  1.00  0.00     0.039 A 
HETATM   15  C16 UNL     1      21.527   2.746  52.184  1.00  0.00     0.086 A 
HETATM   16  O1  UNL     1      21.002   3.845  51.501  1.00  0.00    -0.289 OA
HETATM   17  H6  UNL     1      24.679   5.137  52.589  1.00  0.00     0.160 HD
ENDROOT
BRANCH   1  18
HETATM   18  N1  UNL     1      24.879   6.968  51.304  1.00  0.00    -0.339 N 
HETATM   19  H4  UNL     1      25.431   7.114  52.155  1.00  0.00     0.167 HD
BRANCH  18  20
HETATM   20  C5  UNL     1      25.828   7.163  50.273  1.00  0.00     0.035 A 
HETATM   21  C4  UNL     1      26.058   6.149  49.372  1.00  0.00     0.029 A 
HETATM   22  C3  UNL     1      26.950   6.276  48.329  1.00  0.00     0.004 A 
HETATM   23  C2  UNL     1      27.668   7.433  48.126  1.00  0.00     0.019 A 
HETATM   24  C1  UNL     1      27.478   8.481  48.998  1.00  0.00     0.013 A 
HETATM   25 BR1  UNL     1      28.390  10.156  48.866  1.00  0.00    -0.051 Br
HETATM   26  C17 UNL     1      26.577   8.301  50.021  1.00  0.00     0.048 A 
ENDBRANCH  18  20
ENDBRANCH   1  18
TORSDOF 2
ENDMDL
MODEL 8
REMARK VINA RESULT:      -8.1      4.477      7.571
REMARK  2 active torsions:
REMARK  status: ('A' for Active; 'I' for Inactive)
REMARK    1  A    between atoms: C5_6  and  N1_7 
REMARK    2  A    between atoms: N1_7  and  C6_8 
ROOT
HETATM    1  C6  UNL     1      22.576   4.417  52.200  1.00  0.00     0.160 A 
HETATM    2  N2  UNL     1      21.270   4.188  52.252  1.00  0.00    -0.222 NA
HETATM    3  C7  UNL     1      20.724   2.979  52.391  1.00  0.00     0.238 A 
HETATM    4  N3  UNL     1      21.502   1.865  52.490  1.00  0.00    -0.215 NA
HETATM    5  C8  UNL     1      22.852   2.006  52.447  1.00  0.00     0.202 A 
HETATM    6  C9  UNL     1      23.375   3.301  52.300  1.00  0.00     0.129 A 
HETATM    7  N4  UNL     1      24.769   3.594  52.254  1.00  0.00    -0.379 N 
HETATM    8  C10 UNL     1      25.863   2.800  51.699  1.00  0.00     0.161 C 
HETATM    9  C11 UNL     1      25.850   1.438  52.303  1.00  0.00    -0.005 A 
HETATM   10  C12 UNL     1      27.138   0.995  52.522  1.00  0.00     0.030 A 
HETATM   11  C13 UNL     1      27.412  -0.240  53.074  1.00  0.00     0.011 A 
HETATM   12 BR2  UNL     1      29.190  -0.870  53.383  1.00  0.00    -0.051 Br
HETATM   13  C14 UNL     1      26.398  -1.100  53.440  1.00  0.00     0.022 A 
HETATM   14  C15 UNL     1      25.102  -0.674  53.229  1.00  0.00     0.039 A 
HETATM   15  C16 UNL     1      24.860   0.564  52.675  1.00  0.00     0.086 A 
HETATM   16  O1  UNL     1      23.482   0.765  52.564  1.00  0.00    -0.289 OA
HETATM   17  H6  UNL     1      24.931   4.540  52.717  1.00  0.00     0.160 HD
ENDROOT
BRANCH   1  18
HETATM   18  N1  UNL     1      23.134   5.708  52.048  1.00  0.00    -0.339 N 
HETATM   19  H4  UNL     1      23.568   6.360  52.709  1.00  0.00     0.167 HD
BRANCH  18  20
HETATM   20  C5  UNL     1      23.221   6.401  50.817  1.00  0.00     0.035 A 
HETATM   21  C4  UNL     1      23.768   7.664  50.795  1.00  0.00     0.029 A 
HETATM   22  C3  UNL     1      23.907   8.389  49.631  1.00  0.00     0.004 A 
HETATM   23  C2  UNL     1      23.502   7.889  48.413  1.00  0.00     0.019 A 
HETATM   24  C1  UNL     1      22.948   6.630  48.376  1.00  0.00     0.013 A 
HETATM   25 BR1  UNL     1      22.333   5.784  46.775  1.00  0.00    -0.051 Br
HETATM   26  C17 UNL     1      22.833   5.950  49.566  1.00  0.00     0.048 A 
ENDBRANCH  18  20
ENDBRANCH   1  18
TORSDOF 2
ENDMDL
MODEL 9
REMARK VINA RESULT:      -7.9      5.548      8.507
REMARK  2 active torsions:
REMARK  status: ('A' for Active; 'I' for Inactive)
REMARK    1  A    between atoms: C5_6  and  N1_7 
REMARK    2  A    between atoms: N1_7  and  C6_8 
ROOT
HETATM    1  C6  UNL     1      22.848   3.516  50.621  1.00  0.00     0.160 A 
HETATM    2  N2  UNL     1      21.741   4.037  51.133  1.00  0.00    -0.222 NA
HETATM    3  C7  UNL     1      21.515   5.346  51.258  1.00  0.00     0.238 A 
HETATM    4  N3  UNL     1      22.442   6.259  50.854  1.00  0.00    -0.215 NA
HETATM    5  C8  UNL     1      23.607   5.813  50.317  1.00  0.00     0.202 A 
HETATM    6  C9  UNL     1      23.793   4.426  50.207  1.00  0.00     0.129 A 
HETATM    7  N4  UNL     1      24.960   3.824  49.652  1.00  0.00    -0.379 N 
HETATM    8  C10 UNL     1      26.348   4.277  49.700  1.00  0.00     0.161 C 
HETATM    9  C11 UNL     1      26.438   5.670  49.180  1.00  0.00    -0.005 A 
HETATM   10  C12 UNL     1      27.592   5.835  48.441  1.00  0.00     0.030 A 
HETATM   11  C13 UNL     1      27.923   7.034  47.843  1.00  0.00     0.011 A 
HETATM   12 BR2  UNL     1      29.516   7.280  46.817  1.00  0.00    -0.051 Br
HETATM   13  C14 UNL     1      27.105   8.138  47.957  1.00  0.00     0.022 A 
HETATM   14  C15 UNL     1      25.945   7.993  48.693  1.00  0.00     0.039 A 
HETATM   15  C16 UNL     1      25.642   6.783  49.278  1.00  0.00     0.086 A 
HETATM   16  O1  UNL     1      24.428   6.885  49.962  1.00  0.00    -0.289 OA
HETATM   17  H6  UNL     1      24.671   2.929  49.149  1.00  0.00     0.160 HD
ENDROOT
BRANCH   1  18
HETATM   18  N1  UNL     1      23.069   2.123  50.502  1.00  0.00    -0.339 N 
HETATM   19  H4  UNL     1      23.084   1.488  49.697  1.00  0.00     0.167 HD
BRANCH  18  20
HETATM   20  C5  UNL     1      23.362   1.264  51.588  1.00  0.00     0.035 A 
HETATM   21  C4  UNL     1      24.656   1.183  52.050  1.00  0.00     0.029 A 
HETATM   22  C3  UNL     1      25.011   0.387  53.117  1.00  0.00     0.004 A 
HETATM   23  C2  UNL     1      24.085  -0.381  53.788  1.00  0.00     0.019 A 
HETATM   24  C1  UNL     1      22.775  -0.340  53.368  1.00  0.00     0.013 A 
HETATM   25 BR1  UNL     1      21.363  -1.340  54.182  1.00  0.00    -0.051 Br
HETATM   26  C17 UNL     1      22.476   0.471  52.299  1.00  0.00     0.048 A 
ENDBRANCH  18  20
ENDBRANCH   1  18
TORSDOF 2
ENDMDL
