MODEL 1
REMARK VINA RESULT:      -9.3      0.000      0.000
REMARK  5 active torsions:
REMARK  status: ('A' for Active; 'I' for Inactive)
REMARK    1  A    between atoms: C4_7  and  N4_8 
REMARK       I    between atoms: N4_8  and  C5_9 
REMARK    2  A    between atoms: C5_9  and  C6_11 
REMARK    3  A    between atoms: C7_12  and  C8_13 
REMARK    4  A    between atoms: C16_21  and  N5_22 
REMARK    5  A    between atoms: N5_22  and  C17_23 
ROOT
HETATM    1  N1  UNL     1      28.468  -0.174  55.094  1.00  0.00    -0.170 NA
HETATM    2  C1  UNL     1      27.790   0.379  54.339  1.00  0.00     0.206 C 
HETATM    3  N2  UNL     1      26.950   1.059  53.431  1.00  0.00    -0.172 NA
HETATM    4  C2  UNL     1      25.721   0.732  53.249  1.00  0.00     0.098 A 
HETATM    5  C3  UNL     1      24.993  -0.358  53.921  1.00  0.00     0.152 A 
HETATM    6  N3  UNL     1      23.777  -0.551  53.625  1.00  0.00    -0.241 NA
HETATM    7  C4  UNL     1      23.026   0.202  52.685  1.00  0.00     0.130 A 
HETATM    8  C14 UNL     1      23.559   1.224  51.998  1.00  0.00     0.065 A 
HETATM    9  C15 UNL     1      24.961   1.500  52.292  1.00  0.00     0.014 A 
HETATM   10  C16 UNL     1      25.490   2.508  51.614  1.00  0.00     0.102 C 
ENDROOT
BRANCH  10  11
HETATM   11  N5  UNL     1      24.794   3.313  50.649  1.00  0.00    -0.365 N 
HETATM   12  H12 UNL     1      23.920   2.774  50.693  1.00  0.00     0.165 HD
BRANCH  11  13
HETATM   13  C17 UNL     1      25.033   4.446  49.838  1.00  0.00     0.033 A 
HETATM   14  C18 UNL     1      23.973   5.222  49.422  1.00  0.00     0.029 A 
HETATM   15  C19 UNL     1      24.105   6.349  48.628  1.00  0.00     0.004 A 
HETATM   16  C20 UNL     1      25.416   6.659  48.264  1.00  0.00     0.019 A 
HETATM   17  C21 UNL     1      26.508   5.913  48.656  1.00  0.00     0.013 A 
HETATM   18 BR1  UNL     1      28.291   6.359  48.144  1.00  0.00    -0.051 Br
HETATM   19  C22 UNL     1      26.318   4.795  49.449  1.00  0.00     0.048 A 
ENDBRANCH  11  13
ENDBRANCH  10  11
BRANCH   7  20
HETATM   20  N4  UNL     1      21.676  -0.215  52.531  1.00  0.00    -0.308 N 
HETATM   21  C5  UNL     1      20.623  -0.102  53.472  1.00  0.00     0.246 C 
HETATM   22  O1  UNL     1      20.797   0.410  54.607  1.00  0.00    -0.268 OA
HETATM   23  H2  UNL     1      21.457  -0.659  51.590  1.00  0.00     0.170 HD
BRANCH  21  24
HETATM   24  C6  UNL     1      19.316  -0.590  53.125  1.00  0.00     0.075 C 
HETATM   25  C7  UNL     1      18.867  -1.760  53.539  1.00  0.00     0.017 C 
BRANCH  25  26
HETATM   26  C8  UNL     1      17.563  -2.333  53.239  1.00  0.00    -0.036 A 
HETATM   27  C9  UNL     1      16.573  -1.620  52.596  1.00  0.00     0.011 A 
HETATM   28  C10 UNL     1      15.339  -2.165  52.314  1.00  0.00     0.001 A 
HETATM   29  C11 UNL     1      15.023  -3.462  52.659  1.00  0.00     0.000 A 
HETATM   30  C12 UNL     1      15.991  -4.208  53.307  1.00  0.00     0.001 A 
HETATM   31  C13 UNL     1      17.204  -3.617  53.565  1.00  0.00     0.011 A 
ENDBRANCH  25  26
ENDBRANCH  21  24
ENDBRANCH   7  20
TORSDOF 5
ENDMDL
MODEL 2
REMARK VINA RESULT:      -9.1      3.031      9.560
REMARK  5 active torsions:
REMARK  status: ('A' for Active; 'I' for Inactive)
REMARK    1  A    between atoms: C4_7  and  N4_8 
REMARK       I    between atoms: N4_8  and  C5_9 
REMARK    2  A    between atoms: C5_9  and  C6_11 
REMARK    3  A    between atoms: C7_12  and  C8_13 
REMARK    4  A    between atoms: C16_21  and  N5_22 
REMARK    5  A    between atoms: N5_22  and  C17_23 
ROOT
HETATM    1  N1  UNL     1      18.088  -0.325  51.902  1.00  0.00    -0.170 NA
HETATM    2  C1  UNL     1      19.182  -0.291  52.274  1.00  0.00     0.206 C 
HETATM    3  N2  UNL     1      20.515  -0.232  52.735  1.00  0.00    -0.172 NA
HETATM    4  C2  UNL     1      21.371   0.606  52.268  1.00  0.00     0.098 A 
HETATM    5  C3  UNL     1      21.133   1.611  51.218  1.00  0.00     0.152 A 
HETATM    6  N3  UNL     1      22.089   2.365  50.868  1.00  0.00    -0.241 NA
HETATM    7  C4  UNL     1      23.403   2.333  51.404  1.00  0.00     0.130 A 
HETATM    8  C14 UNL     1      23.763   1.470  52.366  1.00  0.00     0.065 A 
HETATM    9  C15 UNL     1      22.706   0.571  52.815  1.00  0.00     0.014 A 
HETATM   10  C16 UNL     1      23.058  -0.284  53.764  1.00  0.00     0.102 C 
ENDROOT
BRANCH  10  11
HETATM   11  N5  UNL     1      24.366  -0.374  54.353  1.00  0.00    -0.365 N 
HETATM   12  H12 UNL     1      24.032  -0.335  55.324  1.00  0.00     0.165 HD
BRANCH  11  13
HETATM   13  C17 UNL     1      25.713  -0.479  53.939  1.00  0.00     0.033 A 
HETATM   14  C18 UNL     1      26.091  -1.507  53.102  1.00  0.00     0.029 A 
HETATM   15  C19 UNL     1      27.384  -1.693  52.642  1.00  0.00     0.004 A 
HETATM   16  C20 UNL     1      28.308  -0.749  53.093  1.00  0.00     0.019 A 
HETATM   17  C21 UNL     1      27.977   0.297  53.929  1.00  0.00     0.013 A 
HETATM   18 BR1  UNL     1      29.260   1.575  54.530  1.00  0.00    -0.051 Br
HETATM   19  C22 UNL     1      26.669   0.435  54.359  1.00  0.00     0.048 A 
ENDBRANCH  11  13
ENDBRANCH  10  11
BRANCH   7  20
HETATM   20  N4  UNL     1      24.298   3.283  50.841  1.00  0.00    -0.308 N 
HETATM   21  C5  UNL     1      24.166   4.693  50.827  1.00  0.00     0.246 C 
HETATM   22  O1  UNL     1      23.179   5.275  51.345  1.00  0.00    -0.268 OA
HETATM   23  H2  UNL     1      25.159   2.859  50.383  1.00  0.00     0.170 HD
BRANCH  21  24
HETATM   24  C6  UNL     1      25.188   5.487  50.200  1.00  0.00     0.075 C 
HETATM   25  C7  UNL     1      26.027   4.984  49.314  1.00  0.00     0.017 C 
BRANCH  25  26
HETATM   26  C8  UNL     1      27.088   5.709  48.630  1.00  0.00    -0.036 A 
HETATM   27  C9  UNL     1      26.889   6.951  48.066  1.00  0.00     0.011 A 
HETATM   28  C10 UNL     1      27.896   7.635  47.418  1.00  0.00     0.001 A 
HETATM   29  C11 UNL     1      29.166   7.112  47.299  1.00  0.00     0.000 A 
HETATM   30  C12 UNL     1      29.404   5.867  47.852  1.00  0.00     0.001 A 
HETATM   31  C13 UNL     1      28.366   5.228  48.486  1.00  0.00     0.011 A 
ENDBRANCH  25  26
ENDBRANCH  21  24
ENDBRANCH   7  20
TORSDOF 5
ENDMDL
MODEL 3
REMARK VINA RESULT:      -9.0      5.545     12.160
REMARK  5 active torsions:
REMARK  status: ('A' for Active; 'I' for Inactive)
REMARK    1  A    between atoms: C4_7  and  N4_8 
REMARK       I    between atoms: N4_8  and  C5_9 
REMARK    2  A    between atoms: C5_9  and  C6_11 
REMARK    3  A    between atoms: C7_12  and  C8_13 
REMARK    4  A    between atoms: C16_21  and  N5_22 
REMARK    5  A    between atoms: N5_22  and  C17_23 
ROOT
HETATM    1  N1  UNL     1      22.156   7.973  49.861  1.00  0.00    -0.170 NA
HETATM    2  C1  UNL     1      22.787   7.015  50.000  1.00  0.00     0.206 C 
HETATM    3  N2  UNL     1      23.570   5.854  50.178  1.00  0.00    -0.172 NA
HETATM    4  C2  UNL     1      24.753   5.737  49.689  1.00  0.00     0.098 A 
HETATM    5  C3  UNL     1      25.477   6.742  48.892  1.00  0.00     0.152 A 
HETATM    6  N3  UNL     1      26.644   6.468  48.481  1.00  0.00    -0.241 NA
HETATM    7  C4  UNL     1      27.340   5.255  48.721  1.00  0.00     0.130 A 
HETATM    8  C14 UNL     1      26.804   4.250  49.432  1.00  0.00     0.065 A 
HETATM    9  C15 UNL     1      25.458   4.502  49.936  1.00  0.00     0.014 A 
HETATM   10  C16 UNL     1      24.925   3.512  50.637  1.00  0.00     0.102 C 
ENDROOT
BRANCH  10  11
HETATM   11  N5  UNL     1      25.568   2.259  50.920  1.00  0.00    -0.365 N 
HETATM   12  H12 UNL     1      26.186   2.285  50.100  1.00  0.00     0.165 HD
BRANCH  11  13
HETATM   13  C17 UNL     1      25.517   1.233  51.892  1.00  0.00     0.033 A 
HETATM   14  C18 UNL     1      26.684   0.624  52.300  1.00  0.00     0.029 A 
HETATM   15  C19 UNL     1      26.739  -0.387  53.245  1.00  0.00     0.004 A 
HETATM   16  C20 UNL     1      25.502  -0.763  53.773  1.00  0.00     0.019 A 
HETATM   17  C21 UNL     1      24.309  -0.182  53.396  1.00  0.00     0.013 A 
HETATM   18 BR1  UNL     1      22.632  -0.714  54.134  1.00  0.00    -0.051 Br
HETATM   19  C22 UNL     1      24.313   0.824  52.447  1.00  0.00     0.048 A 
ENDBRANCH  11  13
ENDBRANCH  10  11
BRANCH   7  20
HETATM   20  N4  UNL     1      28.639   5.191  48.150  1.00  0.00    -0.308 N 
HETATM   21  C5  UNL     1      29.619   6.214  48.115  1.00  0.00     0.246 C 
HETATM   22  O1  UNL     1      29.417   7.348  48.618  1.00  0.00    -0.268 OA
HETATM   23  H2  UNL     1      28.880   4.256  47.704  1.00  0.00     0.170 HD
BRANCH  21  24
HETATM   24  C6  UNL     1      30.884   5.952  47.482  1.00  0.00     0.075 C 
HETATM   25  C7  UNL     1      31.386   4.735  47.388  1.00  0.00     0.017 C 
BRANCH  25  26
HETATM   26  C8  UNL     1      32.653   4.375  46.767  1.00  0.00    -0.036 A 
HETATM   27  C9  UNL     1      32.974   4.743  45.477  1.00  0.00     0.011 A 
HETATM   28  C10 UNL     1      34.174   4.401  44.892  1.00  0.00     0.001 A 
HETATM   29  C11 UNL     1      35.127   3.669  45.568  1.00  0.00     0.000 A 
HETATM   30  C12 UNL     1      34.841   3.281  46.864  1.00  0.00     0.001 A 
HETATM   31  C13 UNL     1      33.630   3.648  47.400  1.00  0.00     0.011 A 
ENDBRANCH  25  26
ENDBRANCH  21  24
ENDBRANCH   7  20
TORSDOF 5
ENDMDL
MODEL 4
REMARK VINA RESULT:      -8.9      1.629      2.187
REMARK  5 active torsions:
REMARK  status: ('A' for Active; 'I' for Inactive)
REMARK    1  A    between atoms: C4_7  and  N4_8 
REMARK       I    between atoms: N4_8  and  C5_9 
REMARK    2  A    between atoms: C5_9  and  C6_11 
REMARK    3  A    between atoms: C7_12  and  C8_13 
REMARK    4  A    between atoms: C16_21  and  N5_22 
REMARK    5  A    between atoms: N5_22  and  C17_23 
ROOT
HETATM    1  N1  UNL     1      29.336  -0.899  54.428  1.00  0.00    -0.170 NA
HETATM    2  C1  UNL     1      28.672  -0.195  53.797  1.00  0.00     0.206 C 
HETATM    3  N2  UNL     1      27.850   0.670  53.040  1.00  0.00    -0.172 NA
HETATM    4  C2  UNL     1      26.580   0.503  52.941  1.00  0.00     0.098 A 
HETATM    5  C3  UNL     1      25.782  -0.566  53.565  1.00  0.00     0.152 A 
HETATM    6  N3  UNL     1      24.532  -0.589  53.365  1.00  0.00    -0.241 NA
HETATM    7  C4  UNL     1      23.805   0.340  52.576  1.00  0.00     0.130 A 
HETATM    8  C14 UNL     1      24.400   1.365  51.947  1.00  0.00     0.065 A 
HETATM    9  C15 UNL     1      25.844   1.450  52.137  1.00  0.00     0.014 A 
HETATM   10  C16 UNL     1      26.435   2.460  51.517  1.00  0.00     0.102 C 
ENDROOT
BRANCH  10  11
HETATM   11  N5  UNL     1      25.766   3.438  50.704  1.00  0.00    -0.365 N 
HETATM   12  H12 UNL     1      24.834   3.018  50.803  1.00  0.00     0.165 HD
BRANCH  11  13
HETATM   13  C17 UNL     1      26.081   4.599  49.962  1.00  0.00     0.033 A 
HETATM   14  C18 UNL     1      27.165   4.592  49.110  1.00  0.00     0.029 A 
HETATM   15  C19 UNL     1      27.552   5.677  48.342  1.00  0.00     0.004 A 
HETATM   16  C20 UNL     1      26.754   6.812  48.489  1.00  0.00     0.019 A 
HETATM   17  C21 UNL     1      25.660   6.868  49.328  1.00  0.00     0.013 A 
HETATM   18 BR1  UNL     1      24.586   8.434  49.510  1.00  0.00    -0.051 Br
HETATM   19  C22 UNL     1      25.319   5.753  50.073  1.00  0.00     0.048 A 
ENDBRANCH  11  13
ENDBRANCH  10  11
BRANCH   7  20
HETATM   20  N4  UNL     1      22.407   0.095  52.506  1.00  0.00    -0.308 N 
HETATM   21  C5  UNL     1      21.513  -0.131  53.582  1.00  0.00     0.246 C 
HETATM   22  O1  UNL     1      21.900  -0.138  54.778  1.00  0.00    -0.268 OA
HETATM   23  H2  UNL     1      22.009   0.087  51.520  1.00  0.00     0.170 HD
BRANCH  21  24
HETATM   24  C6  UNL     1      20.122  -0.363  53.302  1.00  0.00     0.075 C 
HETATM   25  C7  UNL     1      19.596  -0.140  52.112  1.00  0.00     0.017 C 
BRANCH  25  26
HETATM   26  C8  UNL     1      18.205  -0.346  51.738  1.00  0.00    -0.036 A 
HETATM   27  C9  UNL     1      17.282  -0.902  52.599  1.00  0.00     0.011 A 
HETATM   28  C10 UNL     1      15.965  -1.096  52.241  1.00  0.00     0.001 A 
HETATM   29  C11 UNL     1      15.493  -0.742  50.995  1.00  0.00     0.000 A 
HETATM   30  C12 UNL     1      16.389  -0.182  50.103  1.00  0.00     0.001 A 
HETATM   31  C13 UNL     1      17.691  -0.010  50.510  1.00  0.00     0.011 A 
ENDBRANCH  25  26
ENDBRANCH  21  24
ENDBRANCH   7  20
TORSDOF 5
ENDMDL
MODEL 5
REMARK VINA RESULT:      -8.9      2.881      7.834
REMARK  5 active torsions:
REMARK  status: ('A' for Active; 'I' for Inactive)
REMARK    1  A    between atoms: C4_7  and  N4_8 
REMARK       I    between atoms: N4_8  and  C5_9 
REMARK    2  A    between atoms: C5_9  and  C6_11 
REMARK    3  A    between atoms: C7_12  and  C8_13 
REMARK    4  A    between atoms: C16_21  and  N5_22 
REMARK    5  A    between atoms: N5_22  and  C17_23 
ROOT
HETATM    1  N1  UNL     1      15.558  -0.284  52.952  1.00  0.00    -0.170 NA
HETATM    2  C1  UNL     1      16.425   0.043  52.262  1.00  0.00     0.206 C 
HETATM    3  N2  UNL     1      17.491   0.426  51.418  1.00  0.00    -0.172 NA
HETATM    4  C2  UNL     1      18.723   0.280  51.753  1.00  0.00     0.098 A 
HETATM    5  C3  UNL     1      19.230  -0.286  53.015  1.00  0.00     0.152 A 
HETATM    6  N3  UNL     1      20.482  -0.359  53.189  1.00  0.00    -0.241 NA
HETATM    7  C4  UNL     1      21.471   0.063  52.264  1.00  0.00     0.130 A 
HETATM    8  C14 UNL     1      21.156   0.598  51.074  1.00  0.00     0.065 A 
HETATM    9  C15 UNL     1      19.726   0.711  50.808  1.00  0.00     0.014 A 
HETATM   10  C16 UNL     1      19.411   1.239  49.635  1.00  0.00     0.102 C 
ENDROOT
BRANCH  10  11
HETATM   11  N5  UNL     1      20.355   1.688  48.649  1.00  0.00    -0.365 N 
HETATM   12  H12 UNL     1      20.161   0.930  47.983  1.00  0.00     0.165 HD
BRANCH  11  13
HETATM   13  C17 UNL     1      21.287   2.736  48.468  1.00  0.00     0.033 A 
HETATM   14  C18 UNL     1      20.946   3.825  47.696  1.00  0.00     0.029 A 
HETATM   15  C19 UNL     1      21.787   4.900  47.461  1.00  0.00     0.004 A 
HETATM   16  C20 UNL     1      23.039   4.808  48.071  1.00  0.00     0.019 A 
HETATM   17  C21 UNL     1      23.425   3.739  48.853  1.00  0.00     0.013 A 
HETATM   18 BR1  UNL     1      25.143   3.639  49.678  1.00  0.00    -0.051 Br
HETATM   19  C22 UNL     1      22.544   2.692  49.055  1.00  0.00     0.048 A 
ENDBRANCH  11  13
ENDBRANCH  10  11
BRANCH   7  20
HETATM   20  N4  UNL     1      22.811  -0.124  52.698  1.00  0.00    -0.308 N 
HETATM   21  C5  UNL     1      23.767   0.875  53.007  1.00  0.00     0.246 C 
HETATM   22  O1  UNL     1      23.502   2.100  52.920  1.00  0.00    -0.268 OA
HETATM   23  H2  UNL     1      23.105  -1.141  52.795  1.00  0.00     0.170 HD
BRANCH  21  24
HETATM   24  C6  UNL     1      25.083   0.479  53.432  1.00  0.00     0.075 C 
HETATM   25  C7  UNL     1      25.936  -0.118  52.619  1.00  0.00     0.017 C 
BRANCH  25  26
HETATM   26  C8  UNL     1      27.283  -0.552  52.959  1.00  0.00    -0.036 A 
HETATM   27  C9  UNL     1      28.238   0.316  53.447  1.00  0.00     0.011 A 
HETATM   28  C10 UNL     1      29.513  -0.099  53.768  1.00  0.00     0.001 A 
HETATM   29  C11 UNL     1      29.907  -1.411  53.619  1.00  0.00     0.000 A 
HETATM   30  C12 UNL     1      28.977  -2.311  53.131  1.00  0.00     0.001 A 
HETATM   31  C13 UNL     1      27.720  -1.846  52.827  1.00  0.00     0.011 A 
ENDBRANCH  25  26
ENDBRANCH  21  24
ENDBRANCH   7  20
TORSDOF 5
ENDMDL
MODEL 6
REMARK VINA RESULT:      -8.7      3.136      9.423
REMARK  5 active torsions:
REMARK  status: ('A' for Active; 'I' for Inactive)
REMARK    1  A    between atoms: C4_7  and  N4_8 
REMARK       I    between atoms: N4_8  and  C5_9 
REMARK    2  A    between atoms: C5_9  and  C6_11 
REMARK    3  A    between atoms: C7_12  and  C8_13 
REMARK    4  A    between atoms: C16_21  and  N5_22 
REMARK    5  A    between atoms: N5_22  and  C17_23 
ROOT
HETATM    1  N1  UNL     1      28.635  -2.886  53.082  1.00  0.00    -0.170 NA
HETATM    2  C1  UNL     1      27.636  -2.312  53.171  1.00  0.00     0.206 C 
HETATM    3  N2  UNL     1      26.415  -1.608  53.262  1.00  0.00    -0.172 NA
HETATM    4  C2  UNL     1      26.282  -0.399  52.845  1.00  0.00     0.098 A 
HETATM    5  C3  UNL     1      27.325   0.436  52.225  1.00  0.00     0.152 A 
HETATM    6  N3  UNL     1      27.028   1.615  51.869  1.00  0.00    -0.241 NA
HETATM    7  C4  UNL     1      25.756   2.226  52.013  1.00  0.00     0.130 A 
HETATM    8  C14 UNL     1      24.712   1.584  52.560  1.00  0.00     0.065 A 
HETATM    9  C15 UNL     1      24.986   0.218  52.993  1.00  0.00     0.014 A 
HETATM   10  C16 UNL     1      23.958  -0.418  53.535  1.00  0.00     0.102 C 
ENDROOT
BRANCH  10  11
HETATM   11  N5  UNL     1      22.643   0.134  53.713  1.00  0.00    -0.365 N 
HETATM   12  H12 UNL     1      22.895   0.712  54.524  1.00  0.00     0.165 HD
BRANCH  11  13
HETATM   13  C17 UNL     1      21.364   0.048  53.117  1.00  0.00     0.033 A 
HETATM   14  C18 UNL     1      20.364  -0.659  53.749  1.00  0.00     0.029 A 
HETATM   15  C19 UNL     1      19.081  -0.799  53.248  1.00  0.00     0.004 A 
HETATM   16  C20 UNL     1      18.857  -0.163  52.026  1.00  0.00     0.019 A 
HETATM   17  C21 UNL     1      19.825   0.556  51.356  1.00  0.00     0.013 A 
HETATM   18 BR1  UNL     1      19.492   1.417  49.687  1.00  0.00    -0.051 Br
HETATM   19  C22 UNL     1      21.091   0.663  51.904  1.00  0.00     0.048 A 
ENDBRANCH  11  13
ENDBRANCH  10  11
BRANCH   7  20
HETATM   20  N4  UNL     1      25.679   3.562  51.535  1.00  0.00    -0.308 N 
HETATM   21  C5  UNL     1      25.389   3.994  50.218  1.00  0.00     0.246 C 
HETATM   22  O1  UNL     1      25.157   3.182  49.286  1.00  0.00    -0.268 OA
HETATM   23  H2  UNL     1      25.865   4.305  52.273  1.00  0.00     0.170 HD
BRANCH  21  24
HETATM   24  C6  UNL     1      25.360   5.403  49.932  1.00  0.00     0.075 C 
HETATM   25  C7  UNL     1      26.184   5.963  49.065  1.00  0.00     0.017 C 
BRANCH  25  26
HETATM   26  C8  UNL     1      26.227   7.375  48.713  1.00  0.00    -0.036 A 
HETATM   27  C9  UNL     1      25.992   7.824  47.430  1.00  0.00     0.011 A 
HETATM   28  C10 UNL     1      26.033   9.162  47.100  1.00  0.00     0.001 A 
HETATM   29  C11 UNL     1      26.313  10.132  48.039  1.00  0.00     0.000 A 
HETATM   30  C12 UNL     1      26.555   9.720  49.337  1.00  0.00     0.001 A 
HETATM   31  C13 UNL     1      26.502   8.375  49.613  1.00  0.00     0.011 A 
ENDBRANCH  25  26
ENDBRANCH  21  24
ENDBRANCH   7  20
TORSDOF 5
ENDMDL
MODEL 7
REMARK VINA RESULT:      -8.7      3.657      9.619
REMARK  5 active torsions:
REMARK  status: ('A' for Active; 'I' for Inactive)
REMARK    1  A    between atoms: C4_7  and  N4_8 
REMARK       I    between atoms: N4_8  and  C5_9 
REMARK    2  A    between atoms: C5_9  and  C6_11 
REMARK    3  A    between atoms: C7_12  and  C8_13 
REMARK    4  A    between atoms: C16_21  and  N5_22 
REMARK    5  A    between atoms: N5_22  and  C17_23 
ROOT
HETATM    1  N1  UNL     1      28.501  -2.797  53.087  1.00  0.00    -0.170 NA
HETATM    2  C1  UNL     1      27.508  -2.208  53.145  1.00  0.00     0.206 C 
HETATM    3  N2  UNL     1      26.295  -1.487  53.199  1.00  0.00    -0.172 NA
HETATM    4  C2  UNL     1      26.183  -0.290  52.744  1.00  0.00     0.098 A 
HETATM    5  C3  UNL     1      27.244   0.513  52.113  1.00  0.00     0.152 A 
HETATM    6  N3  UNL     1      26.967   1.684  51.717  1.00  0.00    -0.241 NA
HETATM    7  C4  UNL     1      25.701   2.314  51.825  1.00  0.00     0.130 A 
HETATM    8  C14 UNL     1      24.641   1.703  52.377  1.00  0.00     0.065 A 
HETATM    9  C15 UNL     1      24.893   0.347  52.855  1.00  0.00     0.014 A 
HETATM   10  C16 UNL     1      23.850  -0.259  53.403  1.00  0.00     0.102 C 
ENDROOT
BRANCH  10  11
HETATM   11  N5  UNL     1      22.540   0.314  53.546  1.00  0.00    -0.365 N 
HETATM   12  H12 UNL     1      22.784   0.901  54.353  1.00  0.00     0.165 HD
BRANCH  11  13
HETATM   13  C17 UNL     1      21.272   0.237  52.926  1.00  0.00     0.033 A 
HETATM   14  C18 UNL     1      20.998   1.032  51.833  1.00  0.00     0.029 A 
HETATM   15  C19 UNL     1      19.789   1.028  51.158  1.00  0.00     0.004 A 
HETATM   16  C20 UNL     1      18.837   0.145  51.669  1.00  0.00     0.019 A 
HETATM   17  C21 UNL     1      19.064  -0.670  52.758  1.00  0.00     0.013 A 
HETATM   18 BR1  UNL     1      17.744  -1.870  53.435  1.00  0.00    -0.051 Br
HETATM   19  C22 UNL     1      20.292  -0.625  53.395  1.00  0.00     0.048 A 
ENDBRANCH  11  13
ENDBRANCH  10  11
BRANCH   7  20
HETATM   20  N4  UNL     1      25.647   3.636  51.306  1.00  0.00    -0.308 N 
HETATM   21  C5  UNL     1      25.153   4.051  50.044  1.00  0.00     0.246 C 
HETATM   22  O1  UNL     1      24.685   3.233  49.211  1.00  0.00    -0.268 OA
HETATM   23  H2  UNL     1      26.028   4.383  51.960  1.00  0.00     0.170 HD
BRANCH  21  24
HETATM   24  C6  UNL     1      25.188   5.447  49.701  1.00  0.00     0.075 C 
HETATM   25  C7  UNL     1      26.223   5.998  49.096  1.00  0.00     0.017 C 
BRANCH  25  26
HETATM   26  C8  UNL     1      26.347   7.396  48.711  1.00  0.00    -0.036 A 
HETATM   27  C9  UNL     1      26.641   8.390  49.621  1.00  0.00     0.011 A 
HETATM   28  C10 UNL     1      26.757   9.713  49.253  1.00  0.00     0.001 A 
HETATM   29  C11 UNL     1      26.585  10.120  47.947  1.00  0.00     0.000 A 
HETATM   30  C12 UNL     1      26.288   9.152  47.005  1.00  0.00     0.001 A 
HETATM   31  C13 UNL     1      26.183   7.847  47.425  1.00  0.00     0.011 A 
ENDBRANCH  25  26
ENDBRANCH  21  24
ENDBRANCH   7  20
TORSDOF 5
ENDMDL
MODEL 8
REMARK VINA RESULT:      -8.5      3.913      7.442
REMARK  5 active torsions:
REMARK  status: ('A' for Active; 'I' for Inactive)
REMARK    1  A    between atoms: C4_7  and  N4_8 
REMARK       I    between atoms: N4_8  and  C5_9 
REMARK    2  A    between atoms: C5_9  and  C6_11 
REMARK    3  A    between atoms: C7_12  and  C8_13 
REMARK    4  A    between atoms: C16_21  and  N5_22 
REMARK    5  A    between atoms: N5_22  and  C17_23 
ROOT
HETATM    1  N1  UNL     1      23.782   9.545  45.541  1.00  0.00    -0.170 NA
HETATM    2  C1  UNL     1      24.618   9.023  46.143  1.00  0.00     0.206 C 
HETATM    3  N2  UNL     1      25.637   8.368  46.871  1.00  0.00    -0.172 NA
HETATM    4  C2  UNL     1      25.403   7.357  47.629  1.00  0.00     0.098 A 
HETATM    5  C3  UNL     1      24.095   6.723  47.870  1.00  0.00     0.152 A 
HETATM    6  N3  UNL     1      24.036   5.728  48.652  1.00  0.00    -0.241 NA
HETATM    7  C4  UNL     1      25.136   5.150  49.337  1.00  0.00     0.130 A 
HETATM    8  C14 UNL     1      26.386   5.624  49.214  1.00  0.00     0.065 A 
HETATM    9  C15 UNL     1      26.524   6.772  48.325  1.00  0.00     0.014 A 
HETATM   10  C16 UNL     1      27.756   7.243  48.201  1.00  0.00     0.102 C 
ENDROOT
BRANCH  10  11
HETATM   11  N5  UNL     1      28.916   6.711  48.862  1.00  0.00    -0.365 N 
HETATM   12  H12 UNL     1      28.489   6.692  49.797  1.00  0.00     0.165 HD
BRANCH  11  13
HETATM   13  C17 UNL     1      30.231   6.305  48.540  1.00  0.00     0.033 A 
HETATM   14  C18 UNL     1      31.300   7.080  48.936  1.00  0.00     0.029 A 
HETATM   15  C19 UNL     1      32.622   6.767  48.670  1.00  0.00     0.004 A 
HETATM   16  C20 UNL     1      32.811   5.583  47.955  1.00  0.00     0.019 A 
HETATM   17  C21 UNL     1      31.774   4.775  47.539  1.00  0.00     0.013 A 
HETATM   18 BR1  UNL     1      32.060   3.161  46.563  1.00  0.00    -0.051 Br
HETATM   19  C22 UNL     1      30.471   5.137  47.832  1.00  0.00     0.048 A 
ENDBRANCH  11  13
ENDBRANCH  10  11
BRANCH   7  20
HETATM   20  N4  UNL     1      24.807   4.040  50.160  1.00  0.00    -0.308 N 
HETATM   21  C5  UNL     1      24.128   4.056  51.404  1.00  0.00     0.246 C 
HETATM   22  O1  UNL     1      23.728   5.125  51.930  1.00  0.00    -0.268 OA
HETATM   23  H2  UNL     1      25.116   3.098  49.775  1.00  0.00     0.170 HD
BRANCH  21  24
HETATM   24  C6  UNL     1      23.890   2.814  52.089  1.00  0.00     0.075 C 
HETATM   25  C7  UNL     1      22.674   2.392  52.381  1.00  0.00     0.017 C 
BRANCH  25  26
HETATM   26  C8  UNL     1      22.338   1.154  53.069  1.00  0.00    -0.036 A 
HETATM   27  C9  UNL     1      21.044   0.832  53.421  1.00  0.00     0.011 A 
HETATM   28  C10 UNL     1      20.730  -0.342  54.073  1.00  0.00     0.001 A 
HETATM   29  C11 UNL     1      21.696  -1.265  54.410  1.00  0.00     0.000 A 
HETATM   30  C12 UNL     1      23.006  -0.977  54.073  1.00  0.00     0.001 A 
HETATM   31  C13 UNL     1      23.266   0.207  53.425  1.00  0.00     0.011 A 
ENDBRANCH  25  26
ENDBRANCH  21  24
ENDBRANCH   7  20
TORSDOF 5
ENDMDL
MODEL 9
REMARK VINA RESULT:      -8.5      5.477     12.333
REMARK  5 active torsions:
REMARK  status: ('A' for Active; 'I' for Inactive)
REMARK    1  A    between atoms: C4_7  and  N4_8 
REMARK       I    between atoms: N4_8  and  C5_9 
REMARK    2  A    between atoms: C5_9  and  C6_11 
REMARK    3  A    between atoms: C7_12  and  C8_13 
REMARK    4  A    between atoms: C16_21  and  N5_22 
REMARK    5  A    between atoms: N5_22  and  C17_23 
ROOT
HETATM    1  N1  UNL     1      20.499   6.165  48.138  1.00  0.00    -0.170 NA
HETATM    2  C1  UNL     1      21.385   5.588  48.605  1.00  0.00     0.206 C 
HETATM    3  N2  UNL     1      22.472   4.898  49.185  1.00  0.00    -0.172 NA
HETATM    4  C2  UNL     1      23.686   5.304  49.074  1.00  0.00     0.098 A 
HETATM    5  C3  UNL     1      24.149   6.505  48.357  1.00  0.00     0.152 A 
HETATM    6  N3  UNL     1      25.388   6.765  48.342  1.00  0.00    -0.241 NA
HETATM    7  C4  UNL     1      26.402   5.992  48.964  1.00  0.00     0.130 A 
HETATM    8  C14 UNL     1      26.128   4.872  49.651  1.00  0.00     0.065 A 
HETATM    9  C15 UNL     1      24.714   4.514  49.708  1.00  0.00     0.014 A 
HETATM   10  C16 UNL     1      24.440   3.409  50.384  1.00  0.00     0.102 C 
ENDROOT
BRANCH  10  11
HETATM   11  N5  UNL     1      25.411   2.576  51.039  1.00  0.00    -0.365 N 
HETATM   12  H12 UNL     1      26.222   3.141  50.758  1.00  0.00     0.165 HD
BRANCH  11  13
HETATM   13  C17 UNL     1      25.449   1.397  51.817  1.00  0.00     0.033 A 
HETATM   14  C18 UNL     1      26.617   0.668  51.893  1.00  0.00     0.029 A 
HETATM   15  C19 UNL     1      26.754  -0.497  52.628  1.00  0.00     0.004 A 
HETATM   16  C20 UNL     1      25.603  -0.901  53.306  1.00  0.00     0.019 A 
HETATM   17  C21 UNL     1      24.412  -0.206  53.261  1.00  0.00     0.013 A 
HETATM   18 BR1  UNL     1      22.853  -0.779  54.198  1.00  0.00    -0.051 Br
HETATM   19  C22 UNL     1      24.332   0.954  52.510  1.00  0.00     0.048 A 
ENDBRANCH  11  13
ENDBRANCH  10  11
BRANCH   7  20
HETATM   20  N4  UNL     1      27.721   6.495  48.800  1.00  0.00    -0.308 N 
HETATM   21  C5  UNL     1      28.877   5.778  48.405  1.00  0.00     0.246 C 
HETATM   22  O1  UNL     1      28.843   4.548  48.148  1.00  0.00    -0.268 OA
HETATM   23  H2  UNL     1      27.824   7.534  49.001  1.00  0.00     0.170 HD
BRANCH  21  24
HETATM   24  C6  UNL     1      30.131   6.474  48.297  1.00  0.00     0.075 C 
HETATM   25  C7  UNL     1      31.287   5.885  48.542  1.00  0.00     0.017 C 
BRANCH  25  26
HETATM   26  C8  UNL     1      32.600   6.507  48.458  1.00  0.00    -0.036 A 
HETATM   27  C9  UNL     1      32.769   7.839  48.140  1.00  0.00     0.011 A 
HETATM   28  C10 UNL     1      34.014   8.425  48.061  1.00  0.00     0.001 A 
HETATM   29  C11 UNL     1      35.168   7.709  48.297  1.00  0.00     0.000 A 
HETATM   30  C12 UNL     1      35.039   6.369  48.618  1.00  0.00     0.001 A 
HETATM   31  C13 UNL     1      33.775   5.834  48.683  1.00  0.00     0.011 A 
ENDBRANCH  25  26
ENDBRANCH  21  24
ENDBRANCH   7  20
TORSDOF 5
ENDMDL
