MODEL 1
REMARK VINA RESULT:      -8.2      0.000      0.000
REMARK  6 active torsions:
REMARK  status: ('A' for Active; 'I' for Inactive)
REMARK    1  A    between atoms: C2_2  and  O1_3 
REMARK    2  A    between atoms: O1_3  and  C3_4 
REMARK    3  A    between atoms: C4_5  and  O2_6 
REMARK    4  A    between atoms: C8_11  and  C9_12 
REMARK    5  A    between atoms: C12_15  and  O4_16 
REMARK    6  A    between atoms: C17_22  and  O6_23 
ROOT
HETATM    1  C3  UNL     1      27.843   0.709  53.920  1.00  0.00     0.136 A 
HETATM    2  C4  UNL     1      28.095   1.862  53.172  1.00  0.00     0.104 A 
HETATM    3  C5  UNL     1      27.077   2.516  52.476  1.00  0.00     0.077 A 
HETATM    4  C6  UNL     1      25.798   1.994  52.542  1.00  0.00     0.094 A 
HETATM    5  O3  UNL     1      24.892   2.665  51.861  1.00  0.00    -0.321 OA
HETATM    6  C7  UNL     1      23.628   2.246  51.859  1.00  0.00     0.159 A 
HETATM    7  C8  UNL     1      23.309   1.104  52.583  1.00  0.00     0.048 A 
HETATM    8  C15 UNL     1      24.254   0.399  53.298  1.00  0.00     0.200 A 
HETATM    9  O5  UNL     1      23.967  -0.628  53.949  1.00  0.00    -0.286 OA
HETATM   10  C16 UNL     1      25.557   0.855  53.283  1.00  0.00     0.085 A 
HETATM   11  C17 UNL     1      26.562   0.208  53.971  1.00  0.00     0.119 A 
ENDROOT
BRANCH   7  12
HETATM   12  C9  UNL     1      21.903   0.663  52.563  1.00  0.00    -0.020 A 
HETATM   13  C10 UNL     1      21.154   0.249  53.647  1.00  0.00     0.015 A 
HETATM   14  C11 UNL     1      19.851  -0.124  53.399  1.00  0.00     0.037 A 
HETATM   15  C12 UNL     1      19.274  -0.103  52.151  1.00  0.00     0.065 A 
HETATM   16  C13 UNL     1      20.020   0.307  51.086  1.00  0.00     0.037 A 
HETATM   17  C14 UNL     1      21.327   0.689  51.288  1.00  0.00     0.015 A 
BRANCH  15  18
HETATM   18  O4  UNL     1      17.962  -0.492  51.994  1.00  0.00    -0.361 OA
HETATM   19  H11 UNL     1      17.242  -0.019  52.517  1.00  0.00     0.217 HD
ENDBRANCH  15  18
ENDBRANCH   7  12
BRANCH  11  20
HETATM   20  O6  UNL     1      26.300  -0.932  54.707  1.00  0.00    -0.357 OA
HETATM   21  H14 UNL     1      26.663  -1.840  54.536  1.00  0.00     0.218 HD
ENDBRANCH  11  20
BRANCH   1  22
HETATM   22  O1  UNL     1      28.921   0.124  54.581  1.00  0.00    -0.346 OA
BRANCH  22  23
HETATM   23  C2  UNL     1      29.872  -0.539  53.767  1.00  0.00     0.171 C 
HETATM   24  C1  UNL     1      29.377  -1.898  53.323  1.00  0.00     0.034 C 
ENDBRANCH  22  23
ENDBRANCH   1  22
BRANCH   2  25
HETATM   25  O2  UNL     1      29.366   2.391  53.100  1.00  0.00    -0.358 OA
HETATM   26  H6  UNL     1      29.552   3.127  52.430  1.00  0.00     0.217 HD
ENDBRANCH   2  25
TORSDOF 6
ENDMDL
MODEL 2
REMARK VINA RESULT:      -8.2      1.731      7.626
REMARK  6 active torsions:
REMARK  status: ('A' for Active; 'I' for Inactive)
REMARK    1  A    between atoms: C2_2  and  O1_3 
REMARK    2  A    between atoms: O1_3  and  C3_4 
REMARK    3  A    between atoms: C4_5  and  O2_6 
REMARK    4  A    between atoms: C8_11  and  C9_12 
REMARK    5  A    between atoms: C12_15  and  O4_16 
REMARK    6  A    between atoms: C17_22  and  O6_23 
ROOT
HETATM    1  C3  UNL     1      20.563  -0.036  52.493  1.00  0.00     0.136 A 
HETATM    2  C4  UNL     1      20.172  -0.756  53.624  1.00  0.00     0.104 A 
HETATM    3  C5  UNL     1      21.103  -1.193  54.567  1.00  0.00     0.077 A 
HETATM    4  C6  UNL     1      22.437  -0.895  54.357  1.00  0.00     0.094 A 
HETATM    5  O3  UNL     1      23.256  -1.339  55.289  1.00  0.00    -0.321 OA
HETATM    6  C7  UNL     1      24.562  -1.106  55.183  1.00  0.00     0.159 A 
HETATM    7  C8  UNL     1      25.018  -0.394  54.080  1.00  0.00     0.048 A 
HETATM    8  C15 UNL     1      24.166   0.074  53.102  1.00  0.00     0.200 A 
HETATM    9  O5  UNL     1      24.576   0.714  52.111  1.00  0.00    -0.286 OA
HETATM   10  C16 UNL     1      22.816  -0.182  53.238  1.00  0.00     0.085 A 
HETATM   11  C17 UNL     1      21.897   0.249  52.305  1.00  0.00     0.119 A 
ENDROOT
BRANCH   7  12
HETATM   12  C9  UNL     1      26.469  -0.149  53.987  1.00  0.00    -0.020 A 
HETATM   13  C10 UNL     1      27.159   0.924  54.513  1.00  0.00     0.015 A 
HETATM   14  C11 UNL     1      28.521   0.954  54.305  1.00  0.00     0.037 A 
HETATM   15  C12 UNL     1      29.209  -0.016  53.613  1.00  0.00     0.065 A 
HETATM   16  C13 UNL     1      28.520  -1.072  53.096  1.00  0.00     0.037 A 
HETATM   17  C14 UNL     1      27.158  -1.142  53.280  1.00  0.00     0.015 A 
BRANCH  15  18
HETATM   18  O4  UNL     1      30.573   0.094  53.453  1.00  0.00    -0.361 OA
HETATM   19  H11 UNL     1      31.020  -0.393  52.692  1.00  0.00     0.217 HD
ENDBRANCH  15  18
ENDBRANCH   7  12
BRANCH  11  20
HETATM   20  O6  UNL     1      22.295   0.962  51.190  1.00  0.00    -0.357 OA
HETATM   21  H14 UNL     1      21.724   1.553  50.633  1.00  0.00     0.218 HD
ENDBRANCH  11  20
BRANCH   1  22
HETATM   22  O1  UNL     1      19.564   0.359  51.605  1.00  0.00    -0.346 OA
BRANCH  22  23
HETATM   23  C2  UNL     1      19.077   1.681  51.756  1.00  0.00     0.171 C 
HETATM   24  C1  UNL     1      18.783   2.325  50.418  1.00  0.00     0.034 C 
ENDBRANCH  22  23
ENDBRANCH   1  22
BRANCH   2  25
HETATM   25  O2  UNL     1      18.844  -1.058  53.842  1.00  0.00    -0.358 OA
HETATM   26  H6  UNL     1      18.605  -1.973  54.202  1.00  0.00     0.217 HD
ENDBRANCH   2  25
TORSDOF 6
ENDMDL
MODEL 3
REMARK VINA RESULT:      -8.0      2.964      6.773
REMARK  6 active torsions:
REMARK  status: ('A' for Active; 'I' for Inactive)
REMARK    1  A    between atoms: C2_2  and  O1_3 
REMARK    2  A    between atoms: O1_3  and  C3_4 
REMARK    3  A    between atoms: C4_5  and  O2_6 
REMARK    4  A    between atoms: C8_11  and  C9_12 
REMARK    5  A    between atoms: C12_15  and  O4_16 
REMARK    6  A    between atoms: C17_22  and  O6_23 
ROOT
HETATM    1  C3  UNL     1      24.317   5.221  50.595  1.00  0.00     0.136 A 
HETATM    2  C4  UNL     1      23.078   5.047  51.216  1.00  0.00     0.104 A 
HETATM    3  C5  UNL     1      22.812   3.931  52.012  1.00  0.00     0.077 A 
HETATM    4  C6  UNL     1      23.813   2.990  52.174  1.00  0.00     0.094 A 
HETATM    5  O3  UNL     1      23.488   1.966  52.938  1.00  0.00    -0.321 OA
HETATM    6  C7  UNL     1      24.380   1.003  53.160  1.00  0.00     0.159 A 
HETATM    7  C8  UNL     1      25.634   1.115  52.571  1.00  0.00     0.048 A 
HETATM    8  C15 UNL     1      25.978   2.184  51.771  1.00  0.00     0.200 A 
HETATM    9  O5  UNL     1      27.106   2.286  51.242  1.00  0.00    -0.286 OA
HETATM   10  C16 UNL     1      25.034   3.169  51.558  1.00  0.00     0.085 A 
HETATM   11  C17 UNL     1      25.297   4.271  50.772  1.00  0.00     0.119 A 
ENDROOT
BRANCH   7  12
HETATM   12  C9  UNL     1      26.602   0.035  52.832  1.00  0.00    -0.020 A 
HETATM   13  C10 UNL     1      27.807   0.152  53.497  1.00  0.00     0.015 A 
HETATM   14  C11 UNL     1      28.561  -0.994  53.629  1.00  0.00     0.037 A 
HETATM   15  C12 UNL     1      28.177  -2.222  53.141  1.00  0.00     0.065 A 
HETATM   16  C13 UNL     1      26.987  -2.328  52.485  1.00  0.00     0.037 A 
HETATM   17  C14 UNL     1      26.201  -1.208  52.331  1.00  0.00     0.015 A 
BRANCH  15  18
HETATM   18  O4  UNL     1      28.994  -3.317  53.319  1.00  0.00    -0.361 OA
HETATM   19  H11 UNL     1      28.733  -4.021  53.990  1.00  0.00     0.217 HD
ENDBRANCH  15  18
ENDBRANCH   7  12
BRANCH  11  20
HETATM   20  O6  UNL     1      26.527   4.433  50.163  1.00  0.00    -0.357 OA
HETATM   21  H14 UNL     1      27.372   3.972  50.408  1.00  0.00     0.218 HD
ENDBRANCH  11  20
BRANCH   1  22
HETATM   22  O1  UNL     1      24.492   6.366  49.820  1.00  0.00    -0.346 OA
BRANCH  22  23
HETATM   23  C2  UNL     1      25.027   7.498  50.483  1.00  0.00     0.171 C 
HETATM   24  C1  UNL     1      26.352   7.921  49.886  1.00  0.00     0.034 C 
ENDBRANCH  22  23
ENDBRANCH   1  22
BRANCH   2  25
HETATM   25  O2  UNL     1      22.075   5.979  51.060  1.00  0.00    -0.358 OA
HETATM   26  H6  UNL     1      22.230   6.764  50.439  1.00  0.00     0.217 HD
ENDBRANCH   2  25
TORSDOF 6
ENDMDL
MODEL 4
REMARK VINA RESULT:      -7.9      2.810      4.334
REMARK  6 active torsions:
REMARK  status: ('A' for Active; 'I' for Inactive)
REMARK    1  A    between atoms: C2_2  and  O1_3 
REMARK    2  A    between atoms: O1_3  and  C3_4 
REMARK    3  A    between atoms: C4_5  and  O2_6 
REMARK    4  A    between atoms: C8_11  and  C9_12 
REMARK    5  A    between atoms: C12_15  and  O4_16 
REMARK    6  A    between atoms: C17_22  and  O6_23 
ROOT
HETATM    1  C3  UNL     1      27.078   1.182  53.736  1.00  0.00     0.136 A 
HETATM    2  C4  UNL     1      26.144   0.293  54.275  1.00  0.00     0.104 A 
HETATM    3  C5  UNL     1      24.861   0.171  53.739  1.00  0.00     0.077 A 
HETATM    4  C6  UNL     1      24.529   0.956  52.650  1.00  0.00     0.094 A 
HETATM    5  O3  UNL     1      23.302   0.785  52.200  1.00  0.00    -0.321 OA
HETATM    6  C7  UNL     1      22.881   1.493  51.154  1.00  0.00     0.159 A 
HETATM    7  C8  UNL     1      23.761   2.396  50.570  1.00  0.00     0.048 A 
HETATM    8  C15 UNL     1      25.046   2.579  51.037  1.00  0.00     0.200 A 
HETATM    9  O5  UNL     1      25.837   3.390  50.512  1.00  0.00    -0.286 OA
HETATM   10  C16 UNL     1      25.456   1.831  52.123  1.00  0.00     0.085 A 
HETATM   11  C17 UNL     1      26.724   1.953  52.652  1.00  0.00     0.119 A 
ENDROOT
BRANCH   7  12
HETATM   12  C9  UNL     1      23.270   3.167  49.414  1.00  0.00    -0.020 A 
HETATM   13  C10 UNL     1      23.309   4.538  49.261  1.00  0.00     0.015 A 
HETATM   14  C11 UNL     1      22.790   5.051  48.092  1.00  0.00     0.037 A 
HETATM   15  C12 UNL     1      22.247   4.277  47.092  1.00  0.00     0.065 A 
HETATM   16  C13 UNL     1      22.212   2.924  47.251  1.00  0.00     0.037 A 
HETATM   17  C14 UNL     1      22.721   2.368  48.403  1.00  0.00     0.015 A 
BRANCH  15  18
HETATM   18  O4  UNL     1      21.751   4.875  45.955  1.00  0.00    -0.361 OA
HETATM   19  H11 UNL     1      20.883   4.544  45.564  1.00  0.00     0.217 HD
ENDBRANCH  15  18
ENDBRANCH   7  12
BRANCH  11  20
HETATM   20  O6  UNL     1      27.639   2.835  52.110  1.00  0.00    -0.357 OA
HETATM   21  H14 UNL     1      28.203   2.680  51.307  1.00  0.00     0.218 HD
ENDBRANCH  11  20
BRANCH   1  22
HETATM   22  O1  UNL     1      28.334   1.237  54.337  1.00  0.00    -0.346 OA
BRANCH  22  23
HETATM   23  C2  UNL     1      29.409   0.690  53.594  1.00  0.00     0.171 C 
HETATM   24  C1  UNL     1      29.564  -0.795  53.845  1.00  0.00     0.034 C 
ENDBRANCH  22  23
ENDBRANCH   1  22
BRANCH   2  25
HETATM   25  O2  UNL     1      26.466  -0.494  55.360  1.00  0.00    -0.358 OA
HETATM   26  H6  UNL     1      26.262  -0.149  56.290  1.00  0.00     0.217 HD
ENDBRANCH   2  25
TORSDOF 6
ENDMDL
MODEL 5
REMARK VINA RESULT:      -7.4      3.623      6.016
REMARK  6 active torsions:
REMARK  status: ('A' for Active; 'I' for Inactive)
REMARK    1  A    between atoms: C2_2  and  O1_3 
REMARK    2  A    between atoms: O1_3  and  C3_4 
REMARK    3  A    between atoms: C4_5  and  O2_6 
REMARK    4  A    between atoms: C8_11  and  C9_12 
REMARK    5  A    between atoms: C12_15  and  O4_16 
REMARK    6  A    between atoms: C17_22  and  O6_23 
ROOT
HETATM    1  C3  UNL     1      23.948   6.173  50.024  1.00  0.00     0.136 A 
HETATM    2  C4  UNL     1      23.613   5.687  48.757  1.00  0.00     0.104 A 
HETATM    3  C5  UNL     1      23.174   4.375  48.573  1.00  0.00     0.077 A 
HETATM    4  C6  UNL     1      23.076   3.555  49.682  1.00  0.00     0.094 A 
HETATM    5  O3  UNL     1      22.656   2.333  49.430  1.00  0.00    -0.321 OA
HETATM    6  C7  UNL     1      22.526   1.463  50.429  1.00  0.00     0.159 A 
HETATM    7  C8  UNL     1      22.843   1.882  51.716  1.00  0.00     0.048 A 
HETATM    8  C15 UNL     1      23.283   3.161  51.985  1.00  0.00     0.200 A 
HETATM    9  O5  UNL     1      23.568   3.538  53.142  1.00  0.00    -0.286 OA
HETATM   10  C16 UNL     1      23.408   4.043  50.930  1.00  0.00     0.085 A 
HETATM   11  C17 UNL     1      23.842   5.338  51.113  1.00  0.00     0.119 A 
ENDROOT
BRANCH   7  12
HETATM   12  C9  UNL     1      22.690   0.900  52.803  1.00  0.00    -0.020 A 
HETATM   13  C10 UNL     1      21.535   0.623  53.508  1.00  0.00     0.015 A 
HETATM   14  C11 UNL     1      21.619  -0.339  54.491  1.00  0.00     0.037 A 
HETATM   15  C12 UNL     1      22.774  -1.023  54.795  1.00  0.00     0.065 A 
HETATM   16  C13 UNL     1      23.909  -0.744  54.095  1.00  0.00     0.037 A 
HETATM   17  C14 UNL     1      23.871   0.211  53.103  1.00  0.00     0.015 A 
BRANCH  15  18
HETATM   18  O4  UNL     1      22.767  -1.971  55.794  1.00  0.00    -0.361 OA
HETATM   19  H11 UNL     1      23.325  -2.803  55.688  1.00  0.00     0.217 HD
ENDBRANCH  15  18
ENDBRANCH   7  12
BRANCH  11  20
HETATM   20  O6  UNL     1      24.170   5.808  52.371  1.00  0.00    -0.357 OA
HETATM   21  H14 UNL     1      24.513   6.714  52.590  1.00  0.00     0.218 HD
ENDBRANCH  11  20
BRANCH   1  22
HETATM   22  O1  UNL     1      24.376   7.496  50.111  1.00  0.00    -0.346 OA
BRANCH  22  23
HETATM   23  C2  UNL     1      25.775   7.698  50.213  1.00  0.00     0.171 C 
HETATM   24  C1  UNL     1      26.347   8.292  48.944  1.00  0.00     0.034 C 
ENDBRANCH  22  23
ENDBRANCH   1  22
BRANCH   2  25
HETATM   25  O2  UNL     1      23.707   6.497  47.645  1.00  0.00    -0.358 OA
HETATM   26  H6  UNL     1      22.976   6.452  46.946  1.00  0.00     0.217 HD
ENDBRANCH   2  25
TORSDOF 6
ENDMDL
MODEL 6
REMARK VINA RESULT:      -7.4      2.180      3.595
REMARK  6 active torsions:
REMARK  status: ('A' for Active; 'I' for Inactive)
REMARK    1  A    between atoms: C2_2  and  O1_3 
REMARK    2  A    between atoms: O1_3  and  C3_4 
REMARK    3  A    between atoms: C4_5  and  O2_6 
REMARK    4  A    between atoms: C8_11  and  C9_12 
REMARK    5  A    between atoms: C12_15  and  O4_16 
REMARK    6  A    between atoms: C17_22  and  O6_23 
ROOT
HETATM    1  C3  UNL     1      26.372   1.172  53.849  1.00  0.00     0.136 A 
HETATM    2  C4  UNL     1      25.845   0.049  54.492  1.00  0.00     0.104 A 
HETATM    3  C5  UNL     1      24.603  -0.479  54.136  1.00  0.00     0.077 A 
HETATM    4  C6  UNL     1      23.894   0.141  53.123  1.00  0.00     0.094 A 
HETATM    5  O3  UNL     1      22.732  -0.414  52.844  1.00  0.00    -0.321 OA
HETATM    6  C7  UNL     1      21.970   0.105  51.883  1.00  0.00     0.159 A 
HETATM    7  C8  UNL     1      22.435   1.224  51.203  1.00  0.00     0.048 A 
HETATM    8  C15 UNL     1      23.651   1.808  51.491  1.00  0.00     0.200 A 
HETATM    9  O5  UNL     1      24.069   2.814  50.880  1.00  0.00    -0.286 OA
HETATM   10  C16 UNL     1      24.421   1.249  52.492  1.00  0.00     0.085 A 
HETATM   11  C17 UNL     1      25.648   1.771  52.843  1.00  0.00     0.119 A 
ENDROOT
BRANCH   7  12
HETATM   12  C9  UNL     1      21.572   1.778  50.144  1.00  0.00    -0.020 A 
HETATM   13  C10 UNL     1      21.706   1.580  48.785  1.00  0.00     0.015 A 
HETATM   14  C11 UNL     1      20.782   2.198  47.969  1.00  0.00     0.037 A 
HETATM   15  C12 UNL     1      19.755   2.984  48.438  1.00  0.00     0.065 A 
HETATM   16  C13 UNL     1      19.630   3.175  49.782  1.00  0.00     0.037 A 
HETATM   17  C14 UNL     1      20.531   2.576  50.633  1.00  0.00     0.015 A 
BRANCH  15  18
HETATM   18  O4  UNL     1      18.875   3.564  47.551  1.00  0.00    -0.361 OA
HETATM   19  H11 UNL     1      18.679   4.549  47.624  1.00  0.00     0.217 HD
ENDBRANCH  15  18
ENDBRANCH   7  12
BRANCH  11  20
HETATM   20  O6  UNL     1      26.158   2.883  52.199  1.00  0.00    -0.357 OA
HETATM   21  H14 UNL     1      25.683   3.739  52.035  1.00  0.00     0.218 HD
ENDBRANCH  11  20
BRANCH   1  22
HETATM   22  O1  UNL     1      27.619   1.629  54.270  1.00  0.00    -0.346 OA
BRANCH  22  23
HETATM   23  C2  UNL     1      28.706   1.380  53.397  1.00  0.00     0.171 C 
HETATM   24  C1  UNL     1      29.468   0.133  53.793  1.00  0.00     0.034 C 
ENDBRANCH  22  23
ENDBRANCH   1  22
BRANCH   2  25
HETATM   25  O2  UNL     1      26.544  -0.575  55.503  1.00  0.00    -0.358 OA
HETATM   26  H6  UNL     1      26.035  -0.923  56.306  1.00  0.00     0.217 HD
ENDBRANCH   2  25
TORSDOF 6
ENDMDL
MODEL 7
REMARK VINA RESULT:      -7.3      3.304      5.886
REMARK  6 active torsions:
REMARK  status: ('A' for Active; 'I' for Inactive)
REMARK    1  A    between atoms: C2_2  and  O1_3 
REMARK    2  A    between atoms: O1_3  and  C3_4 
REMARK    3  A    between atoms: C4_5  and  O2_6 
REMARK    4  A    between atoms: C8_11  and  C9_12 
REMARK    5  A    between atoms: C12_15  and  O4_16 
REMARK    6  A    between atoms: C17_22  and  O6_23 
ROOT
HETATM    1  C3  UNL     1      25.041   5.675  49.722  1.00  0.00     0.136 A 
HETATM    2  C4  UNL     1      26.273   5.269  49.203  1.00  0.00     0.104 A 
HETATM    3  C5  UNL     1      26.852   4.052  49.568  1.00  0.00     0.077 A 
HETATM    4  C6  UNL     1      26.174   3.247  50.465  1.00  0.00     0.094 A 
HETATM    5  O3  UNL     1      26.782   2.116  50.761  1.00  0.00    -0.321 OA
HETATM    6  C7  UNL     1      26.214   1.268  51.615  1.00  0.00     0.159 A 
HETATM    7  C8  UNL     1      24.987   1.612  52.169  1.00  0.00     0.048 A 
HETATM    8  C15 UNL     1      24.346   2.794  51.863  1.00  0.00     0.200 A 
HETATM    9  O5  UNL     1      23.243   3.102  52.361  1.00  0.00    -0.286 OA
HETATM   10  C16 UNL     1      24.958   3.655  50.973  1.00  0.00     0.085 A 
HETATM   11  C17 UNL     1      24.385   4.856  50.614  1.00  0.00     0.119 A 
ENDROOT
BRANCH   7  12
HETATM   12  C9  UNL     1      24.380   0.655  53.112  1.00  0.00    -0.020 A 
HETATM   13  C10 UNL     1      23.052   0.279  53.164  1.00  0.00     0.015 A 
HETATM   14  C11 UNL     1      22.700  -0.635  54.133  1.00  0.00     0.037 A 
HETATM   15  C12 UNL     1      23.590  -1.179  55.030  1.00  0.00     0.065 A 
HETATM   16  C13 UNL     1      24.899  -0.803  54.972  1.00  0.00     0.037 A 
HETATM   17  C14 UNL     1      25.295   0.108  54.019  1.00  0.00     0.015 A 
BRANCH  15  18
HETATM   18  O4  UNL     1      23.150  -2.089  55.967  1.00  0.00    -0.361 OA
HETATM   19  H11 UNL     1      22.627  -2.895  55.663  1.00  0.00     0.217 HD
ENDBRANCH  15  18
ENDBRANCH   7  12
BRANCH  11  20
HETATM   20  O6  UNL     1      23.166   5.247  51.134  1.00  0.00    -0.357 OA
HETATM   21  H14 UNL     1      22.271   5.057  50.746  1.00  0.00     0.218 HD
ENDBRANCH  11  20
BRANCH   1  22
HETATM   22  O1  UNL     1      24.540   6.905  49.301  1.00  0.00    -0.346 OA
BRANCH  22  23
HETATM   23  C2  UNL     1      24.627   7.970  50.231  1.00  0.00     0.171 C 
HETATM   24  C1  UNL     1      25.741   8.932  49.877  1.00  0.00     0.034 C 
ENDBRANCH  22  23
ENDBRANCH   1  22
BRANCH   2  25
HETATM   25  O2  UNL     1      26.956   6.064  48.308  1.00  0.00    -0.358 OA
HETATM   26  H6  UNL     1      26.475   6.389  47.479  1.00  0.00     0.217 HD
ENDBRANCH   2  25
TORSDOF 6
ENDMDL
MODEL 8
REMARK VINA RESULT:      -7.2      2.298      4.172
REMARK  6 active torsions:
REMARK  status: ('A' for Active; 'I' for Inactive)
REMARK    1  A    between atoms: C2_2  and  O1_3 
REMARK    2  A    between atoms: O1_3  and  C3_4 
REMARK    3  A    between atoms: C4_5  and  O2_6 
REMARK    4  A    between atoms: C8_11  and  C9_12 
REMARK    5  A    between atoms: C12_15  and  O4_16 
REMARK    6  A    between atoms: C17_22  and  O6_23 
ROOT
HETATM    1  C3  UNL     1      25.245   3.359  51.041  1.00  0.00     0.136 A 
HETATM    2  C4  UNL     1      26.130   2.507  51.707  1.00  0.00     0.104 A 
HETATM    3  C5  UNL     1      25.684   1.352  52.351  1.00  0.00     0.077 A 
HETATM    4  C6  UNL     1      24.332   1.064  52.317  1.00  0.00     0.094 A 
HETATM    5  O3  UNL     1      23.987  -0.041  52.947  1.00  0.00    -0.321 OA
HETATM    6  C7  UNL     1      22.709  -0.410  52.974  1.00  0.00     0.159 A 
HETATM    7  C8  UNL     1      21.775   0.393  52.331  1.00  0.00     0.048 A 
HETATM    8  C15 UNL     1      22.131   1.551  51.670  1.00  0.00     0.200 A 
HETATM    9  O5  UNL     1      21.292   2.273  51.091  1.00  0.00    -0.286 OA
HETATM   10  C16 UNL     1      23.464   1.910  51.657  1.00  0.00     0.085 A 
HETATM   11  C17 UNL     1      23.903   3.051  51.021  1.00  0.00     0.119 A 
ENDROOT
BRANCH   7  12
HETATM   12  C9  UNL     1      20.367  -0.038  52.376  1.00  0.00    -0.020 A 
HETATM   13  C10 UNL     1      19.396   0.217  51.428  1.00  0.00     0.015 A 
HETATM   14  C11 UNL     1      18.135  -0.284  51.674  1.00  0.00     0.037 A 
HETATM   15  C12 UNL     1      17.808  -1.012  52.795  1.00  0.00     0.065 A 
HETATM   16  C13 UNL     1      18.773  -1.259  53.726  1.00  0.00     0.037 A 
HETATM   17  C14 UNL     1      20.046  -0.777  53.521  1.00  0.00     0.015 A 
BRANCH  15  18
HETATM   18  O4  UNL     1      16.522  -1.476  52.960  1.00  0.00    -0.361 OA
HETATM   19  H11 UNL     1      16.242  -2.325  52.497  1.00  0.00     0.217 HD
ENDBRANCH  15  18
ENDBRANCH   7  12
BRANCH  11  20
HETATM   20  O6  UNL     1      23.019   3.886  50.365  1.00  0.00    -0.357 OA
HETATM   21  H14 UNL     1      22.300   4.428  50.784  1.00  0.00     0.218 HD
ENDBRANCH  11  20
BRANCH   1  22
HETATM   22  O1  UNL     1      25.781   4.489  50.426  1.00  0.00    -0.346 OA
BRANCH  22  23
HETATM   23  C2  UNL     1      26.127   4.355  49.059  1.00  0.00     0.171 C 
HETATM   24  C1  UNL     1      27.488   4.951  48.766  1.00  0.00     0.034 C 
ENDBRANCH  22  23
ENDBRANCH   1  22
BRANCH   2  25
HETATM   25  O2  UNL     1      27.480   2.786  51.746  1.00  0.00    -0.358 OA
HETATM   26  H6  UNL     1      28.096   2.149  52.236  1.00  0.00     0.217 HD
ENDBRANCH   2  25
TORSDOF 6
ENDMDL
MODEL 9
REMARK VINA RESULT:      -7.1      3.380      6.154
REMARK  6 active torsions:
REMARK  status: ('A' for Active; 'I' for Inactive)
REMARK    1  A    between atoms: C2_2  and  O1_3 
REMARK    2  A    between atoms: O1_3  and  C3_4 
REMARK    3  A    between atoms: C4_5  and  O2_6 
REMARK    4  A    between atoms: C8_11  and  C9_12 
REMARK    5  A    between atoms: C12_15  and  O4_16 
REMARK    6  A    between atoms: C17_22  and  O6_23 
ROOT
HETATM    1  C3  UNL     1      24.244   0.241  53.321  1.00  0.00     0.136 A 
HETATM    2  C4  UNL     1      25.567  -0.183  53.167  1.00  0.00     0.104 A 
HETATM    3  C5  UNL     1      26.449   0.482  52.314  1.00  0.00     0.077 A 
HETATM    4  C6  UNL     1      25.983   1.582  51.617  1.00  0.00     0.094 A 
HETATM    5  O3  UNL     1      26.873   2.157  50.834  1.00  0.00    -0.321 OA
HETATM    6  C7  UNL     1      26.527   3.225  50.118  1.00  0.00     0.159 A 
HETATM    7  C8  UNL     1      25.225   3.698  50.225  1.00  0.00     0.048 A 
HETATM    8  C15 UNL     1      24.290   3.100  51.044  1.00  0.00     0.200 A 
HETATM    9  O5  UNL     1      23.119   3.526  51.141  1.00  0.00    -0.286 OA
HETATM   10  C16 UNL     1      24.676   1.995  51.775  1.00  0.00     0.085 A 
HETATM   11  C17 UNL     1      23.803   1.338  52.616  1.00  0.00     0.119 A 
ENDROOT
BRANCH   7  12
HETATM   12  C9  UNL     1      24.868   4.881  49.423  1.00  0.00    -0.020 A 
HETATM   13  C10 UNL     1      23.758   5.024  48.614  1.00  0.00     0.015 A 
HETATM   14  C11 UNL     1      23.620   6.223  47.949  1.00  0.00     0.037 A 
HETATM   15  C12 UNL     1      24.516   7.262  48.052  1.00  0.00     0.065 A 
HETATM   16  C13 UNL     1      25.610   7.113  48.852  1.00  0.00     0.037 A 
HETATM   17  C14 UNL     1      25.787   5.931  49.536  1.00  0.00     0.015 A 
BRANCH  15  18
HETATM   18  O4  UNL     1      24.300   8.427  47.351  1.00  0.00    -0.361 OA
HETATM   19  H11 UNL     1      25.024   9.127  47.323  1.00  0.00     0.217 HD
ENDBRANCH  15  18
ENDBRANCH   7  12
BRANCH  11  20
HETATM   20  O6  UNL     1      22.497   1.766  52.762  1.00  0.00    -0.357 OA
HETATM   21  H14 UNL     1      22.056   2.035  53.610  1.00  0.00     0.218 HD
ENDBRANCH  11  20
BRANCH   1  22
HETATM   22  O1  UNL     1      23.435  -0.485  54.194  1.00  0.00    -0.346 OA
BRANCH  22  23
HETATM   23  C2  UNL     1      22.463  -1.325  53.597  1.00  0.00     0.171 C 
HETATM   24  C1  UNL     1      21.140  -1.259  54.330  1.00  0.00     0.034 C 
ENDBRANCH  22  23
ENDBRANCH   1  22
BRANCH   2  25
HETATM   25  O2  UNL     1      26.040  -1.278  53.857  1.00  0.00    -0.358 OA
HETATM   26  H6  UNL     1      26.309  -1.164  54.827  1.00  0.00     0.217 HD
ENDBRANCH   2  25
TORSDOF 6
ENDMDL
