MODEL 1
REMARK VINA RESULT:      -8.4      0.000      0.000
REMARK  2 active torsions:
REMARK  status: ('A' for Active; 'I' for Inactive)
REMARK    1  A    between atoms: C5_7  and  C6_8 
REMARK    2  A    between atoms: C8_10  and  C9_11 
ROOT
HETATM    1  C1  UNL     1      18.912   0.412  51.193  1.00  0.00     0.180 C 
HETATM    2  N1  UNL     1      19.915   0.116  52.196  1.00  0.00    -0.274 N 
HETATM    3  N2  UNL     1      19.727  -0.578  53.304  1.00  0.00    -0.184 NA
HETATM    4  C2  UNL     1      20.894  -0.640  53.983  1.00  0.00     0.152 A 
HETATM    5  C3  UNL     1      21.810   0.060  53.222  1.00  0.00     0.012 A 
HETATM    6  C4  UNL     1      23.146   0.309  53.444  1.00  0.00     0.029 A 
HETATM    7  C5  UNL     1      23.887   1.040  52.541  1.00  0.00    -0.005 A 
HETATM    8  C14 UNL     1      23.291   1.537  51.391  1.00  0.00     0.016 A 
HETATM    9  C15 UNL     1      21.946   1.265  51.202  1.00  0.00     0.033 A 
HETATM   10  C16 UNL     1      21.174   0.533  52.093  1.00  0.00     0.064 A 
ENDROOT
BRANCH   7  11
HETATM   11  C6  UNL     1      25.323   1.347  52.715  1.00  0.00     0.087 A 
HETATM   12  C7  UNL     1      26.108   1.259  53.779  1.00  0.00     0.041 A 
HETATM   13  C8  UNL     1      27.446   1.693  53.377  1.00  0.00     0.185 A 
HETATM   14  N3  UNL     1      27.315   2.031  51.978  1.00  0.00    -0.179 NA
HETATM   15  N4  UNL     1      26.110   1.820  51.657  1.00  0.00    -0.154 NA
BRANCH  13  16
HETATM   16  C9  UNL     1      28.455   0.581  53.465  1.00  0.00    -0.047 A 
HETATM   17  C10 UNL     1      29.727   0.401  53.776  1.00  0.00     0.005 A 
HETATM   18  C11 UNL     1      30.122  -0.993  53.654  1.00  0.00    -0.003 A 
HETATM   19  C12 UNL     1      29.035  -1.660  53.254  1.00  0.00    -0.022 A 
HETATM   20  C13 UNL     1      27.889  -0.751  53.097  1.00  0.00     0.064 A 
ENDBRANCH  13  16
ENDBRANCH   7  11
TORSDOF 2
ENDMDL
MODEL 2
REMARK VINA RESULT:      -8.3      1.107      2.056
REMARK  2 active torsions:
REMARK  status: ('A' for Active; 'I' for Inactive)
REMARK    1  A    between atoms: C5_7  and  C6_8 
REMARK    2  A    between atoms: C8_10  and  C9_11 
ROOT
HETATM    1  C1  UNL     1      18.100  -1.404  53.453  1.00  0.00     0.180 C 
HETATM    2  N1  UNL     1      18.992  -0.517  52.735  1.00  0.00    -0.274 N 
HETATM    3  N2  UNL     1      18.648   0.321  51.774  1.00  0.00    -0.184 NA
HETATM    4  C2  UNL     1      19.753   0.975  51.351  1.00  0.00     0.152 A 
HETATM    5  C3  UNL     1      20.796   0.486  52.112  1.00  0.00     0.012 A 
HETATM    6  C4  UNL     1      22.135   0.804  52.098  1.00  0.00     0.029 A 
HETATM    7  C5  UNL     1      23.018   0.186  52.957  1.00  0.00    -0.005 A 
HETATM    8  C14 UNL     1      22.563  -0.771  53.853  1.00  0.00     0.016 A 
HETATM    9  C15 UNL     1      21.209  -1.065  53.839  1.00  0.00     0.033 A 
HETATM   10  C16 UNL     1      20.297  -0.459  52.985  1.00  0.00     0.064 A 
ENDROOT
BRANCH   7  11
HETATM   11  C6  UNL     1      24.467   0.478  52.996  1.00  0.00     0.087 A 
HETATM   12  C7  UNL     1      25.363   0.298  53.956  1.00  0.00     0.041 A 
HETATM   13  C8  UNL     1      26.652   0.767  53.447  1.00  0.00     0.185 A 
HETATM   14  N3  UNL     1      26.371   1.225  52.106  1.00  0.00    -0.179 NA
HETATM   15  N4  UNL     1      25.137   1.042  51.903  1.00  0.00    -0.154 NA
BRANCH  13  16
HETATM   16  C9  UNL     1      27.656  -0.348  53.327  1.00  0.00    -0.047 A 
HETATM   17  C10 UNL     1      27.702  -1.626  52.996  1.00  0.00     0.005 A 
HETATM   18  C11 UNL     1      29.051  -2.160  53.088  1.00  0.00    -0.003 A 
HETATM   19  C12 UNL     1      29.831  -1.152  53.491  1.00  0.00    -0.022 A 
HETATM   20  C13 UNL     1      29.043   0.077  53.679  1.00  0.00     0.064 A 
ENDBRANCH  13  16
ENDBRANCH   7  11
TORSDOF 2
ENDMDL
MODEL 3
REMARK VINA RESULT:      -8.2      1.930      2.796
REMARK  2 active torsions:
REMARK  status: ('A' for Active; 'I' for Inactive)
REMARK    1  A    between atoms: C5_7  and  C6_8 
REMARK    2  A    between atoms: C8_10  and  C9_11 
ROOT
HETATM    1  C1  UNL     1      17.730  -0.358  52.475  1.00  0.00     0.180 C 
HETATM    2  N1  UNL     1      18.991   0.104  51.934  1.00  0.00    -0.274 N 
HETATM    3  N2  UNL     1      19.149   0.835  50.845  1.00  0.00    -0.184 NA
HETATM    4  C2  UNL     1      20.469   1.066  50.663  1.00  0.00     0.152 A 
HETATM    5  C3  UNL     1      21.110   0.431  51.708  1.00  0.00     0.012 A 
HETATM    6  C4  UNL     1      22.451   0.345  52.010  1.00  0.00     0.029 A 
HETATM    7  C5  UNL     1      22.882  -0.349  53.119  1.00  0.00    -0.005 A 
HETATM    8  C14 UNL     1      21.964  -0.974  53.950  1.00  0.00     0.016 A 
HETATM    9  C15 UNL     1      20.623  -0.866  53.615  1.00  0.00     0.033 A 
HETATM   10  C16 UNL     1      20.160  -0.174  52.504  1.00  0.00     0.064 A 
ENDROOT
BRANCH   7  11
HETATM   11  C6  UNL     1      24.304  -0.483  53.504  1.00  0.00     0.087 A 
HETATM   12  C7  UNL     1      25.407  -0.461  52.770  1.00  0.00     0.041 A 
HETATM   13  C8  UNL     1      26.541  -0.640  53.676  1.00  0.00     0.185 A 
HETATM   14  N3  UNL     1      25.946  -0.765  54.987  1.00  0.00    -0.179 NA
HETATM   15  N4  UNL     1      24.694  -0.670  54.836  1.00  0.00    -0.154 NA
BRANCH  13  16
HETATM   16  C9  UNL     1      27.435   0.569  53.716  1.00  0.00    -0.047 A 
HETATM   17  C10 UNL     1      27.496   1.791  53.215  1.00  0.00     0.005 A 
HETATM   18  C11 UNL     1      28.682   2.502  53.664  1.00  0.00    -0.003 A 
HETATM   19  C12 UNL     1      29.347   1.661  54.463  1.00  0.00    -0.022 A 
HETATM   20  C13 UNL     1      28.639   0.376  54.577  1.00  0.00     0.064 A 
ENDBRANCH  13  16
ENDBRANCH   7  11
TORSDOF 2
ENDMDL
MODEL 4
REMARK VINA RESULT:      -8.2      2.335      3.053
REMARK  2 active torsions:
REMARK  status: ('A' for Active; 'I' for Inactive)
REMARK    1  A    between atoms: C5_7  and  C6_8 
REMARK    2  A    between atoms: C8_10  and  C9_11 
ROOT
HETATM    1  C1  UNL     1      21.938   3.689  47.165  1.00  0.00     0.180 C 
HETATM    2  N1  UNL     1      21.824   2.736  48.251  1.00  0.00    -0.274 N 
HETATM    3  N2  UNL     1      20.826   1.894  48.445  1.00  0.00    -0.184 NA
HETATM    4  C2  UNL     1      21.078   1.170  49.559  1.00  0.00     0.152 A 
HETATM    5  C3  UNL     1      22.293   1.621  50.035  1.00  0.00     0.012 A 
HETATM    6  C4  UNL     1      23.018   1.230  51.138  1.00  0.00     0.029 A 
HETATM    7  C5  UNL     1      24.227   1.821  51.435  1.00  0.00    -0.005 A 
HETATM    8  C14 UNL     1      24.731   2.824  50.619  1.00  0.00     0.016 A 
HETATM    9  C15 UNL     1      23.974   3.191  49.518  1.00  0.00     0.033 A 
HETATM   10  C16 UNL     1      22.753   2.614  49.195  1.00  0.00     0.064 A 
ENDROOT
BRANCH   7  11
HETATM   11  C6  UNL     1      25.058   1.452  52.601  1.00  0.00     0.087 A 
HETATM   12  C7  UNL     1      25.374   0.266  53.101  1.00  0.00     0.041 A 
HETATM   13  C8  UNL     1      26.228   0.494  54.267  1.00  0.00     0.185 A 
HETATM   14  N3  UNL     1      26.347   1.931  54.358  1.00  0.00    -0.179 NA
HETATM   15  N4  UNL     1      25.675   2.419  53.404  1.00  0.00    -0.154 NA
BRANCH  13  16
HETATM   16  C9  UNL     1      27.617  -0.048  54.070  1.00  0.00    -0.047 A 
HETATM   17  C10 UNL     1      28.855   0.192  54.469  1.00  0.00     0.005 A 
HETATM   18  C11 UNL     1      29.802  -0.745  53.885  1.00  0.00    -0.003 A 
HETATM   19  C12 UNL     1      29.089  -1.569  53.111  1.00  0.00    -0.022 A 
HETATM   20  C13 UNL     1      27.660  -1.221  53.148  1.00  0.00     0.064 A 
ENDBRANCH  13  16
ENDBRANCH   7  11
TORSDOF 2
ENDMDL
MODEL 5
REMARK VINA RESULT:      -8.1      1.528      7.634
REMARK  2 active torsions:
REMARK  status: ('A' for Active; 'I' for Inactive)
REMARK    1  A    between atoms: C5_7  and  C6_8 
REMARK    2  A    between atoms: C8_10  and  C9_11 
ROOT
HETATM    1  C1  UNL     1      28.966   0.877  53.451  1.00  0.00     0.180 C 
HETATM    2  N1  UNL     1      27.700   1.320  52.903  1.00  0.00    -0.274 N 
HETATM    3  N2  UNL     1      27.532   2.276  52.007  1.00  0.00    -0.184 NA
HETATM    4  C2  UNL     1      26.211   2.400  51.746  1.00  0.00     0.152 A 
HETATM    5  C3  UNL     1      25.580   1.461  52.538  1.00  0.00     0.012 A 
HETATM    6  C4  UNL     1      24.243   1.159  52.666  1.00  0.00     0.029 A 
HETATM    7  C5  UNL     1      23.822   0.169  53.527  1.00  0.00    -0.005 A 
HETATM    8  C14 UNL     1      24.748  -0.539  54.280  1.00  0.00     0.016 A 
HETATM    9  C15 UNL     1      26.084  -0.207  54.124  1.00  0.00     0.033 A 
HETATM   10  C16 UNL     1      26.537   0.785  53.265  1.00  0.00     0.064 A 
ENDROOT
BRANCH   7  11
HETATM   11  C6  UNL     1      22.405  -0.208  53.716  1.00  0.00     0.087 A 
HETATM   12  C7  UNL     1      21.313   0.536  53.806  1.00  0.00     0.041 A 
HETATM   13  C8  UNL     1      20.178  -0.368  53.990  1.00  0.00     0.185 A 
HETATM   14  N3  UNL     1      20.760  -1.690  53.992  1.00  0.00    -0.179 NA
HETATM   15  N4  UNL     1      22.007  -1.546  53.836  1.00  0.00    -0.154 NA
BRANCH  13  16
HETATM   16  C9  UNL     1      19.216  -0.317  52.833  1.00  0.00    -0.047 A 
HETATM   17  C10 UNL     1      19.124   0.214  51.626  1.00  0.00     0.005 A 
HETATM   18  C11 UNL     1      17.870  -0.133  50.977  1.00  0.00    -0.003 A 
HETATM   19  C12 UNL     1      17.197  -0.900  51.840  1.00  0.00    -0.022 A 
HETATM   20  C13 UNL     1      17.966  -1.093  53.081  1.00  0.00     0.064 A 
ENDBRANCH  13  16
ENDBRANCH   7  11
TORSDOF 2
ENDMDL
MODEL 6
REMARK VINA RESULT:      -8.0      1.401      2.375
REMARK  2 active torsions:
REMARK  status: ('A' for Active; 'I' for Inactive)
REMARK    1  A    between atoms: C5_7  and  C6_8 
REMARK    2  A    between atoms: C8_10  and  C9_11 
ROOT
HETATM    1  C1  UNL     1      18.828   0.540  50.352  1.00  0.00     0.180 C 
HETATM    2  N1  UNL     1      20.140   1.131  50.186  1.00  0.00    -0.274 N 
HETATM    3  N2  UNL     1      20.529   1.892  49.178  1.00  0.00    -0.184 NA
HETATM    4  C2  UNL     1      21.817   2.251  49.375  1.00  0.00     0.152 A 
HETATM    5  C3  UNL     1      22.194   1.663  50.567  1.00  0.00     0.012 A 
HETATM    6  C4  UNL     1      23.396   1.702  51.238  1.00  0.00     0.029 A 
HETATM    7  C5  UNL     1      23.560   1.034  52.432  1.00  0.00    -0.005 A 
HETATM    8  C14 UNL     1      22.508   0.310  52.975  1.00  0.00     0.016 A 
HETATM    9  C15 UNL     1      21.315   0.295  52.272  1.00  0.00     0.033 A 
HETATM   10  C16 UNL     1      21.120   0.957  51.068  1.00  0.00     0.064 A 
ENDROOT
BRANCH   7  11
HETATM   11  C6  UNL     1      24.820   1.031  53.206  1.00  0.00     0.087 A 
HETATM   12  C7  UNL     1      25.364   0.101  53.976  1.00  0.00     0.041 A 
HETATM   13  C8  UNL     1      26.622   0.638  54.494  1.00  0.00     0.185 A 
HETATM   14  N3  UNL     1      26.713   1.964  53.929  1.00  0.00    -0.179 NA
HETATM   15  N4  UNL     1      25.683   2.135  53.216  1.00  0.00    -0.154 NA
BRANCH  13  16
HETATM   16  C9  UNL     1      27.817  -0.131  53.999  1.00  0.00    -0.047 A 
HETATM   17  C10 UNL     1      28.097  -1.278  53.406  1.00  0.00     0.005 A 
HETATM   18  C11 UNL     1      29.526  -1.439  53.187  1.00  0.00    -0.003 A 
HETATM   19  C12 UNL     1      30.109  -0.338  53.674  1.00  0.00    -0.022 A 
HETATM   20  C13 UNL     1      29.106   0.586  54.227  1.00  0.00     0.064 A 
ENDBRANCH  13  16
ENDBRANCH   7  11
TORSDOF 2
ENDMDL
MODEL 7
REMARK VINA RESULT:      -7.7      3.522      4.997
REMARK  2 active torsions:
REMARK  status: ('A' for Active; 'I' for Inactive)
REMARK    1  A    between atoms: C5_7  and  C6_8 
REMARK    2  A    between atoms: C8_10  and  C9_11 
ROOT
HETATM    1  C1  UNL     1      23.266  -1.870  55.496  1.00  0.00     0.180 C 
HETATM    2  N1  UNL     1      22.496  -0.908  54.735  1.00  0.00    -0.274 N 
HETATM    3  N2  UNL     1      21.188  -0.733  54.800  1.00  0.00    -0.184 NA
HETATM    4  C2  UNL     1      20.837   0.253  53.944  1.00  0.00     0.152 A 
HETATM    5  C3  UNL     1      22.012   0.670  53.349  1.00  0.00     0.012 A 
HETATM    6  C4  UNL     1      22.233   1.646  52.403  1.00  0.00     0.029 A 
HETATM    7  C5  UNL     1      23.504   1.905  51.939  1.00  0.00    -0.005 A 
HETATM    8  C14 UNL     1      24.583   1.181  52.424  1.00  0.00     0.016 A 
HETATM    9  C15 UNL     1      24.323   0.208  53.376  1.00  0.00     0.033 A 
HETATM   10  C16 UNL     1      23.053  -0.075  53.861  1.00  0.00     0.064 A 
ENDROOT
BRANCH   7  11
HETATM   11  C6  UNL     1      23.814   2.936  50.925  1.00  0.00     0.087 A 
HETATM   12  C7  UNL     1      24.386   4.125  51.043  1.00  0.00     0.041 A 
HETATM   13  C8  UNL     1      24.441   4.721  49.708  1.00  0.00     0.185 A 
HETATM   14  N3  UNL     1      23.839   3.734  48.842  1.00  0.00    -0.179 NA
HETATM   15  N4  UNL     1      23.506   2.756  49.570  1.00  0.00    -0.154 NA
BRANCH  13  16
HETATM   16  C9  UNL     1      25.854   4.917  49.231  1.00  0.00    -0.047 A 
HETATM   17  C10 UNL     1      26.982   4.235  49.123  1.00  0.00     0.005 A 
HETATM   18  C11 UNL     1      28.047   5.040  48.547  1.00  0.00    -0.003 A 
HETATM   19  C12 UNL     1      27.523   6.246  48.307  1.00  0.00    -0.022 A 
HETATM   20  C13 UNL     1      26.107   6.292  48.706  1.00  0.00     0.064 A 
ENDBRANCH  13  16
ENDBRANCH   7  11
TORSDOF 2
ENDMDL
MODEL 8
REMARK VINA RESULT:      -7.7      2.592      3.032
REMARK  2 active torsions:
REMARK  status: ('A' for Active; 'I' for Inactive)
REMARK    1  A    between atoms: C5_7  and  C6_8 
REMARK    2  A    between atoms: C8_10  and  C9_11 
ROOT
HETATM    1  C1  UNL     1      21.119   4.789  48.961  1.00  0.00     0.180 C 
HETATM    2  N1  UNL     1      21.454   4.276  50.274  1.00  0.00    -0.274 N 
HETATM    3  N2  UNL     1      20.638   4.195  51.309  1.00  0.00    -0.184 NA
HETATM    4  C2  UNL     1      21.311   3.665  52.355  1.00  0.00     0.152 A 
HETATM    5  C3  UNL     1      22.591   3.425  51.895  1.00  0.00     0.012 A 
HETATM    6  C4  UNL     1      23.684   2.893  52.542  1.00  0.00     0.029 A 
HETATM    7  C5  UNL     1      24.886   2.738  51.887  1.00  0.00    -0.005 A 
HETATM    8  C14 UNL     1      25.010   3.118  50.559  1.00  0.00     0.016 A 
HETATM    9  C15 UNL     1      23.889   3.649  49.941  1.00  0.00     0.033 A 
HETATM   10  C16 UNL     1      22.666   3.818  50.575  1.00  0.00     0.064 A 
ENDROOT
BRANCH   7  11
HETATM   11  C6  UNL     1      26.099   2.175  52.519  1.00  0.00     0.087 A 
HETATM   12  C7  UNL     1      26.240   1.324  53.524  1.00  0.00     0.041 A 
HETATM   13  C8  UNL     1      27.673   1.115  53.728  1.00  0.00     0.185 A 
HETATM   14  N3  UNL     1      28.308   1.943  52.729  1.00  0.00    -0.179 NA
HETATM   15  N4  UNL     1      27.386   2.514  52.079  1.00  0.00    -0.154 NA
BRANCH  13  16
HETATM   16  C9  UNL     1      28.088  -0.303  53.448  1.00  0.00    -0.047 A 
HETATM   17  C10 UNL     1      27.566  -1.433  53.003  1.00  0.00     0.005 A 
HETATM   18  C11 UNL     1      28.549  -2.504  52.964  1.00  0.00    -0.003 A 
HETATM   19  C12 UNL     1      29.697  -1.980  53.404  1.00  0.00    -0.022 A 
HETATM   20  C13 UNL     1      29.527  -0.560  53.749  1.00  0.00     0.064 A 
ENDBRANCH  13  16
ENDBRANCH   7  11
TORSDOF 2
ENDMDL
MODEL 9
REMARK VINA RESULT:      -7.7      3.150      4.470
REMARK  2 active torsions:
REMARK  status: ('A' for Active; 'I' for Inactive)
REMARK    1  A    between atoms: C5_7  and  C6_8 
REMARK    2  A    between atoms: C8_10  and  C9_11 
ROOT
HETATM    1  C1  UNL     1      22.311   5.047  47.558  1.00  0.00     0.180 C 
HETATM    2  N1  UNL     1      23.525   5.048  48.349  1.00  0.00    -0.274 N 
HETATM    3  N2  UNL     1      24.509   5.925  48.263  1.00  0.00    -0.184 NA
HETATM    4  C2  UNL     1      25.466   5.595  49.159  1.00  0.00     0.152 A 
HETATM    5  C3  UNL     1      25.007   4.461  49.800  1.00  0.00     0.012 A 
HETATM    6  C4  UNL     1      25.583   3.709  50.799  1.00  0.00     0.029 A 
HETATM    7  C5  UNL     1      24.944   2.597  51.303  1.00  0.00    -0.005 A 
HETATM    8  C14 UNL     1      23.704   2.221  50.807  1.00  0.00     0.016 A 
HETATM    9  C15 UNL     1      23.156   3.003  49.803  1.00  0.00     0.033 A 
HETATM   10  C16 UNL     1      23.777   4.127  49.275  1.00  0.00     0.064 A 
ENDROOT
BRANCH   7  11
HETATM   11  C6  UNL     1      25.502   1.744  52.374  1.00  0.00     0.087 A 
HETATM   12  C7  UNL     1      25.759   0.444  52.404  1.00  0.00     0.041 A 
HETATM   13  C8  UNL     1      26.307   0.133  53.724  1.00  0.00     0.185 A 
HETATM   14  N3  UNL     1      26.324   1.399  54.420  1.00  0.00    -0.179 NA
HETATM   15  N4  UNL     1      25.865   2.267  53.622  1.00  0.00    -0.154 NA
BRANCH  13  16
HETATM   16  C9  UNL     1      27.731  -0.345  53.651  1.00  0.00    -0.047 A 
HETATM   17  C10 UNL     1      28.946   0.065  53.974  1.00  0.00     0.005 A 
HETATM   18  C11 UNL     1      29.959  -0.917  53.620  1.00  0.00    -0.003 A 
HETATM   19  C12 UNL     1      29.311  -1.946  53.066  1.00  0.00    -0.022 A 
HETATM   20  C13 UNL     1      27.862  -1.696  53.030  1.00  0.00     0.064 A 
ENDBRANCH  13  16
ENDBRANCH   7  11
TORSDOF 2
ENDMDL
