MODEL 1
REMARK VINA RESULT:      -8.9      0.000      0.000
REMARK  2 active torsions:
REMARK  status: ('A' for Active; 'I' for Inactive)
REMARK    1  A    between atoms: C7_11  and  N3_12 
REMARK    2  A    between atoms: N3_12  and  C8_13 
ROOT
HETATM    1  F1  UNL     1      30.595  -0.877  53.785  1.00  0.00    -0.210 F 
HETATM    2  C1  UNL     1      29.409  -0.168  53.646  1.00  0.00     0.100 C 
HETATM    3  C2  UNL     1      28.877  -1.429  53.413  1.00  0.00     0.135 C 
HETATM    4  C3  UNL     1      27.499  -1.192  53.190  1.00  0.00     0.053 C 
HETATM    5  C4  UNL     1      26.340  -0.972  52.996  1.00  0.00    -0.010 C 
HETATM    6  O1  UNL     1      25.075  -0.707  52.781  1.00  0.00    -0.251 OA
HETATM    7  C5  UNL     1      24.585   0.631  52.682  1.00  0.00     0.210 A 
HETATM    8  N1  UNL     1      23.284   0.381  52.710  1.00  0.00    -0.215 NA
HETATM    9  C6  UNL     1      22.327   1.314  52.647  1.00  0.00     0.238 A 
HETATM   10  N2  UNL     1      22.662   2.617  52.548  1.00  0.00    -0.222 NA
HETATM   11  C7  UNL     1      24.009   2.849  52.521  1.00  0.00     0.160 A 
HETATM   12  C14 UNL     1      25.061   1.959  52.580  1.00  0.00     0.129 A 
HETATM   13  N4  UNL     1      26.343   2.672  52.525  1.00  0.00    -0.380 N 
HETATM   14  C15 UNL     1      27.247   2.099  53.403  1.00  0.00     0.147 C 
HETATM   15  C16 UNL     1      28.630   2.329  53.729  1.00  0.00    -0.005 C 
HETATM   16  C17 UNL     1      29.575   1.337  53.830  1.00  0.00     0.036 C 
HETATM   17  H7  UNL     1      26.406   3.455  51.880  1.00  0.00     0.160 HD
ENDROOT
BRANCH  11  18
HETATM   18  N3  UNL     1      24.255   4.271  52.418  1.00  0.00    -0.339 N 
HETATM   19  H3  UNL     1      24.660   4.861  53.205  1.00  0.00     0.167 HD
BRANCH  18  20
HETATM   20  C8  UNL     1      23.957   4.964  51.215  1.00  0.00     0.035 A 
HETATM   21  C9  UNL     1      24.564   4.688  50.009  1.00  0.00     0.032 A 
HETATM   22  C10 UNL     1      24.294   5.354  48.829  1.00  0.00     0.046 A 
HETATM   23  C11 UNL     1      23.333   6.370  48.914  1.00  0.00     0.138 A 
HETATM   24  F2  UNL     1      23.049   7.040  47.776  1.00  0.00    -0.204 F 
HETATM   25  C12 UNL     1      22.690   6.704  50.068  1.00  0.00     0.074 A 
HETATM   26 CL1  UNL     1      21.492   7.990  50.134  1.00  0.00    -0.081 Cl
HETATM   27  C13 UNL     1      23.025   5.985  51.186  1.00  0.00     0.056 A 
ENDBRANCH  18  20
ENDBRANCH  11  18
TORSDOF 2
ENDMDL
MODEL 2
REMARK VINA RESULT:      -8.8      3.885      7.697
REMARK  2 active torsions:
REMARK  status: ('A' for Active; 'I' for Inactive)
REMARK    1  A    between atoms: C7_11  and  N3_12 
REMARK    2  A    between atoms: N3_12  and  C8_13 
ROOT
HETATM    1  F1  UNL     1      17.962  -0.768  52.141  1.00  0.00    -0.210 F 
HETATM    2  C1  UNL     1      19.214  -0.175  52.234  1.00  0.00     0.100 C 
HETATM    3  C2  UNL     1      19.016   0.067  50.881  1.00  0.00     0.135 C 
HETATM    4  C3  UNL     1      20.188   0.748  50.472  1.00  0.00     0.053 C 
HETATM    5  C4  UNL     1      21.187   1.315  50.142  1.00  0.00    -0.010 C 
HETATM    6  O1  UNL     1      22.294   1.929  49.803  1.00  0.00    -0.251 OA
HETATM    7  C5  UNL     1      23.391   2.072  50.704  1.00  0.00     0.210 A 
HETATM    8  N1  UNL     1      24.123   2.932  50.011  1.00  0.00    -0.215 NA
HETATM    9  C6  UNL     1      25.302   3.424  50.409  1.00  0.00     0.238 A 
HETATM   10  N2  UNL     1      25.824   3.047  51.595  1.00  0.00    -0.222 NA
HETATM   11  C7  UNL     1      25.051   2.161  52.291  1.00  0.00     0.160 A 
HETATM   12  C14 UNL     1      23.832   1.603  51.964  1.00  0.00     0.129 A 
HETATM   13  N4  UNL     1      23.376   0.703  53.030  1.00  0.00    -0.380 N 
HETATM   14  C15 UNL     1      22.013   0.849  53.228  1.00  0.00     0.147 C 
HETATM   15  C16 UNL     1      21.037   0.212  54.072  1.00  0.00    -0.005 C 
HETATM   16  C17 UNL     1      19.815  -0.239  53.634  1.00  0.00     0.036 C 
HETATM   17  H7  UNL     1      24.079   0.111  53.465  1.00  0.00     0.160 HD
ENDROOT
BRANCH  11  18
HETATM   18  N3  UNL     1      25.698   1.829  53.542  1.00  0.00    -0.339 N 
HETATM   19  H3  UNL     1      25.320   2.106  54.496  1.00  0.00     0.167 HD
BRANCH  18  20
HETATM   20  C8  UNL     1      26.911   1.091  53.546  1.00  0.00     0.035 A 
HETATM   21  C9  UNL     1      28.135   1.641  53.860  1.00  0.00     0.032 A 
HETATM   22  C10 UNL     1      29.327   0.943  53.864  1.00  0.00     0.046 A 
HETATM   23  C11 UNL     1      29.236  -0.411  53.519  1.00  0.00     0.138 A 
HETATM   24  F2  UNL     1      30.386  -1.120  53.514  1.00  0.00    -0.204 F 
HETATM   25  C12 UNL     1      28.066  -1.029  53.196  1.00  0.00     0.074 A 
HETATM   26 CL1  UNL     1      27.994  -2.732  52.763  1.00  0.00    -0.081 Cl
HETATM   27  C13 UNL     1      26.935  -0.253  53.221  1.00  0.00     0.056 A 
ENDBRANCH  18  20
ENDBRANCH  11  18
TORSDOF 2
ENDMDL
MODEL 3
REMARK VINA RESULT:      -8.6      3.887      7.266
REMARK  2 active torsions:
REMARK  status: ('A' for Active; 'I' for Inactive)
REMARK    1  A    between atoms: C7_11  and  N3_12 
REMARK    2  A    between atoms: N3_12  and  C8_13 
ROOT
HETATM    1  F1  UNL     1      28.723   8.505  48.226  1.00  0.00    -0.210 F 
HETATM    2  C1  UNL     1      27.832   7.547  48.694  1.00  0.00     0.100 C 
HETATM    3  C2  UNL     1      27.207   8.648  49.264  1.00  0.00     0.135 C 
HETATM    4  C3  UNL     1      26.089   8.105  49.940  1.00  0.00     0.053 C 
HETATM    5  C4  UNL     1      25.153   7.628  50.511  1.00  0.00    -0.010 C 
HETATM    6  O1  UNL     1      24.138   7.082  51.135  1.00  0.00    -0.251 OA
HETATM    7  C5  UNL     1      23.978   5.667  51.232  1.00  0.00     0.210 A 
HETATM    8  N1  UNL     1      22.743   5.627  51.711  1.00  0.00    -0.215 NA
HETATM    9  C6  UNL     1      22.072   4.505  51.996  1.00  0.00     0.238 A 
HETATM   10  N2  UNL     1      22.653   3.304  51.800  1.00  0.00    -0.222 NA
HETATM   11  C7  UNL     1      23.926   3.371  51.305  1.00  0.00     0.160 A 
HETATM   12  C14 UNL     1      24.692   4.472  50.983  1.00  0.00     0.129 A 
HETATM   13  N4  UNL     1      26.006   4.054  50.477  1.00  0.00    -0.380 N 
HETATM   14  C15 UNL     1      26.384   4.853  49.412  1.00  0.00     0.147 C 
HETATM   15  C16 UNL     1      27.554   4.948  48.580  1.00  0.00    -0.005 C 
HETATM   16  C17 UNL     1      28.189   6.126  48.271  1.00  0.00     0.036 C 
HETATM   17  H7  UNL     1      26.453   3.273  50.950  1.00  0.00     0.160 HD
ENDROOT
BRANCH  11  18
HETATM   18  N3  UNL     1      24.450   2.034  51.129  1.00  0.00    -0.339 N 
HETATM   19  H3  UNL     1      24.778   1.644  50.196  1.00  0.00     0.167 HD
BRANCH  18  20
HETATM   20  C8  UNL     1      24.554   1.153  52.238  1.00  0.00     0.035 A 
HETATM   21  C9  UNL     1      23.514   0.364  52.682  1.00  0.00     0.032 A 
HETATM   22  C10 UNL     1      23.592  -0.494  53.762  1.00  0.00     0.046 A 
HETATM   23  C11 UNL     1      24.828  -0.529  54.419  1.00  0.00     0.138 A 
HETATM   24  F2  UNL     1      24.933  -1.359  55.480  1.00  0.00    -0.204 F 
HETATM   25  C12 UNL     1      25.902   0.220  54.044  1.00  0.00     0.074 A 
HETATM   26 CL1  UNL     1      27.437   0.151  54.899  1.00  0.00    -0.081 Cl
HETATM   27  C13 UNL     1      25.728   1.041  52.959  1.00  0.00     0.056 A 
ENDBRANCH  18  20
ENDBRANCH  11  18
TORSDOF 2
ENDMDL
MODEL 4
REMARK VINA RESULT:      -8.4      3.555      7.622
REMARK  2 active torsions:
REMARK  status: ('A' for Active; 'I' for Inactive)
REMARK    1  A    between atoms: C7_11  and  N3_12 
REMARK    2  A    between atoms: N3_12  and  C8_13 
ROOT
HETATM    1  F1  UNL     1      26.651   9.431  48.470  1.00  0.00    -0.210 F 
HETATM    2  C1  UNL     1      26.286   8.163  48.903  1.00  0.00     0.100 C 
HETATM    3  C2  UNL     1      25.334   8.867  49.628  1.00  0.00     0.135 C 
HETATM    4  C3  UNL     1      24.616   7.866  50.328  1.00  0.00     0.053 C 
HETATM    5  C4  UNL     1      24.027   7.009  50.915  1.00  0.00    -0.010 C 
HETATM    6  O1  UNL     1      23.399   6.053  51.555  1.00  0.00    -0.251 OA
HETATM    7  C5  UNL     1      23.842   4.696  51.518  1.00  0.00     0.210 A 
HETATM    8  N1  UNL     1      22.792   4.116  52.082  1.00  0.00    -0.215 NA
HETATM    9  C6  UNL     1      22.673   2.802  52.301  1.00  0.00     0.238 A 
HETATM   10  N2  UNL     1      23.668   1.966  51.939  1.00  0.00    -0.222 NA
HETATM   11  C7  UNL     1      24.739   2.587  51.360  1.00  0.00     0.160 A 
HETATM   12  C14 UNL     1      24.949   3.924  51.095  1.00  0.00     0.129 A 
HETATM   13  N4  UNL     1      26.253   4.123  50.451  1.00  0.00    -0.380 N 
HETATM   14  C15 UNL     1      26.152   5.072  49.448  1.00  0.00     0.147 C 
HETATM   15  C16 UNL     1      27.082   5.696  48.544  1.00  0.00    -0.005 C 
HETATM   16  C17 UNL     1      27.142   7.049  48.311  1.00  0.00     0.036 C 
HETATM   17  H7  UNL     1      27.030   3.571  50.807  1.00  0.00     0.160 HD
ENDROOT
BRANCH  11  18
HETATM   18  N3  UNL     1      25.739   1.603  51.008  1.00  0.00    -0.339 N 
HETATM   19  H3  UNL     1      25.893   1.241  50.020  1.00  0.00     0.167 HD
BRANCH  18  20
HETATM   20  C8  UNL     1      26.591   1.060  52.006  1.00  0.00     0.035 A 
HETATM   21  C9  UNL     1      27.208   1.821  52.976  1.00  0.00     0.032 A 
HETATM   22  C10 UNL     1      28.045   1.314  53.950  1.00  0.00     0.046 A 
HETATM   23  C11 UNL     1      28.252  -0.071  53.910  1.00  0.00     0.138 A 
HETATM   24  F2  UNL     1      29.067  -0.595  54.851  1.00  0.00    -0.204 F 
HETATM   25  C12 UNL     1      27.681  -0.891  52.985  1.00  0.00     0.074 A 
HETATM   26 CL1  UNL     1      27.969  -2.626  52.965  1.00  0.00    -0.081 Cl
HETATM   27  C13 UNL     1      26.864  -0.295  52.058  1.00  0.00     0.056 A 
ENDBRANCH  18  20
ENDBRANCH  11  18
TORSDOF 2
ENDMDL
MODEL 5
REMARK VINA RESULT:      -8.1      4.437      7.213
REMARK  2 active torsions:
REMARK  status: ('A' for Active; 'I' for Inactive)
REMARK    1  A    between atoms: C7_11  and  N3_12 
REMARK    2  A    between atoms: N3_12  and  C8_13 
ROOT
HETATM    1  F1  UNL     1      30.568   8.748  48.409  1.00  0.00    -0.210 F 
HETATM    2  C1  UNL     1      29.388   8.053  48.639  1.00  0.00     0.100 C 
HETATM    3  C2  UNL     1      28.994   9.247  49.228  1.00  0.00     0.135 C 
HETATM    4  C3  UNL     1      27.674   9.000  49.674  1.00  0.00     0.053 C 
HETATM    5  C4  UNL     1      26.563   8.770  50.050  1.00  0.00    -0.010 C 
HETATM    6  O1  UNL     1      25.348   8.494  50.459  1.00  0.00    -0.251 OA
HETATM    7  C5  UNL     1      24.801   7.179  50.380  1.00  0.00     0.210 A 
HETATM    8  N1  UNL     1      23.538   7.458  50.668  1.00  0.00    -0.215 NA
HETATM    9  C6  UNL     1      22.553   6.556  50.733  1.00  0.00     0.238 A 
HETATM   10  N2  UNL     1      22.815   5.254  50.494  1.00  0.00    -0.222 NA
HETATM   11  C7  UNL     1      24.123   4.990  50.198  1.00  0.00     0.160 A 
HETATM   12  C14 UNL     1      25.199   5.849  50.109  1.00  0.00     0.129 A 
HETATM   13  N4  UNL     1      26.418   5.110  49.756  1.00  0.00    -0.380 N 
HETATM   14  C15 UNL     1      27.170   5.836  48.848  1.00  0.00     0.147 C 
HETATM   15  C16 UNL     1      28.446   5.649  48.208  1.00  0.00    -0.005 C 
HETATM   16  C17 UNL     1      29.416   6.618  48.122  1.00  0.00     0.036 C 
HETATM   17  H7  UNL     1      26.553   4.206  50.201  1.00  0.00     0.160 HD
ENDROOT
BRANCH  11  18
HETATM   18  N3  UNL     1      24.291   3.574  49.956  1.00  0.00    -0.339 N 
HETATM   19  H3  UNL     1      24.530   3.159  49.007  1.00  0.00     0.167 HD
BRANCH  18  20
HETATM   20  C8  UNL     1      24.139   2.644  51.018  1.00  0.00     0.035 A 
HETATM   21  C9  UNL     1      25.055   2.497  52.037  1.00  0.00     0.032 A 
HETATM   22  C10 UNL     1      24.931   1.594  53.075  1.00  0.00     0.046 A 
HETATM   23  C11 UNL     1      23.781   0.795  53.047  1.00  0.00     0.138 A 
HETATM   24  F2  UNL     1      23.632  -0.099  54.049  1.00  0.00    -0.204 F 
HETATM   25  C12 UNL     1      22.829   0.878  52.075  1.00  0.00     0.074 A 
HETATM   26 CL1  UNL     1      21.400  -0.147  52.072  1.00  0.00    -0.081 Cl
HETATM   27  C13 UNL     1      23.041   1.805  51.087  1.00  0.00     0.056 A 
ENDBRANCH  18  20
ENDBRANCH  11  18
TORSDOF 2
ENDMDL
MODEL 6
REMARK VINA RESULT:      -7.9      6.543      7.930
REMARK  2 active torsions:
REMARK  status: ('A' for Active; 'I' for Inactive)
REMARK    1  A    between atoms: C7_11  and  N3_12 
REMARK    2  A    between atoms: N3_12  and  C8_13 
ROOT
HETATM    1  F1  UNL     1      35.430   3.341  47.723  1.00  0.00    -0.210 F 
HETATM    2  C1  UNL     1      34.246   4.066  47.733  1.00  0.00     0.100 C 
HETATM    3  C2  UNL     1      34.987   4.949  48.507  1.00  0.00     0.135 C 
HETATM    4  C3  UNL     1      34.084   5.998  48.804  1.00  0.00     0.053 C 
HETATM    5  C4  UNL     1      33.306   6.872  49.049  1.00  0.00    -0.010 C 
HETATM    6  O1  UNL     1      32.434   7.815  49.312  1.00  0.00    -0.251 OA
HETATM    7  C5  UNL     1      31.059   7.701  48.946  1.00  0.00     0.210 A 
HETATM    8  N1  UNL     1      30.672   8.944  49.192  1.00  0.00    -0.215 NA
HETATM    9  C6  UNL     1      29.429   9.405  49.014  1.00  0.00     0.238 A 
HETATM   10  N2  UNL     1      28.465   8.582  48.552  1.00  0.00    -0.222 NA
HETATM   11  C7  UNL     1      28.888   7.306  48.306  1.00  0.00     0.160 A 
HETATM   12  C14 UNL     1      30.139   6.744  48.458  1.00  0.00     0.129 A 
HETATM   13  N4  UNL     1      30.120   5.331  48.059  1.00  0.00    -0.380 N 
HETATM   14  C15 UNL     1      31.274   5.017  47.361  1.00  0.00     0.147 C 
HETATM   15  C16 UNL     1      31.818   3.813  46.789  1.00  0.00    -0.005 C 
HETATM   16  C17 UNL     1      33.116   3.397  46.957  1.00  0.00     0.036 C 
HETATM   17  H7  UNL     1      29.307   4.786  48.334  1.00  0.00     0.160 HD
ENDROOT
BRANCH  11  18
HETATM   18  N3  UNL     1      27.782   6.514  47.813  1.00  0.00    -0.339 N 
HETATM   19  H3  UNL     1      27.583   6.351  46.782  1.00  0.00     0.167 HD
BRANCH  18  20
HETATM   20  C8  UNL     1      26.884   5.895  48.722  1.00  0.00     0.035 A 
HETATM   21  C9  UNL     1      26.879   4.542  48.984  1.00  0.00     0.032 A 
HETATM   22  C10 UNL     1      26.010   3.919  49.859  1.00  0.00     0.046 A 
HETATM   23  C11 UNL     1      25.089   4.759  50.497  1.00  0.00     0.138 A 
HETATM   24  F2  UNL     1      24.225   4.178  51.358  1.00  0.00    -0.204 F 
HETATM   25  C12 UNL     1      25.028   6.105  50.291  1.00  0.00     0.074 A 
HETATM   26 CL1  UNL     1      23.853   7.125  51.109  1.00  0.00    -0.081 Cl
HETATM   27  C13 UNL     1      25.933   6.631  49.406  1.00  0.00     0.056 A 
ENDBRANCH  18  20
ENDBRANCH  11  18
TORSDOF 2
ENDMDL
MODEL 7
REMARK VINA RESULT:      -7.9      4.242      7.811
REMARK  2 active torsions:
REMARK  status: ('A' for Active; 'I' for Inactive)
REMARK    1  A    between atoms: C7_11  and  N3_12 
REMARK    2  A    between atoms: N3_12  and  C8_13 
ROOT
HETATM    1  F1  UNL     1      28.536   9.123  46.388  1.00  0.00    -0.210 F 
HETATM    2  C1  UNL     1      28.011   7.999  47.013  1.00  0.00     0.100 C 
HETATM    3  C2  UNL     1      26.806   8.664  46.829  1.00  0.00     0.135 C 
HETATM    4  C3  UNL     1      25.837   7.792  47.381  1.00  0.00     0.053 C 
HETATM    5  C4  UNL     1      25.034   7.047  47.859  1.00  0.00    -0.010 C 
HETATM    6  O1  UNL     1      24.172   6.217  48.394  1.00  0.00    -0.251 OA
HETATM    7  C5  UNL     1      24.582   5.045  49.099  1.00  0.00     0.210 A 
HETATM    8  N1  UNL     1      23.405   4.449  49.220  1.00  0.00    -0.215 NA
HETATM    9  C6  UNL     1      23.205   3.271  49.822  1.00  0.00     0.238 A 
HETATM   10  N2  UNL     1      24.247   2.604  50.359  1.00  0.00    -0.222 NA
HETATM   11  C7  UNL     1      25.450   3.238  50.222  1.00  0.00     0.160 A 
HETATM   12  C14 UNL     1      25.750   4.443  49.622  1.00  0.00     0.129 A 
HETATM   13  N4  UNL     1      27.190   4.717  49.711  1.00  0.00    -0.380 N 
HETATM   14  C15 UNL     1      27.646   5.270  48.526  1.00  0.00     0.147 C 
HETATM   15  C16 UNL     1      28.910   5.777  48.064  1.00  0.00    -0.005 C 
HETATM   16  C17 UNL     1      29.069   6.973  47.407  1.00  0.00     0.036 C 
HETATM   17  H7  UNL     1      27.649   4.484  50.588  1.00  0.00     0.160 HD
ENDROOT
BRANCH  11  18
HETATM   18  N3  UNL     1      26.493   2.438  50.825  1.00  0.00    -0.339 N 
HETATM   19  H3  UNL     1      27.520   2.507  50.562  1.00  0.00     0.167 HD
BRANCH  18  20
HETATM   20  C8  UNL     1      26.175   1.491  51.835  1.00  0.00     0.035 A 
HETATM   21  C9  UNL     1      25.402   1.785  52.937  1.00  0.00     0.032 A 
HETATM   22  C10 UNL     1      25.087   0.882  53.934  1.00  0.00     0.046 A 
HETATM   23  C11 UNL     1      25.611  -0.406  53.770  1.00  0.00     0.138 A 
HETATM   24  F2  UNL     1      25.321  -1.312  54.730  1.00  0.00    -0.204 F 
HETATM   25  C12 UNL     1      26.384  -0.776  52.710  1.00  0.00     0.074 A 
HETATM   26 CL1  UNL     1      27.027  -2.404  52.543  1.00  0.00    -0.081 Cl
HETATM   27  C13 UNL     1      26.641   0.190  51.772  1.00  0.00     0.056 A 
ENDBRANCH  18  20
ENDBRANCH  11  18
TORSDOF 2
ENDMDL
MODEL 8
REMARK VINA RESULT:      -7.9      2.676      3.438
REMARK  2 active torsions:
REMARK  status: ('A' for Active; 'I' for Inactive)
REMARK    1  A    between atoms: C7_11  and  N3_12 
REMARK    2  A    between atoms: N3_12  and  C8_13 
ROOT
HETATM    1  F1  UNL     1      27.084  -1.125  53.511  1.00  0.00    -0.210 F 
HETATM    2  C1  UNL     1      26.225  -0.155  53.010  1.00  0.00     0.100 C 
HETATM    3  C2  UNL     1      25.283  -0.835  53.769  1.00  0.00     0.135 C 
HETATM    4  C3  UNL     1      24.079  -0.123  53.553  1.00  0.00     0.053 C 
HETATM    5  C4  UNL     1      23.070   0.487  53.354  1.00  0.00    -0.010 C 
HETATM    6  O1  UNL     1      21.975   1.166  53.115  1.00  0.00    -0.251 OA
HETATM    7  C5  UNL     1      21.927   2.215  52.147  1.00  0.00     0.210 A 
HETATM    8  N1  UNL     1      20.740   2.722  52.445  1.00  0.00    -0.215 NA
HETATM    9  C6  UNL     1      20.178   3.765  51.823  1.00  0.00     0.238 A 
HETATM   10  N2  UNL     1      20.831   4.378  50.813  1.00  0.00    -0.222 NA
HETATM   11  C7  UNL     1      22.053   3.838  50.525  1.00  0.00     0.160 A 
HETATM   12  C14 UNL     1      22.708   2.772  51.108  1.00  0.00     0.129 A 
HETATM   13  N4  UNL     1      24.012   2.558  50.468  1.00  0.00    -0.380 N 
HETATM   14  C15 UNL     1      24.966   2.245  51.421  1.00  0.00     0.147 C 
HETATM   15  C16 UNL     1      26.360   1.890  51.382  1.00  0.00    -0.005 C 
HETATM   16  C17 UNL     1      26.908   0.836  52.074  1.00  0.00     0.036 C 
HETATM   17  H7  UNL     1      24.049   2.656  49.456  1.00  0.00     0.160 HD
ENDROOT
BRANCH  11  18
HETATM   18  N3  UNL     1      22.664   4.570  49.438  1.00  0.00    -0.339 N 
HETATM   19  H3  UNL     1      22.386   4.456  48.418  1.00  0.00     0.167 HD
BRANCH  18  20
HETATM   20  C8  UNL     1      23.698   5.507  49.697  1.00  0.00     0.035 A 
HETATM   21  C9  UNL     1      23.573   6.550  50.589  1.00  0.00     0.032 A 
HETATM   22  C10 UNL     1      24.563   7.477  50.851  1.00  0.00     0.046 A 
HETATM   23  C11 UNL     1      25.756   7.305  50.138  1.00  0.00     0.138 A 
HETATM   24  F2  UNL     1      26.743   8.197  50.373  1.00  0.00    -0.204 F 
HETATM   25  C12 UNL     1      25.959   6.301  49.239  1.00  0.00     0.074 A 
HETATM   26 CL1  UNL     1      27.471   6.122  48.360  1.00  0.00    -0.081 Cl
HETATM   27  C13 UNL     1      24.917   5.431  49.048  1.00  0.00     0.056 A 
ENDBRANCH  18  20
ENDBRANCH  11  18
TORSDOF 2
ENDMDL
MODEL 9
REMARK VINA RESULT:      -7.8      3.983      6.982
REMARK  2 active torsions:
REMARK  status: ('A' for Active; 'I' for Inactive)
REMARK    1  A    between atoms: C7_11  and  N3_12 
REMARK    2  A    between atoms: N3_12  and  C8_13 
ROOT
HETATM    1  F1  UNL     1      25.679   9.153  47.909  1.00  0.00    -0.210 F 
HETATM    2  C1  UNL     1      25.521   8.049  48.736  1.00  0.00     0.100 C 
HETATM    3  C2  UNL     1      26.545   7.527  47.958  1.00  0.00     0.135 C 
HETATM    4  C3  UNL     1      26.769   6.235  48.492  1.00  0.00     0.053 C 
HETATM    5  C4  UNL     1      26.938   5.145  48.952  1.00  0.00    -0.010 C 
HETATM    6  O1  UNL     1      27.103   3.951  49.468  1.00  0.00    -0.251 OA
HETATM    7  C5  UNL     1      26.229   3.430  50.470  1.00  0.00     0.210 A 
HETATM    8  N1  UNL     1      26.925   2.358  50.819  1.00  0.00    -0.215 NA
HETATM    9  C6  UNL     1      26.552   1.479  51.755  1.00  0.00     0.238 A 
HETATM   10  N2  UNL     1      25.392   1.654  52.420  1.00  0.00    -0.222 NA
HETATM   11  C7  UNL     1      24.692   2.766  52.043  1.00  0.00     0.160 A 
HETATM   12  C14 UNL     1      24.995   3.722  51.096  1.00  0.00     0.129 A 
HETATM   13  N4  UNL     1      23.943   4.744  51.042  1.00  0.00    -0.380 N 
HETATM   14  C15 UNL     1      24.504   6.001  50.892  1.00  0.00     0.147 C 
HETATM   15  C16 UNL     1      23.982   7.332  50.729  1.00  0.00    -0.005 C 
HETATM   16  C17 UNL     1      24.425   8.225  49.782  1.00  0.00     0.036 C 
HETATM   17  H7  UNL     1      22.982   4.419  51.113  1.00  0.00     0.160 HD
ENDROOT
BRANCH  11  18
HETATM   18  N3  UNL     1      23.474   2.860  52.817  1.00  0.00    -0.339 N 
HETATM   19  H3  UNL     1      23.321   3.564  53.598  1.00  0.00     0.167 HD
BRANCH  18  20
HETATM   20  C8  UNL     1      22.390   1.981  52.555  1.00  0.00     0.035 A 
HETATM   21  C9  UNL     1      21.495   2.165  51.523  1.00  0.00     0.032 A 
HETATM   22  C10 UNL     1      20.430   1.327  51.255  1.00  0.00     0.046 A 
HETATM   23  C11 UNL     1      20.290   0.232  52.116  1.00  0.00     0.138 A 
HETATM   24  F2  UNL     1      19.256  -0.605  51.879  1.00  0.00    -0.204 F 
HETATM   25  C12 UNL     1      21.130  -0.019  53.159  1.00  0.00     0.074 A 
HETATM   26 CL1  UNL     1      20.918  -1.404  54.222  1.00  0.00    -0.081 Cl
HETATM   27  C13 UNL     1      22.158   0.869  53.344  1.00  0.00     0.056 A 
ENDBRANCH  18  20
ENDBRANCH  11  18
TORSDOF 2
ENDMDL
