MODEL 1
REMARK VINA RESULT:      -6.9      0.000      0.000
REMARK  7 active torsions:
REMARK  status: ('A' for Active; 'I' for Inactive)
REMARK    1  A    between atoms: C2_2  and  C4_5 
REMARK    2  A    between atoms: C8_10  and  N3_11 
REMARK       I    between atoms: N3_11  and  C9_12 
REMARK    3  A    between atoms: C9_12  and  C10_14 
REMARK    4  A    between atoms: C11_15  and  C12_16 
REMARK    5  A    between atoms: C12_16  and  N4_18 
REMARK    6  A    between atoms: N4_18  and  C14_19 
REMARK    7  A    between atoms: N4_18  and  C16_21 
ROOT
HETATM    1  C1  UNL     1      29.032  -0.897  53.606  1.00  0.00     0.038 C 
HETATM    2  C2  UNL     1      28.185   0.076  53.878  1.00  0.00     0.066 C 
HETATM    3  C3  UNL     1      28.710   1.395  54.106  1.00  0.00     0.101 C 
HETATM    4  N1  UNL     1      29.123   2.464  54.305  1.00  0.00    -0.191 NA
ENDROOT
BRANCH   2   5
HETATM    5  C4  UNL     1      26.751  -0.168  53.949  1.00  0.00     0.103 A 
HETATM    6  N2  UNL     1      26.214  -0.672  55.054  1.00  0.00    -0.257 NA
HETATM    7  C5  UNL     1      24.895  -0.903  55.142  1.00  0.00     0.117 A 
HETATM    8  C6  UNL     1      24.000  -0.641  54.108  1.00  0.00     0.022 A 
HETATM    9  C7  UNL     1      24.560  -0.112  52.949  1.00  0.00     0.033 A 
HETATM   10  C8  UNL     1      25.921   0.107  52.910  1.00  0.00     0.065 A 
BRANCH  10  11
HETATM   11  N3  UNL     1      26.395   0.647  51.686  1.00  0.00    -0.322 N 
HETATM   12  C9  UNL     1      26.172   2.065  51.560  1.00  0.00     0.245 C 
HETATM   13  O1  UNL     1      25.588   2.376  52.660  1.00  0.00    -0.268 OA
HETATM   14  H6  UNL     1      26.874   0.209  50.860  1.00  0.00     0.169 HD
BRANCH  12  15
HETATM   15  C10 UNL     1      26.557   2.871  50.412  1.00  0.00     0.072 C 
HETATM   16  C11 UNL     1      26.061   3.950  49.836  1.00  0.00     0.003 C 
BRANCH  16  17
HETATM   17  C12 UNL     1      24.997   4.931  49.894  1.00  0.00     0.098 C 
HETATM   18  C13 UNL     1      25.105   5.960  48.779  1.00  0.00     0.036 C 
BRANCH  17  19
HETATM   19  N4  UNL     1      23.656   4.430  49.856  1.00  0.00    -0.406 N 
BRANCH  19  20
HETATM   20  C14 UNL     1      23.037   4.231  51.138  1.00  0.00     0.113 C 
HETATM   21  C15 UNL     1      23.511   5.232  52.170  1.00  0.00     0.026 C 
ENDBRANCH  19  20
BRANCH  19  22
HETATM   22  C16 UNL     1      23.354   3.452  48.883  1.00  0.00     0.113 C 
HETATM   23  C17 UNL     1      22.709   2.193  49.457  1.00  0.00     0.026 C 
ENDBRANCH  19  22
ENDBRANCH  17  19
ENDBRANCH  16  17
ENDBRANCH  12  15
ENDBRANCH  10  11
ENDBRANCH   2   5
TORSDOF 7
ENDMDL
MODEL 2
REMARK VINA RESULT:      -6.2      2.879      6.512
REMARK  7 active torsions:
REMARK  status: ('A' for Active; 'I' for Inactive)
REMARK    1  A    between atoms: C2_2  and  C4_5 
REMARK    2  A    between atoms: C8_10  and  N3_11 
REMARK       I    between atoms: N3_11  and  C9_12 
REMARK    3  A    between atoms: C9_12  and  C10_14 
REMARK    4  A    between atoms: C11_15  and  C12_16 
REMARK    5  A    between atoms: C12_16  and  N4_18 
REMARK    6  A    between atoms: N4_18  and  C14_19 
REMARK    7  A    between atoms: N4_18  and  C16_21 
ROOT
HETATM    1  C1  UNL     1      23.321   1.790  51.143  1.00  0.00     0.038 C 
HETATM    2  C2  UNL     1      22.206   2.206  51.711  1.00  0.00     0.066 C 
HETATM    3  C3  UNL     1      22.094   3.597  52.059  1.00  0.00     0.101 C 
HETATM    4  N1  UNL     1      21.996   4.716  52.356  1.00  0.00    -0.191 NA
ENDROOT
BRANCH   2   5
HETATM    5  C4  UNL     1      21.108   1.288  51.982  1.00  0.00     0.103 A 
HETATM    6  N2  UNL     1      20.084   1.206  51.141  1.00  0.00    -0.257 NA
HETATM    7  C5  UNL     1      19.063   0.366  51.370  1.00  0.00     0.117 A 
HETATM    8  C6  UNL     1      18.992  -0.470  52.482  1.00  0.00     0.022 A 
HETATM    9  C7  UNL     1      20.064  -0.386  53.365  1.00  0.00     0.033 A 
HETATM   10  C8  UNL     1      21.089   0.494  53.084  1.00  0.00     0.065 A 
BRANCH  10  11
HETATM   11  N3  UNL     1      22.133   0.506  54.044  1.00  0.00    -0.322 N 
HETATM   12  C9  UNL     1      23.061  -0.587  53.897  1.00  0.00     0.245 C 
HETATM   13  O1  UNL     1      22.601  -1.237  52.890  1.00  0.00    -0.268 OA
HETATM   14  H6  UNL     1      22.355   1.159  54.837  1.00  0.00     0.169 HD
BRANCH  12  15
HETATM   15  C10 UNL     1      24.221  -0.815  54.744  1.00  0.00     0.072 C 
HETATM   16  C11 UNL     1      25.526  -0.792  54.545  1.00  0.00     0.003 C 
BRANCH  16  17
HETATM   17  C12 UNL     1      26.561  -0.572  53.557  1.00  0.00     0.098 C 
HETATM   18  C13 UNL     1      25.998  -0.063  52.239  1.00  0.00     0.036 C 
BRANCH  17  19
HETATM   19  N4  UNL     1      27.619   0.324  53.919  1.00  0.00    -0.406 N 
BRANCH  19  20
HETATM   20  C14 UNL     1      27.834   1.419  53.014  1.00  0.00     0.113 C 
HETATM   21  C15 UNL     1      28.649   2.532  53.637  1.00  0.00     0.026 C 
ENDBRANCH  19  20
BRANCH  19  22
HETATM   22  C16 UNL     1      28.791  -0.243  54.468  1.00  0.00     0.113 C 
HETATM   23  C17 UNL     1      29.634  -1.012  53.454  1.00  0.00     0.026 C 
ENDBRANCH  19  22
ENDBRANCH  17  19
ENDBRANCH  16  17
ENDBRANCH  12  15
ENDBRANCH  10  11
ENDBRANCH   2   5
TORSDOF 7
ENDMDL
MODEL 3
REMARK VINA RESULT:      -6.2      1.542      3.377
REMARK  7 active torsions:
REMARK  status: ('A' for Active; 'I' for Inactive)
REMARK    1  A    between atoms: C2_2  and  C4_5 
REMARK    2  A    between atoms: C8_10  and  N3_11 
REMARK       I    between atoms: N3_11  and  C9_12 
REMARK    3  A    between atoms: C9_12  and  C10_14 
REMARK    4  A    between atoms: C11_15  and  C12_16 
REMARK    5  A    between atoms: C12_16  and  N4_18 
REMARK    6  A    between atoms: N4_18  and  C14_19 
REMARK    7  A    between atoms: N4_18  and  C16_21 
ROOT
HETATM    1  C1  UNL     1      26.633  -1.858  52.482  1.00  0.00     0.038 C 
HETATM    2  C2  UNL     1      26.308  -0.828  53.237  1.00  0.00     0.066 C 
HETATM    3  C3  UNL     1      24.994  -0.795  53.821  1.00  0.00     0.101 C 
HETATM    4  N1  UNL     1      23.931  -0.751  54.288  1.00  0.00    -0.191 NA
ENDROOT
BRANCH   2   5
HETATM    5  C4  UNL     1      27.250   0.256  53.483  1.00  0.00     0.103 A 
HETATM    6  N2  UNL     1      28.045   0.221  54.546  1.00  0.00    -0.257 NA
HETATM    7  C5  UNL     1      28.922   1.207  54.790  1.00  0.00     0.117 A 
HETATM    8  C6  UNL     1      29.068   2.323  53.971  1.00  0.00     0.022 A 
HETATM    9  C7  UNL     1      28.237   2.362  52.856  1.00  0.00     0.033 A 
HETATM   10  C8  UNL     1      27.353   1.323  52.650  1.00  0.00     0.065 A 
BRANCH  10  11
HETATM   11  N3  UNL     1      26.549   1.456  51.488  1.00  0.00    -0.322 N 
HETATM   12  C9  UNL     1      25.378   2.272  51.691  1.00  0.00     0.245 C 
HETATM   13  O1  UNL     1      25.465   2.621  52.923  1.00  0.00    -0.268 OA
HETATM   14  H6  UNL     1      26.647   1.073  50.515  1.00  0.00     0.169 HD
BRANCH  12  15
HETATM   15  C10 UNL     1      24.385   2.572  50.671  1.00  0.00     0.072 C 
HETATM   16  C11 UNL     1      23.906   3.688  50.152  1.00  0.00     0.003 C 
BRANCH  16  17
HETATM   17  C12 UNL     1      23.985   5.133  50.194  1.00  0.00     0.098 C 
HETATM   18  C13 UNL     1      23.393   5.703  51.475  1.00  0.00     0.036 C 
BRANCH  17  19
HETATM   19  N4  UNL     1      25.288   5.712  50.056  1.00  0.00    -0.406 N 
BRANCH  19  20
HETATM   20  C14 UNL     1      25.414   7.063  50.530  1.00  0.00     0.113 C 
HETATM   21  C15 UNL     1      26.143   7.954  49.547  1.00  0.00     0.026 C 
ENDBRANCH  19  20
BRANCH  19  22
HETATM   22  C16 UNL     1      26.007   5.418  48.876  1.00  0.00     0.113 C 
HETATM   23  C17 UNL     1      27.193   4.483  49.098  1.00  0.00     0.026 C 
ENDBRANCH  19  22
ENDBRANCH  17  19
ENDBRANCH  16  17
ENDBRANCH  12  15
ENDBRANCH  10  11
ENDBRANCH   2   5
TORSDOF 7
ENDMDL
MODEL 4
REMARK VINA RESULT:      -6.2      1.723      3.706
REMARK  7 active torsions:
REMARK  status: ('A' for Active; 'I' for Inactive)
REMARK    1  A    between atoms: C2_2  and  C4_5 
REMARK    2  A    between atoms: C8_10  and  N3_11 
REMARK       I    between atoms: N3_11  and  C9_12 
REMARK    3  A    between atoms: C9_12  and  C10_14 
REMARK    4  A    between atoms: C11_15  and  C12_16 
REMARK    5  A    between atoms: C12_16  and  N4_18 
REMARK    6  A    between atoms: N4_18  and  C14_19 
REMARK    7  A    between atoms: N4_18  and  C16_21 
ROOT
HETATM    1  C1  UNL     1      22.605   0.036  52.377  1.00  0.00     0.038 C 
HETATM    2  C2  UNL     1      23.462  -0.295  53.322  1.00  0.00     0.066 C 
HETATM    3  C3  UNL     1      22.960  -0.943  54.504  1.00  0.00     0.101 C 
HETATM    4  N1  UNL     1      22.564  -1.456  55.469  1.00  0.00    -0.191 NA
ENDROOT
BRANCH   2   5
HETATM    5  C4  UNL     1      24.885  -0.018  53.183  1.00  0.00     0.103 A 
HETATM    6  N2  UNL     1      25.731  -1.000  52.895  1.00  0.00    -0.257 NA
HETATM    7  C5  UNL     1      27.045  -0.767  52.760  1.00  0.00     0.117 A 
HETATM    8  C6  UNL     1      27.620   0.493  52.908  1.00  0.00     0.022 A 
HETATM    9  C7  UNL     1      26.736   1.524  53.209  1.00  0.00     0.033 A 
HETATM   10  C8  UNL     1      25.393   1.232  53.337  1.00  0.00     0.065 A 
BRANCH  10  11
HETATM   11  N3  UNL     1      24.575   2.349  53.646  1.00  0.00    -0.322 N 
HETATM   12  C9  UNL     1      24.277   3.175  52.504  1.00  0.00     0.245 C 
HETATM   13  O1  UNL     1      24.887   2.587  51.540  1.00  0.00    -0.268 OA
HETATM   14  H6  UNL     1      24.150   2.684  54.546  1.00  0.00     0.169 HD
BRANCH  12  15
HETATM   15  C10 UNL     1      23.462   4.380  52.537  1.00  0.00     0.072 C 
HETATM   16  C11 UNL     1      23.336   5.429  51.745  1.00  0.00     0.003 C 
BRANCH  16  17
HETATM   17  C12 UNL     1      23.806   6.040  50.519  1.00  0.00     0.098 C 
HETATM   18  C13 UNL     1      24.823   7.141  50.780  1.00  0.00     0.036 C 
BRANCH  17  19
HETATM   19  N4  UNL     1      24.393   5.168  49.546  1.00  0.00    -0.406 N 
BRANCH  19  20
HETATM   20  C14 UNL     1      25.737   5.494  49.158  1.00  0.00     0.113 C 
HETATM   21  C15 UNL     1      26.665   4.300  49.229  1.00  0.00     0.026 C 
ENDBRANCH  19  20
BRANCH  19  22
HETATM   22  C16 UNL     1      23.560   4.704  48.503  1.00  0.00     0.113 C 
HETATM   23  C17 UNL     1      23.050   3.281  48.712  1.00  0.00     0.026 C 
ENDBRANCH  19  22
ENDBRANCH  17  19
ENDBRANCH  16  17
ENDBRANCH  12  15
ENDBRANCH  10  11
ENDBRANCH   2   5
TORSDOF 7
ENDMDL
MODEL 5
REMARK VINA RESULT:      -6.1      1.524      6.824
REMARK  7 active torsions:
REMARK  status: ('A' for Active; 'I' for Inactive)
REMARK    1  A    between atoms: C2_2  and  C4_5 
REMARK    2  A    between atoms: C8_10  and  N3_11 
REMARK       I    between atoms: N3_11  and  C9_12 
REMARK    3  A    between atoms: C9_12  and  C10_14 
REMARK    4  A    between atoms: C11_15  and  C12_16 
REMARK    5  A    between atoms: C12_16  and  N4_18 
REMARK    6  A    between atoms: N4_18  and  C14_19 
REMARK    7  A    between atoms: N4_18  and  C16_21 
ROOT
HETATM    1  C1  UNL     1      21.877   2.071  48.866  1.00  0.00     0.038 C 
HETATM    2  C2  UNL     1      22.253   2.973  49.751  1.00  0.00     0.066 C 
HETATM    3  C3  UNL     1      21.338   3.321  50.804  1.00  0.00     0.101 C 
HETATM    4  N1  UNL     1      20.602   3.621  51.652  1.00  0.00    -0.191 NA
ENDROOT
BRANCH   2   5
HETATM    5  C4  UNL     1      23.562   3.607  49.673  1.00  0.00     0.103 A 
HETATM    6  N2  UNL     1      23.714   4.745  49.005  1.00  0.00    -0.257 NA
HETATM    7  C5  UNL     1      24.910   5.348  48.923  1.00  0.00     0.117 A 
HETATM    8  C6  UNL     1      26.065   4.844  49.515  1.00  0.00     0.022 A 
HETATM    9  C7  UNL     1      25.909   3.652  50.217  1.00  0.00     0.033 A 
HETATM   10  C8  UNL     1      24.658   3.073  50.271  1.00  0.00     0.065 A 
BRANCH  10  11
HETATM   11  N3  UNL     1      24.603   1.861  51.008  1.00  0.00    -0.322 N 
HETATM   12  C9  UNL     1      24.435   2.059  52.426  1.00  0.00     0.245 C 
HETATM   13  O1  UNL     1      24.390   3.336  52.547  1.00  0.00    -0.268 OA
HETATM   14  H6  UNL     1      24.662   0.854  50.715  1.00  0.00     0.169 HD
BRANCH  12  15
HETATM   15  C10 UNL     1      24.348   0.993  53.411  1.00  0.00     0.072 C 
HETATM   16  C11 UNL     1      25.175   0.049  53.823  1.00  0.00     0.003 C 
BRANCH  16  17
HETATM   17  C12 UNL     1      26.497  -0.515  53.647  1.00  0.00     0.098 C 
HETATM   18  C13 UNL     1      26.724  -1.013  52.227  1.00  0.00     0.036 C 
BRANCH  17  19
HETATM   19  N4  UNL     1      27.607   0.333  53.962  1.00  0.00    -0.406 N 
BRANCH  19  20
HETATM   20  C14 UNL     1      27.989   1.257  52.929  1.00  0.00     0.113 C 
HETATM   21  C15 UNL     1      28.474   2.578  53.487  1.00  0.00     0.026 C 
ENDBRANCH  19  20
BRANCH  19  22
HETATM   22  C16 UNL     1      28.678  -0.240  54.683  1.00  0.00     0.113 C 
HETATM   23  C17 UNL     1      29.790  -0.793  53.795  1.00  0.00     0.026 C 
ENDBRANCH  19  22
ENDBRANCH  17  19
ENDBRANCH  16  17
ENDBRANCH  12  15
ENDBRANCH  10  11
ENDBRANCH   2   5
TORSDOF 7
ENDMDL
MODEL 6
REMARK VINA RESULT:      -6.1      1.958      3.187
REMARK  7 active torsions:
REMARK  status: ('A' for Active; 'I' for Inactive)
REMARK    1  A    between atoms: C2_2  and  C4_5 
REMARK    2  A    between atoms: C8_10  and  N3_11 
REMARK       I    between atoms: N3_11  and  C9_12 
REMARK    3  A    between atoms: C9_12  and  C10_14 
REMARK    4  A    between atoms: C11_15  and  C12_16 
REMARK    5  A    between atoms: C12_16  and  N4_18 
REMARK    6  A    between atoms: N4_18  and  C14_19 
REMARK    7  A    between atoms: N4_18  and  C16_21 
ROOT
HETATM    1  C1  UNL     1      26.170   1.307  54.134  1.00  0.00     0.038 C 
HETATM    2  C2  UNL     1      25.847   0.051  53.898  1.00  0.00     0.066 C 
HETATM    3  C3  UNL     1      26.872  -0.841  53.427  1.00  0.00     0.101 C 
HETATM    4  N1  UNL     1      27.689  -1.569  53.033  1.00  0.00    -0.191 NA
ENDROOT
BRANCH   2   5
HETATM    5  C4  UNL     1      24.490  -0.433  54.107  1.00  0.00     0.103 A 
HETATM    6  N2  UNL     1      24.173  -1.068  55.230  1.00  0.00    -0.257 NA
HETATM    7  C5  UNL     1      22.928  -1.520  55.445  1.00  0.00     0.117 A 
HETATM    8  C6  UNL     1      21.889  -1.367  54.532  1.00  0.00     0.022 A 
HETATM    9  C7  UNL     1      22.217  -0.702  53.354  1.00  0.00     0.033 A 
HETATM   10  C8  UNL     1      23.511  -0.256  53.182  1.00  0.00     0.065 A 
BRANCH  10  11
HETATM   11  N3  UNL     1      23.746   0.408  51.950  1.00  0.00    -0.322 N 
HETATM   12  C9  UNL     1      23.208   1.744  51.907  1.00  0.00     0.245 C 
HETATM   13  O1  UNL     1      22.669   1.888  53.063  1.00  0.00    -0.268 OA
HETATM   14  H6  UNL     1      24.234   0.109  51.070  1.00  0.00     0.169 HD
BRANCH  12  15
HETATM   15  C10 UNL     1      23.305   2.645  50.769  1.00  0.00     0.072 C 
HETATM   16  C11 UNL     1      24.249   3.441  50.303  1.00  0.00     0.003 C 
BRANCH  16  17
HETATM   17  C12 UNL     1      25.600   3.916  50.519  1.00  0.00     0.098 C 
HETATM   18  C13 UNL     1      26.612   2.780  50.539  1.00  0.00     0.036 C 
BRANCH  17  19
HETATM   19  N4  UNL     1      26.098   4.887  49.591  1.00  0.00    -0.406 N 
BRANCH  19  20
HETATM   20  C14 UNL     1      25.095   5.616  48.865  1.00  0.00     0.113 C 
HETATM   21  C15 UNL     1      24.785   6.957  49.496  1.00  0.00     0.026 C 
ENDBRANCH  19  20
BRANCH  19  22
HETATM   22  C16 UNL     1      27.250   4.545  48.848  1.00  0.00     0.113 C 
HETATM   23  C17 UNL     1      28.038   5.752  48.346  1.00  0.00     0.026 C 
ENDBRANCH  19  22
ENDBRANCH  17  19
ENDBRANCH  16  17
ENDBRANCH  12  15
ENDBRANCH  10  11
ENDBRANCH   2   5
TORSDOF 7
ENDMDL
MODEL 7
REMARK VINA RESULT:      -6.0      3.320      5.577
REMARK  7 active torsions:
REMARK  status: ('A' for Active; 'I' for Inactive)
REMARK    1  A    between atoms: C2_2  and  C4_5 
REMARK    2  A    between atoms: C8_10  and  N3_11 
REMARK       I    between atoms: N3_11  and  C9_12 
REMARK    3  A    between atoms: C9_12  and  C10_14 
REMARK    4  A    between atoms: C11_15  and  C12_16 
REMARK    5  A    between atoms: C12_16  and  N4_18 
REMARK    6  A    between atoms: N4_18  and  C14_19 
REMARK    7  A    between atoms: N4_18  and  C16_21 
ROOT
HETATM    1  C1  UNL     1      18.644   0.097  51.394  1.00  0.00     0.038 C 
HETATM    2  C2  UNL     1      19.473   0.872  52.064  1.00  0.00     0.066 C 
HETATM    3  C3  UNL     1      19.245   2.292  52.048  1.00  0.00     0.101 C 
HETATM    4  N1  UNL     1      19.079   3.443  52.031  1.00  0.00    -0.191 NA
ENDROOT
BRANCH   2   5
HETATM    5  C4  UNL     1      20.594   0.315  52.808  1.00  0.00     0.103 A 
HETATM    6  N2  UNL     1      20.414  -0.149  54.039  1.00  0.00    -0.257 NA
HETATM    7  C5  UNL     1      21.432  -0.668  54.742  1.00  0.00     0.117 A 
HETATM    8  C6  UNL     1      22.732  -0.763  54.252  1.00  0.00     0.022 A 
HETATM    9  C7  UNL     1      22.924  -0.278  52.962  1.00  0.00     0.033 A 
HETATM   10  C8  UNL     1      21.844   0.246  52.282  1.00  0.00     0.065 A 
BRANCH  10  11
HETATM   11  N3  UNL     1      22.142   0.714  50.976  1.00  0.00    -0.322 N 
HETATM   12  C9  UNL     1      22.812   1.990  50.963  1.00  0.00     0.245 C 
HETATM   13  O1  UNL     1      22.917   2.286  52.207  1.00  0.00    -0.268 OA
HETATM   14  H6  UNL     1      21.966   0.307  50.024  1.00  0.00     0.169 HD
BRANCH  12  15
HETATM   15  C10 UNL     1      23.231   2.699  49.764  1.00  0.00     0.072 C 
HETATM   16  C11 UNL     1      24.252   3.481  49.466  1.00  0.00     0.003 C 
BRANCH  16  17
HETATM   17  C12 UNL     1      25.457   4.092  49.987  1.00  0.00     0.098 C 
HETATM   18  C13 UNL     1      26.478   3.057  50.435  1.00  0.00     0.036 C 
BRANCH  17  19
HETATM   19  N4  UNL     1      26.150   4.996  49.117  1.00  0.00    -0.406 N 
BRANCH  19  20
HETATM   20  C14 UNL     1      27.509   4.638  48.815  1.00  0.00     0.113 C 
HETATM   21  C15 UNL     1      28.287   5.787  48.209  1.00  0.00     0.026 C 
ENDBRANCH  19  20
BRANCH  19  22
HETATM   22  C16 UNL     1      25.916   6.377  49.296  1.00  0.00     0.113 C 
HETATM   23  C17 UNL     1      24.764   6.919  48.453  1.00  0.00     0.026 C 
ENDBRANCH  19  22
ENDBRANCH  17  19
ENDBRANCH  16  17
ENDBRANCH  12  15
ENDBRANCH  10  11
ENDBRANCH   2   5
TORSDOF 7
ENDMDL
MODEL 8
REMARK VINA RESULT:      -6.0      1.961      7.036
REMARK  7 active torsions:
REMARK  status: ('A' for Active; 'I' for Inactive)
REMARK    1  A    between atoms: C2_2  and  C4_5 
REMARK    2  A    between atoms: C8_10  and  N3_11 
REMARK       I    between atoms: N3_11  and  C9_12 
REMARK    3  A    between atoms: C9_12  and  C10_14 
REMARK    4  A    between atoms: C11_15  and  C12_16 
REMARK    5  A    between atoms: C12_16  and  N4_18 
REMARK    6  A    between atoms: N4_18  and  C14_19 
REMARK    7  A    between atoms: N4_18  and  C16_21 
ROOT
HETATM    1  C1  UNL     1      24.076   7.217  51.313  1.00  0.00     0.038 C 
HETATM    2  C2  UNL     1      24.070   6.495  50.210  1.00  0.00     0.066 C 
HETATM    3  C3  UNL     1      22.815   6.274  49.545  1.00  0.00     0.101 C 
HETATM    4  N1  UNL     1      21.804   6.078  49.005  1.00  0.00    -0.191 NA
ENDROOT
BRANCH   2   5
HETATM    5  C4  UNL     1      25.299   5.931  49.669  1.00  0.00     0.103 A 
HETATM    6  N2  UNL     1      26.011   6.613  48.779  1.00  0.00    -0.257 NA
HETATM    7  C5  UNL     1      27.148   6.114  48.270  1.00  0.00     0.117 A 
HETATM    8  C6  UNL     1      27.664   4.870  48.621  1.00  0.00     0.022 A 
HETATM    9  C7  UNL     1      26.921   4.153  49.553  1.00  0.00     0.033 A 
HETATM   10  C8  UNL     1      25.759   4.711  50.047  1.00  0.00     0.065 A 
BRANCH  10  11
HETATM   11  N3  UNL     1      25.073   3.903  50.990  1.00  0.00    -0.322 N 
HETATM   12  C9  UNL     1      24.209   2.922  50.384  1.00  0.00     0.245 C 
HETATM   13  O1  UNL     1      24.362   3.123  49.126  1.00  0.00    -0.268 OA
HETATM   14  H6  UNL     1      25.077   3.887  52.040  1.00  0.00     0.169 HD
BRANCH  12  15
HETATM   15  C10 UNL     1      23.391   1.967  51.116  1.00  0.00     0.072 C 
HETATM   16  C11 UNL     1      23.620   1.130  52.111  1.00  0.00     0.003 C 
BRANCH  16  17
HETATM   17  C12 UNL     1      24.630   0.636  53.023  1.00  0.00     0.098 C 
HETATM   18  C13 UNL     1      24.131  -0.540  53.850  1.00  0.00     0.036 C 
BRANCH  17  19
HETATM   19  N4  UNL     1      25.876   0.226  52.446  1.00  0.00    -0.406 N 
BRANCH  19  20
HETATM   20  C14 UNL     1      26.266  -1.129  52.723  1.00  0.00     0.113 C 
HETATM   21  C15 UNL     1      27.750  -1.259  52.993  1.00  0.00     0.026 C 
ENDBRANCH  19  20
BRANCH  19  22
HETATM   22  C16 UNL     1      26.930   1.167  52.441  1.00  0.00     0.113 C 
HETATM   23  C17 UNL     1      26.843   2.193  53.568  1.00  0.00     0.026 C 
ENDBRANCH  19  22
ENDBRANCH  17  19
ENDBRANCH  16  17
ENDBRANCH  12  15
ENDBRANCH  10  11
ENDBRANCH   2   5
TORSDOF 7
ENDMDL
MODEL 9
REMARK VINA RESULT:      -6.0      2.450      4.227
REMARK  7 active torsions:
REMARK  status: ('A' for Active; 'I' for Inactive)
REMARK    1  A    between atoms: C2_2  and  C4_5 
REMARK    2  A    between atoms: C8_10  and  N3_11 
REMARK       I    between atoms: N3_11  and  C9_12 
REMARK    3  A    between atoms: C9_12  and  C10_14 
REMARK    4  A    between atoms: C11_15  and  C12_16 
REMARK    5  A    between atoms: C12_16  and  N4_18 
REMARK    6  A    between atoms: N4_18  and  C14_19 
REMARK    7  A    between atoms: N4_18  and  C16_21 
ROOT
HETATM    1  C1  UNL     1      25.261  -0.851  54.288  1.00  0.00     0.038 C 
HETATM    2  C2  UNL     1      26.350  -0.802  53.546  1.00  0.00     0.066 C 
HETATM    3  C3  UNL     1      26.621  -1.900  52.657  1.00  0.00     0.101 C 
HETATM    4  N1  UNL     1      26.858  -2.787  51.944  1.00  0.00    -0.191 NA
ENDROOT
BRANCH   2   5
HETATM    5  C4  UNL     1      27.262   0.331  53.616  1.00  0.00     0.103 A 
HETATM    6  N2  UNL     1      28.180   0.391  54.574  1.00  0.00    -0.257 NA
HETATM    7  C5  UNL     1      29.032   1.424  54.656  1.00  0.00     0.117 A 
HETATM    8  C6  UNL     1      29.026   2.495  53.767  1.00  0.00     0.022 A 
HETATM    9  C7  UNL     1      28.066   2.435  52.761  1.00  0.00     0.033 A 
HETATM   10  C8  UNL     1      27.214   1.351  52.721  1.00  0.00     0.065 A 
BRANCH  10  11
HETATM   11  N3  UNL     1      26.271   1.383  51.661  1.00  0.00    -0.322 N 
HETATM   12  C9  UNL     1      25.063   2.097  51.989  1.00  0.00     0.245 C 
HETATM   13  O1  UNL     1      25.262   2.484  53.196  1.00  0.00    -0.268 OA
HETATM   14  H6  UNL     1      26.289   0.985  50.689  1.00  0.00     0.169 HD
BRANCH  12  15
HETATM   15  C10 UNL     1      23.935   2.282  51.089  1.00  0.00     0.072 C 
HETATM   16  C11 UNL     1      22.632   2.412  51.260  1.00  0.00     0.003 C 
BRANCH  16  17
HETATM   17  C12 UNL     1      21.574   2.458  52.248  1.00  0.00     0.098 C 
HETATM   18  C13 UNL     1      20.730   3.718  52.127  1.00  0.00     0.036 C 
BRANCH  17  19
HETATM   19  N4  UNL     1      20.659   1.356  52.264  1.00  0.00    -0.406 N 
BRANCH  19  20
HETATM   20  C14 UNL     1      19.349   1.637  51.745  1.00  0.00     0.113 C 
HETATM   21  C15 UNL     1      18.980   0.731  50.589  1.00  0.00     0.026 C 
ENDBRANCH  19  20
BRANCH  19  22
HETATM   22  C16 UNL     1      20.691   0.502  53.389  1.00  0.00     0.113 C 
HETATM   23  C17 UNL     1      21.746  -0.598  53.295  1.00  0.00     0.026 C 
ENDBRANCH  19  22
ENDBRANCH  17  19
ENDBRANCH  16  17
ENDBRANCH  12  15
ENDBRANCH  10  11
ENDBRANCH   2   5
TORSDOF 7
ENDMDL
