MODEL 1
REMARK VINA RESULT:      -7.7      0.000      0.000
REMARK  9 active torsions:
REMARK  status: ('A' for Active; 'I' for Inactive)
REMARK    1  A    between atoms: N1_2  and  C2_3 
REMARK    2  A    between atoms: N1_2  and  C14_19 
REMARK    3  A    between atoms: C2_3  and  C3_4 
REMARK    4  A    between atoms: C7_10  and  N4_11 
REMARK    5  A    between atoms: N4_11  and  C8_12 
REMARK    6  A    between atoms: C12_16  and  C13_17 
REMARK    7  A    between atoms: C14_19  and  C15_20 
REMARK    8  A    between atoms: C15_20  and  C16_21 
REMARK    9  A    between atoms: C16_21  and  N5_22 
ROOT
HETATM    1  C3  UNL     1      24.995   1.015  52.722  1.00  0.00     0.015 C 
HETATM    2  C4  UNL     1      24.457   0.174  53.617  1.00  0.00     0.005 A 
HETATM    3  C5  UNL     1      23.032  -0.155  53.571  1.00  0.00     0.192 A 
HETATM    4  N2  UNL     1      22.719  -1.063  54.644  1.00  0.00    -0.278 NA
HETATM    5  C6  UNL     1      23.564  -1.515  55.505  1.00  0.00     0.229 A 
HETATM    6  N3  UNL     1      24.938  -1.165  55.501  1.00  0.00    -0.225 NA
HETATM    7  C7  UNL     1      25.391  -0.356  54.604  1.00  0.00     0.133 A 
ENDROOT
BRANCH   1   8
HETATM    8  C2  UNL     1      24.438   1.772  51.576  1.00  0.00     0.300 C 
BRANCH   8   9
HETATM    9  N1  UNL     1      25.220   2.951  51.274  1.00  0.00     0.087 N 
HETATM   10  C1  UNL     1      26.605   2.576  51.097  1.00  0.00     0.310 C 
BRANCH   9  11
HETATM   11  C14 UNL     1      24.743   3.502  49.978  1.00  0.00     0.274 C 
BRANCH  11  12
HETATM   12  C15 UNL     1      23.501   2.827  49.540  1.00  0.00     0.050 C 
BRANCH  12  13
HETATM   13  C16 UNL     1      22.391   3.670  49.001  1.00  0.00     0.118 C 
BRANCH  13  14
HETATM   14  N5  UNL     1      21.313   3.954  49.855  1.00  0.00    -0.408 N 
HETATM   15  C17 UNL     1      21.059   2.931  50.812  1.00  0.00     0.143 C 
HETATM   16  C18 UNL     1      20.981   3.552  52.216  1.00  0.00     0.187 C 
HETATM   17  O2  UNL     1      22.052   4.406  52.438  1.00  0.00    -0.388 OA
HETATM   18  C19 UNL     1      22.006   5.522  51.605  1.00  0.00     0.187 C 
HETATM   19  C20 UNL     1      21.219   5.289  50.353  1.00  0.00     0.143 C 
ENDBRANCH  13  14
ENDBRANCH  12  13
ENDBRANCH  11  12
ENDBRANCH   9  11
ENDBRANCH   8   9
ENDBRANCH   1   8
BRANCH   7  20
HETATM   20  N4  UNL     1      26.789  -0.045  54.660  1.00  0.00    -0.362 N 
HETATM   21  H10 UNL     1      27.131   0.254  55.625  1.00  0.00     0.162 HD
BRANCH  20  22
HETATM   22  C8  UNL     1      27.631  -0.143  53.481  1.00  0.00     0.142 A 
HETATM   23  C9  UNL     1      27.997  -1.541  53.140  1.00  0.00     0.003 A 
HETATM   24  C10 UNL     1      29.304  -1.763  53.205  1.00  0.00    -0.001 A 
HETATM   25  C11 UNL     1      29.934  -0.488  53.609  1.00  0.00     0.012 A 
HETATM   26  C12 UNL     1      28.991   0.438  53.767  1.00  0.00     0.006 A 
BRANCH  26  27
HETATM   27  C13 UNL     1      29.257   1.819  54.165  1.00  0.00     0.268 C 
HETATM   28  O1  UNL     1      28.266   2.604  54.224  1.00  0.00    -0.302 OA
ENDBRANCH  26  27
ENDBRANCH  20  22
ENDBRANCH   7  20
TORSDOF 9
ENDMDL
MODEL 2
REMARK VINA RESULT:      -7.6      2.116      3.044
REMARK  9 active torsions:
REMARK  status: ('A' for Active; 'I' for Inactive)
REMARK    1  A    between atoms: N1_2  and  C2_3 
REMARK    2  A    between atoms: N1_2  and  C14_19 
REMARK    3  A    between atoms: C2_3  and  C3_4 
REMARK    4  A    between atoms: C7_10  and  N4_11 
REMARK    5  A    between atoms: N4_11  and  C8_12 
REMARK    6  A    between atoms: C12_16  and  C13_17 
REMARK    7  A    between atoms: C14_19  and  C15_20 
REMARK    8  A    between atoms: C15_20  and  C16_21 
REMARK    9  A    between atoms: C16_21  and  N5_22 
ROOT
HETATM    1  C3  UNL     1      24.538   0.795  52.612  1.00  0.00     0.015 C 
HETATM    2  C4  UNL     1      24.091  -0.014  53.584  1.00  0.00     0.005 A 
HETATM    3  C5  UNL     1      22.669  -0.339  53.690  1.00  0.00     0.192 A 
HETATM    4  N2  UNL     1      22.462  -1.209  54.819  1.00  0.00    -0.278 NA
HETATM    5  C6  UNL     1      23.389  -1.635  55.606  1.00  0.00     0.229 A 
HETATM    6  N3  UNL     1      24.755  -1.291  55.455  1.00  0.00    -0.225 NA
HETATM    7  C7  UNL     1      25.118  -0.514  54.491  1.00  0.00     0.133 A 
ENDROOT
BRANCH   1   8
HETATM    8  C2  UNL     1      23.872   1.516  51.503  1.00  0.00     0.300 C 
BRANCH   8   9
HETATM    9  N1  UNL     1      23.119   2.658  51.972  1.00  0.00     0.087 N 
HETATM   10  C1  UNL     1      23.988   3.524  52.736  1.00  0.00     0.310 C 
BRANCH   9  11
HETATM   11  C14 UNL     1      22.658   3.428  50.787  1.00  0.00     0.274 C 
BRANCH  11  12
HETATM   12  C15 UNL     1      23.626   3.315  49.673  1.00  0.00     0.050 C 
BRANCH  12  13
HETATM   13  C16 UNL     1      24.285   4.563  49.181  1.00  0.00     0.118 C 
BRANCH  13  14
HETATM   14  N5  UNL     1      25.518   4.919  49.753  1.00  0.00    -0.408 N 
HETATM   15  C17 UNL     1      26.613   4.148  49.272  1.00  0.00     0.143 C 
HETATM   16  C18 UNL     1      27.738   5.089  48.813  1.00  0.00     0.187 C 
HETATM   17  O2  UNL     1      27.239   6.096  48.000  1.00  0.00    -0.388 OA
HETATM   18  C19 UNL     1      26.388   6.951  48.697  1.00  0.00     0.187 C 
HETATM   19  C20 UNL     1      25.777   6.315  49.907  1.00  0.00     0.143 C 
ENDBRANCH  13  14
ENDBRANCH  12  13
ENDBRANCH  11  12
ENDBRANCH   9  11
ENDBRANCH   8   9
ENDBRANCH   1   8
BRANCH   7  20
HETATM   20  N4  UNL     1      26.515  -0.206  54.399  1.00  0.00    -0.362 N 
HETATM   21  H10 UNL     1      26.912   0.282  55.260  1.00  0.00     0.162 HD
BRANCH  20  22
HETATM   22  C8  UNL     1      27.285  -0.548  53.216  1.00  0.00     0.142 A 
HETATM   23  C9  UNL     1      27.198  -1.987  52.859  1.00  0.00     0.003 A 
HETATM   24  C10 UNL     1      28.371  -2.606  52.918  1.00  0.00    -0.001 A 
HETATM   25  C11 UNL     1      29.367  -1.595  53.334  1.00  0.00     0.012 A 
HETATM   26  C12 UNL     1      28.758  -0.423  53.505  1.00  0.00     0.006 A 
BRANCH  26  27
HETATM   27  C13 UNL     1      29.441   0.802  53.916  1.00  0.00     0.268 C 
HETATM   28  O1  UNL     1      29.058   1.342  54.995  1.00  0.00    -0.302 OA
ENDBRANCH  26  27
ENDBRANCH  20  22
ENDBRANCH   7  20
TORSDOF 9
ENDMDL
MODEL 3
REMARK VINA RESULT:      -7.4      2.147      2.649
REMARK  9 active torsions:
REMARK  status: ('A' for Active; 'I' for Inactive)
REMARK    1  A    between atoms: N1_2  and  C2_3 
REMARK    2  A    between atoms: N1_2  and  C14_19 
REMARK    3  A    between atoms: C2_3  and  C3_4 
REMARK    4  A    between atoms: C7_10  and  N4_11 
REMARK    5  A    between atoms: N4_11  and  C8_12 
REMARK    6  A    between atoms: C12_16  and  C13_17 
REMARK    7  A    between atoms: C14_19  and  C15_20 
REMARK    8  A    between atoms: C15_20  and  C16_21 
REMARK    9  A    between atoms: C16_21  and  N5_22 
ROOT
HETATM    1  C3  UNL     1      24.988   0.928  52.728  1.00  0.00     0.015 C 
HETATM    2  C4  UNL     1      24.456   0.098  53.637  1.00  0.00     0.005 A 
HETATM    3  C5  UNL     1      23.037  -0.255  53.587  1.00  0.00     0.192 A 
HETATM    4  N2  UNL     1      22.729  -1.144  54.677  1.00  0.00    -0.278 NA
HETATM    5  C6  UNL     1      23.575  -1.563  55.554  1.00  0.00     0.229 A 
HETATM    6  N3  UNL     1      24.942  -1.191  55.553  1.00  0.00    -0.225 NA
HETATM    7  C7  UNL     1      25.390  -0.395  54.642  1.00  0.00     0.133 A 
ENDROOT
BRANCH   1   8
HETATM    8  C2  UNL     1      24.428   1.652  51.562  1.00  0.00     0.300 C 
BRANCH   8   9
HETATM    9  N1  UNL     1      23.391   2.583  51.947  1.00  0.00     0.087 N 
HETATM   10  C1  UNL     1      23.983   3.872  52.225  1.00  0.00     0.310 C 
BRANCH   9  11
HETATM   11  C14 UNL     1      22.473   2.758  50.791  1.00  0.00     0.274 C 
BRANCH  11  12
HETATM   12  C15 UNL     1      22.308   1.488  50.049  1.00  0.00     0.050 C 
BRANCH  12  13
HETATM   13  C16 UNL     1      21.170   0.594  50.424  1.00  0.00     0.118 C 
BRANCH  13  14
HETATM   14  N5  UNL     1      20.013   1.194  50.945  1.00  0.00    -0.408 N 
HETATM   15  C17 UNL     1      18.907   1.172  50.050  1.00  0.00     0.143 C 
HETATM   16  C18 UNL     1      17.675   0.601  50.774  1.00  0.00     0.187 C 
HETATM   17  O2  UNL     1      17.997  -0.567  51.448  1.00  0.00    -0.388 OA
HETATM   18  C19 UNL     1      18.888  -0.335  52.494  1.00  0.00     0.187 C 
HETATM   19  C20 UNL     1      19.698   0.911  52.309  1.00  0.00     0.143 C 
ENDBRANCH  13  14
ENDBRANCH  12  13
ENDBRANCH  11  12
ENDBRANCH   9  11
ENDBRANCH   8   9
ENDBRANCH   1   8
BRANCH   7  20
HETATM   20  N4  UNL     1      26.782  -0.060  54.703  1.00  0.00    -0.362 N 
HETATM   21  H10 UNL     1      27.117   0.241  55.670  1.00  0.00     0.162 HD
BRANCH  20  22
HETATM   22  C8  UNL     1      27.628  -0.138  53.526  1.00  0.00     0.142 A 
HETATM   23  C9  UNL     1      27.979  -1.531  53.151  1.00  0.00     0.003 A 
HETATM   24  C10 UNL     1      29.284  -1.770  53.215  1.00  0.00    -0.001 A 
HETATM   25  C11 UNL     1      29.927  -0.513  53.654  1.00  0.00     0.012 A 
HETATM   26  C12 UNL     1      28.993   0.420  53.832  1.00  0.00     0.006 A 
BRANCH  26  27
HETATM   27  C13 UNL     1      29.274   1.787  54.265  1.00  0.00     0.268 C 
HETATM   28  O1  UNL     1      28.321   2.618  54.208  1.00  0.00    -0.302 OA
ENDBRANCH  26  27
ENDBRANCH  20  22
ENDBRANCH   7  20
TORSDOF 9
ENDMDL
MODEL 4
REMARK VINA RESULT:      -7.4      1.208      1.657
REMARK  9 active torsions:
REMARK  status: ('A' for Active; 'I' for Inactive)
REMARK    1  A    between atoms: N1_2  and  C2_3 
REMARK    2  A    between atoms: N1_2  and  C14_19 
REMARK    3  A    between atoms: C2_3  and  C3_4 
REMARK    4  A    between atoms: C7_10  and  N4_11 
REMARK    5  A    between atoms: N4_11  and  C8_12 
REMARK    6  A    between atoms: C12_16  and  C13_17 
REMARK    7  A    between atoms: C14_19  and  C15_20 
REMARK    8  A    between atoms: C15_20  and  C16_21 
REMARK    9  A    between atoms: C16_21  and  N5_22 
ROOT
HETATM    1  C3  UNL     1      24.612   0.743  52.296  1.00  0.00     0.015 C 
HETATM    2  C4  UNL     1      24.171   0.064  53.365  1.00  0.00     0.005 A 
HETATM    3  C5  UNL     1      22.763   0.126  53.760  1.00  0.00     0.192 A 
HETATM    4  N2  UNL     1      22.564  -0.680  54.938  1.00  0.00    -0.278 NA
HETATM    5  C6  UNL     1      23.483  -1.350  55.542  1.00  0.00     0.229 A 
HETATM    6  N3  UNL     1      24.833  -1.378  55.113  1.00  0.00    -0.225 NA
HETATM    7  C7  UNL     1      25.189  -0.707  54.069  1.00  0.00     0.133 A 
ENDROOT
BRANCH   1   8
HETATM    8  C2  UNL     1      23.952   1.635  51.315  1.00  0.00     0.300 C 
BRANCH   8   9
HETATM    9  N1  UNL     1      24.705   2.849  51.092  1.00  0.00     0.087 N 
HETATM   10  C1  UNL     1      26.118   2.542  51.081  1.00  0.00     0.310 C 
BRANCH   9  11
HETATM   11  C14 UNL     1      24.356   3.370  49.744  1.00  0.00     0.274 C 
BRANCH  11  12
HETATM   12  C15 UNL     1      23.061   2.821  49.284  1.00  0.00     0.050 C 
BRANCH  12  13
HETATM   13  C16 UNL     1      22.012   3.781  48.821  1.00  0.00     0.118 C 
BRANCH  13  14
HETATM   14  N5  UNL     1      20.989   4.114  49.724  1.00  0.00    -0.408 N 
HETATM   15  C17 UNL     1      20.670   3.069  50.635  1.00  0.00     0.143 C 
HETATM   16  C18 UNL     1      20.690   3.619  52.071  1.00  0.00     0.187 C 
HETATM   17  O2  UNL     1      21.840   4.359  52.300  1.00  0.00    -0.388 OA
HETATM   18  C19 UNL     1      21.874   5.518  51.527  1.00  0.00     0.187 C 
HETATM   19  C20 UNL     1      21.033   5.424  50.291  1.00  0.00     0.143 C 
ENDBRANCH  13  14
ENDBRANCH  12  13
ENDBRANCH  11  12
ENDBRANCH   9  11
ENDBRANCH   8   9
ENDBRANCH   1   8
BRANCH   7  20
HETATM   20  N4  UNL     1      26.570  -0.779  53.694  1.00  0.00    -0.362 N 
HETATM   21  H10 UNL     1      26.756  -1.370  52.825  1.00  0.00     0.162 HD
BRANCH  20  22
HETATM   22  C8  UNL     1      27.595  -0.090  54.457  1.00  0.00     0.142 A 
HETATM   23  C9  UNL     1      27.467   1.389  54.403  1.00  0.00     0.003 A 
HETATM   24  C10 UNL     1      28.514   1.977  53.837  1.00  0.00    -0.001 A 
HETATM   25  C11 UNL     1      29.453   0.902  53.454  1.00  0.00     0.012 A 
HETATM   26  C12 UNL     1      28.939  -0.276  53.803  1.00  0.00     0.006 A 
BRANCH  26  27
HETATM   27  C13 UNL     1      29.601  -1.559  53.575  1.00  0.00     0.268 C 
HETATM   28  O1  UNL     1      28.859  -2.569  53.405  1.00  0.00    -0.302 OA
ENDBRANCH  26  27
ENDBRANCH  20  22
ENDBRANCH   7  20
TORSDOF 9
ENDMDL
MODEL 5
REMARK VINA RESULT:      -7.3      2.327      3.120
REMARK  9 active torsions:
REMARK  status: ('A' for Active; 'I' for Inactive)
REMARK    1  A    between atoms: N1_2  and  C2_3 
REMARK    2  A    between atoms: N1_2  and  C14_19 
REMARK    3  A    between atoms: C2_3  and  C3_4 
REMARK    4  A    between atoms: C7_10  and  N4_11 
REMARK    5  A    between atoms: N4_11  and  C8_12 
REMARK    6  A    between atoms: C12_16  and  C13_17 
REMARK    7  A    between atoms: C14_19  and  C15_20 
REMARK    8  A    between atoms: C15_20  and  C16_21 
REMARK    9  A    between atoms: C16_21  and  N5_22 
ROOT
HETATM    1  C3  UNL     1      23.973   0.693  52.420  1.00  0.00     0.015 C 
HETATM    2  C4  UNL     1      23.877  -0.054  53.529  1.00  0.00     0.005 A 
HETATM    3  C5  UNL     1      22.570  -0.383  54.097  1.00  0.00     0.192 A 
HETATM    4  N2  UNL     1      22.754  -1.179  55.284  1.00  0.00    -0.278 NA
HETATM    5  C6  UNL     1      23.893  -1.545  55.763  1.00  0.00     0.229 A 
HETATM    6  N3  UNL     1      25.132  -1.200  55.168  1.00  0.00    -0.225 NA
HETATM    7  C7  UNL     1      25.151  -0.485  54.094  1.00  0.00     0.133 A 
ENDROOT
BRANCH   1   8
HETATM    8  C2  UNL     1      22.971   1.334  51.536  1.00  0.00     0.300 C 
BRANCH   8   9
HETATM    9  N1  UNL     1      23.253   2.737  51.324  1.00  0.00     0.087 N 
HETATM   10  C1  UNL     1      23.404   3.395  52.603  1.00  0.00     0.310 C 
BRANCH   9  11
HETATM   11  C14 UNL     1      24.555   2.845  50.615  1.00  0.00     0.274 C 
BRANCH  11  12
HETATM   12  C15 UNL     1      24.403   3.574  49.336  1.00  0.00     0.050 C 
BRANCH  12  13
HETATM   13  C16 UNL     1      24.142   5.045  49.388  1.00  0.00     0.118 C 
BRANCH  13  14
HETATM   14  N5  UNL     1      24.936   5.818  50.251  1.00  0.00    -0.408 N 
HETATM   15  C17 UNL     1      26.067   6.401  49.615  1.00  0.00     0.143 C 
HETATM   16  C18 UNL     1      26.106   7.908  49.921  1.00  0.00     0.187 C 
HETATM   17  O2  UNL     1      24.864   8.487  49.708  1.00  0.00    -0.388 OA
HETATM   18  C19 UNL     1      23.910   8.014  50.607  1.00  0.00     0.187 C 
HETATM   19  C20 UNL     1      24.249   6.668  51.169  1.00  0.00     0.143 C 
ENDBRANCH  13  14
ENDBRANCH  12  13
ENDBRANCH  11  12
ENDBRANCH   9  11
ENDBRANCH   8   9
ENDBRANCH   1   8
BRANCH   7  20
HETATM   20  N4  UNL     1      26.439  -0.172  53.548  1.00  0.00    -0.362 N 
HETATM   21  H10 UNL     1      26.426   0.066  52.508  1.00  0.00     0.162 HD
BRANCH  20  22
HETATM   22  C8  UNL     1      27.632  -0.188  54.375  1.00  0.00     0.142 A 
HETATM   23  C9  UNL     1      28.197   1.164  54.610  1.00  0.00     0.003 A 
HETATM   24  C10 UNL     1      29.420   1.307  54.113  1.00  0.00    -0.001 A 
HETATM   25  C11 UNL     1      29.778   0.018  53.485  1.00  0.00     0.012 A 
HETATM   26  C12 UNL     1      28.769  -0.838  53.630  1.00  0.00     0.006 A 
BRANCH  26  27
HETATM   27  C13 UNL     1      28.780  -2.210  53.128  1.00  0.00     0.268 C 
HETATM   28  O1  UNL     1      27.658  -2.753  52.906  1.00  0.00    -0.302 OA
ENDBRANCH  26  27
ENDBRANCH  20  22
ENDBRANCH   7  20
TORSDOF 9
ENDMDL
MODEL 6
REMARK VINA RESULT:      -7.2      2.797      7.251
REMARK  9 active torsions:
REMARK  status: ('A' for Active; 'I' for Inactive)
REMARK    1  A    between atoms: N1_2  and  C2_3 
REMARK    2  A    between atoms: N1_2  and  C14_19 
REMARK    3  A    between atoms: C2_3  and  C3_4 
REMARK    4  A    between atoms: C7_10  and  N4_11 
REMARK    5  A    between atoms: N4_11  and  C8_12 
REMARK    6  A    between atoms: C12_16  and  C13_17 
REMARK    7  A    between atoms: C14_19  and  C15_20 
REMARK    8  A    between atoms: C15_20  and  C16_21 
REMARK    9  A    between atoms: C16_21  and  N5_22 
ROOT
HETATM    1  C3  UNL     1      24.216   4.074  52.112  1.00  0.00     0.015 C 
HETATM    2  C4  UNL     1      23.418   5.049  51.654  1.00  0.00     0.005 A 
HETATM    3  C5  UNL     1      21.994   5.070  51.991  1.00  0.00     0.192 A 
HETATM    4  N2  UNL     1      21.374   6.210  51.365  1.00  0.00    -0.278 NA
HETATM    5  C6  UNL     1      21.982   7.074  50.629  1.00  0.00     0.229 A 
HETATM    6  N3  UNL     1      23.367   7.009  50.337  1.00  0.00    -0.225 NA
HETATM    7  C7  UNL     1      24.079   6.046  50.819  1.00  0.00     0.133 A 
ENDROOT
BRANCH   1   8
HETATM    8  C2  UNL     1      23.981   2.885  52.965  1.00  0.00     0.300 C 
BRANCH   8   9
HETATM    9  N1  UNL     1      23.231   1.860  52.273  1.00  0.00     0.087 N 
HETATM   10  C1  UNL     1      23.588   1.867  50.872  1.00  0.00     0.310 C 
BRANCH   9  11
HETATM   11  C14 UNL     1      23.635   0.540  52.825  1.00  0.00     0.274 C 
BRANCH  11  12
HETATM   12  C15 UNL     1      24.999   0.600  53.398  1.00  0.00     0.050 C 
BRANCH  12  13
HETATM   13  C16 UNL     1      26.016  -0.378  52.904  1.00  0.00     0.118 C 
BRANCH  13  14
HETATM   14  N5  UNL     1      27.309   0.103  52.640  1.00  0.00    -0.408 N 
HETATM   15  C17 UNL     1      27.391   1.523  52.598  1.00  0.00     0.143 C 
HETATM   16  C18 UNL     1      28.531   1.996  53.515  1.00  0.00     0.187 C 
HETATM   17  O2  UNL     1      28.454   1.382  54.756  1.00  0.00    -0.388 OA
HETATM   18  C19 UNL     1      28.678   0.009  54.670  1.00  0.00     0.187 C 
HETATM   19  C20 UNL     1      28.387  -0.550  53.311  1.00  0.00     0.143 C 
ENDBRANCH  13  14
ENDBRANCH  12  13
ENDBRANCH  11  12
ENDBRANCH   9  11
ENDBRANCH   8   9
ENDBRANCH   1   8
BRANCH   7  20
HETATM   20  N4  UNL     1      25.472   6.040  50.482  1.00  0.00    -0.362 N 
HETATM   21  H10 UNL     1      26.121   6.229  51.306  1.00  0.00     0.162 HD
BRANCH  20  22
HETATM   22  C8  UNL     1      25.917   5.792  49.122  1.00  0.00     0.142 A 
HETATM   23  C9  UNL     1      26.726   4.553  48.990  1.00  0.00     0.003 A 
HETATM   24  C10 UNL     1      27.968   4.789  48.585  1.00  0.00    -0.001 A 
HETATM   25  C11 UNL     1      28.090   6.252  48.410  1.00  0.00     0.012 A 
HETATM   26  C12 UNL     1      26.929   6.829  48.713  1.00  0.00     0.006 A 
BRANCH  26  27
HETATM   27  C13 UNL     1      26.691   8.269  48.651  1.00  0.00     0.268 C 
HETATM   28  O1  UNL     1      25.735   8.727  49.342  1.00  0.00    -0.302 OA
ENDBRANCH  26  27
ENDBRANCH  20  22
ENDBRANCH   7  20
TORSDOF 9
ENDMDL
MODEL 7
REMARK VINA RESULT:      -7.2      1.936      2.317
REMARK  9 active torsions:
REMARK  status: ('A' for Active; 'I' for Inactive)
REMARK    1  A    between atoms: N1_2  and  C2_3 
REMARK    2  A    between atoms: N1_2  and  C14_19 
REMARK    3  A    between atoms: C2_3  and  C3_4 
REMARK    4  A    between atoms: C7_10  and  N4_11 
REMARK    5  A    between atoms: N4_11  and  C8_12 
REMARK    6  A    between atoms: C12_16  and  C13_17 
REMARK    7  A    between atoms: C14_19  and  C15_20 
REMARK    8  A    between atoms: C15_20  and  C16_21 
REMARK    9  A    between atoms: C16_21  and  N5_22 
ROOT
HETATM    1  C3  UNL     1      24.907   2.352  52.530  1.00  0.00     0.015 C 
HETATM    2  C4  UNL     1      24.171   1.286  52.875  1.00  0.00     0.005 A 
HETATM    3  C5  UNL     1      22.757   1.204  52.508  1.00  0.00     0.192 A 
HETATM    4  N2  UNL     1      22.206  -0.030  53.009  1.00  0.00    -0.278 NA
HETATM    5  C6  UNL     1      22.860  -0.919  53.672  1.00  0.00     0.229 A 
HETATM    6  N3  UNL     1      24.234  -0.790  53.999  1.00  0.00    -0.225 NA
HETATM    7  C7  UNL     1      24.885   0.260  53.627  1.00  0.00     0.133 A 
ENDROOT
BRANCH   1   8
HETATM    8  C2  UNL     1      24.605   3.599  51.789  1.00  0.00     0.300 C 
BRANCH   8   9
HETATM    9  N1  UNL     1      25.507   3.801  50.677  1.00  0.00     0.087 N 
HETATM   10  C1  UNL     1      26.627   2.896  50.797  1.00  0.00     0.310 C 
BRANCH   9  11
HETATM   11  C14 UNL     1      24.785   3.449  49.426  1.00  0.00     0.274 C 
BRANCH  11  12
HETATM   12  C15 UNL     1      23.435   4.052  49.405  1.00  0.00     0.050 C 
BRANCH  12  13
HETATM   13  C16 UNL     1      23.155   5.124  48.401  1.00  0.00     0.118 C 
BRANCH  13  14
HETATM   14  N5  UNL     1      23.171   6.456  48.847  1.00  0.00    -0.408 N 
HETATM   15  C17 UNL     1      22.872   6.597  50.231  1.00  0.00     0.143 C 
HETATM   16  C18 UNL     1      23.957   7.455  50.903  1.00  0.00     0.187 C 
HETATM   17  O2  UNL     1      25.223   7.017  50.549  1.00  0.00    -0.388 OA
HETATM   18  C19 UNL     1      25.477   7.208  49.191  1.00  0.00     0.187 C 
HETATM   19  C20 UNL     1      24.230   7.284  48.366  1.00  0.00     0.143 C 
ENDBRANCH  13  14
ENDBRANCH  12  13
ENDBRANCH  11  12
ENDBRANCH   9  11
ENDBRANCH   8   9
ENDBRANCH   1   8
BRANCH   7  20
HETATM   20  N4  UNL     1      26.269   0.325  53.992  1.00  0.00    -0.362 N 
HETATM   21  H10 UNL     1      26.440   0.574  55.016  1.00  0.00     0.162 HD
BRANCH  20  22
HETATM   22  C8  UNL     1      27.318   0.068  53.022  1.00  0.00     0.142 A 
HETATM   23  C9  UNL     1      27.696  -1.366  52.937  1.00  0.00     0.003 A 
HETATM   24  C10 UNL     1      28.959  -1.588  53.283  1.00  0.00    -0.001 A 
HETATM   25  C11 UNL     1      29.541  -0.277  53.637  1.00  0.00     0.012 A 
HETATM   26  C12 UNL     1      28.616   0.670  53.491  1.00  0.00     0.006 A 
BRANCH  26  27
HETATM   27  C13 UNL     1      28.847   2.088  53.755  1.00  0.00     0.268 C 
HETATM   28  O1  UNL     1      29.404   2.389  54.851  1.00  0.00    -0.302 OA
ENDBRANCH  26  27
ENDBRANCH  20  22
ENDBRANCH   7  20
TORSDOF 9
ENDMDL
MODEL 8
REMARK VINA RESULT:      -7.0      1.933      3.050
REMARK  9 active torsions:
REMARK  status: ('A' for Active; 'I' for Inactive)
REMARK    1  A    between atoms: N1_2  and  C2_3 
REMARK    2  A    between atoms: N1_2  and  C14_19 
REMARK    3  A    between atoms: C2_3  and  C3_4 
REMARK    4  A    between atoms: C7_10  and  N4_11 
REMARK    5  A    between atoms: N4_11  and  C8_12 
REMARK    6  A    between atoms: C12_16  and  C13_17 
REMARK    7  A    between atoms: C14_19  and  C15_20 
REMARK    8  A    between atoms: C15_20  and  C16_21 
REMARK    9  A    between atoms: C16_21  and  N5_22 
ROOT
HETATM    1  C3  UNL     1      22.059   0.327  51.886  1.00  0.00     0.015 C 
HETATM    2  C4  UNL     1      22.189  -0.333  53.045  1.00  0.00     0.005 A 
HETATM    3  C5  UNL     1      21.035  -0.978  53.671  1.00  0.00     0.192 A 
HETATM    4  N2  UNL     1      21.448  -1.601  54.903  1.00  0.00    -0.278 NA
HETATM    5  C6  UNL     1      22.647  -1.592  55.373  1.00  0.00     0.229 A 
HETATM    6  N3  UNL     1      23.732  -0.954  54.721  1.00  0.00    -0.225 NA
HETATM    7  C7  UNL     1      23.538  -0.343  53.602  1.00  0.00     0.133 A 
ENDROOT
BRANCH   1   8
HETATM    8  C2  UNL     1      20.909   0.591  50.990  1.00  0.00     0.300 C 
BRANCH   8   9
HETATM    9  N1  UNL     1      21.327   1.127  49.713  1.00  0.00     0.087 N 
HETATM   10  C1  UNL     1      20.421   2.181  49.315  1.00  0.00     0.310 C 
BRANCH   9  11
HETATM   11  C14 UNL     1      22.670   1.740  49.886  1.00  0.00     0.274 C 
BRANCH  11  12
HETATM   12  C15 UNL     1      22.847   2.893  48.975  1.00  0.00     0.050 C 
BRANCH  12  13
HETATM   13  C16 UNL     1      23.902   3.899  49.306  1.00  0.00     0.118 C 
BRANCH  13  14
HETATM   14  N5  UNL     1      23.511   5.045  50.018  1.00  0.00    -0.408 N 
HETATM   15  C17 UNL     1      22.161   5.428  49.785  1.00  0.00     0.143 C 
HETATM   16  C18 UNL     1      21.444   5.620  51.132  1.00  0.00     0.187 C 
HETATM   17  O2  UNL     1      21.683   4.546  51.976  1.00  0.00    -0.388 OA
HETATM   18  C19 UNL     1      23.024   4.469  52.349  1.00  0.00     0.187 C 
HETATM   19  C20 UNL     1      23.944   5.138  51.376  1.00  0.00     0.143 C 
ENDBRANCH  13  14
ENDBRANCH  12  13
ENDBRANCH  11  12
ENDBRANCH   9  11
ENDBRANCH   8   9
ENDBRANCH   1   8
BRANCH   7  20
HETATM   20  N4  UNL     1      24.678   0.283  52.999  1.00  0.00    -0.362 N 
HETATM   21  H10 UNL     1      24.580   0.453  51.951  1.00  0.00     0.162 HD
BRANCH  20  22
HETATM   22  C8  UNL     1      25.846   0.638  53.786  1.00  0.00     0.142 A 
HETATM   23  C9  UNL     1      26.095   2.101  53.831  1.00  0.00     0.003 A 
HETATM   24  C10 UNL     1      27.255   2.444  53.284  1.00  0.00    -0.001 A 
HETATM   25  C11 UNL     1      27.892   1.195  52.815  1.00  0.00     0.012 A 
HETATM   26  C12 UNL     1      27.098   0.164  53.096  1.00  0.00     0.006 A 
BRANCH  26  27
HETATM   27  C13 UNL     1      27.413  -1.226  52.772  1.00  0.00     0.268 C 
HETATM   28  O1  UNL     1      26.665  -2.118  53.266  1.00  0.00    -0.302 OA
ENDBRANCH  26  27
ENDBRANCH  20  22
ENDBRANCH   7  20
TORSDOF 9
ENDMDL
MODEL 9
REMARK VINA RESULT:      -7.0      2.001      2.794
REMARK  9 active torsions:
REMARK  status: ('A' for Active; 'I' for Inactive)
REMARK    1  A    between atoms: N1_2  and  C2_3 
REMARK    2  A    between atoms: N1_2  and  C14_19 
REMARK    3  A    between atoms: C2_3  and  C3_4 
REMARK    4  A    between atoms: C7_10  and  N4_11 
REMARK    5  A    between atoms: N4_11  and  C8_12 
REMARK    6  A    between atoms: C12_16  and  C13_17 
REMARK    7  A    between atoms: C14_19  and  C15_20 
REMARK    8  A    between atoms: C15_20  and  C16_21 
REMARK    9  A    between atoms: C16_21  and  N5_22 
ROOT
HETATM    1  C3  UNL     1      23.737   0.813  52.470  1.00  0.00     0.015 C 
HETATM    2  C4  UNL     1      23.719  -0.000  53.536  1.00  0.00     0.005 A 
HETATM    3  C5  UNL     1      22.474  -0.637  53.967  1.00  0.00     0.192 A 
HETATM    4  N2  UNL     1      22.732  -1.443  55.134  1.00  0.00    -0.278 NA
HETATM    5  C6  UNL     1      23.880  -1.581  55.701  1.00  0.00     0.229 A 
HETATM    6  N3  UNL     1      25.057  -0.941  55.238  1.00  0.00    -0.225 NA
HETATM    7  C7  UNL     1      25.006  -0.177  54.199  1.00  0.00     0.133 A 
ENDROOT
BRANCH   1   8
HETATM    8  C2  UNL     1      22.694   1.273  51.523  1.00  0.00     0.300 C 
BRANCH   8   9
HETATM    9  N1  UNL     1      22.481   2.701  51.602  1.00  0.00     0.087 N 
HETATM   10  C1  UNL     1      21.159   2.961  52.128  1.00  0.00     0.310 C 
BRANCH   9  11
HETATM   11  C14 UNL     1      23.460   3.263  52.569  1.00  0.00     0.274 C 
BRANCH  11  12
HETATM   12  C15 UNL     1      23.616   4.722  52.379  1.00  0.00     0.050 C 
BRANCH  12  13
HETATM   13  C16 UNL     1      23.920   5.226  51.004  1.00  0.00     0.118 C 
BRANCH  13  14
HETATM   14  N5  UNL     1      23.028   6.150  50.437  1.00  0.00    -0.408 N 
HETATM   15  C17 UNL     1      23.336   7.504  50.748  1.00  0.00     0.143 C 
HETATM   16  C18 UNL     1      23.380   8.330  49.452  1.00  0.00     0.187 C 
HETATM   17  O2  UNL     1      24.142   7.690  48.485  1.00  0.00    -0.388 OA
HETATM   18  C19 UNL     1      23.556   6.495  48.070  1.00  0.00     0.187 C 
HETATM   19  C20 UNL     1      22.626   5.912  49.088  1.00  0.00     0.143 C 
ENDBRANCH  13  14
ENDBRANCH  12  13
ENDBRANCH  11  12
ENDBRANCH   9  11
ENDBRANCH   8   9
ENDBRANCH   1   8
BRANCH   7  20
HETATM   20  N4  UNL     1      26.232   0.438  53.787  1.00  0.00    -0.362 N 
HETATM   21  H10 UNL     1      26.449   1.357  54.284  1.00  0.00     0.162 HD
BRANCH  20  22
HETATM   22  C8  UNL     1      27.079  -0.170  52.776  1.00  0.00     0.142 A 
HETATM   23  C9  UNL     1      26.692  -1.568  52.457  1.00  0.00     0.003 A 
HETATM   24  C10 UNL     1      27.645  -2.446  52.748  1.00  0.00    -0.001 A 
HETATM   25  C11 UNL     1      28.779  -1.677  53.304  1.00  0.00     0.012 A 
HETATM   26  C12 UNL     1      28.466  -0.384  53.323  1.00  0.00     0.006 A 
BRANCH  26  27
HETATM   27  C13 UNL     1      29.356   0.667  53.810  1.00  0.00     0.268 C 
HETATM   28  O1  UNL     1      28.893   1.457  54.685  1.00  0.00    -0.302 OA
ENDBRANCH  26  27
ENDBRANCH  20  22
ENDBRANCH   7  20
TORSDOF 9
ENDMDL
