MODEL 1
REMARK VINA RESULT:      -8.6      0.000      0.000
REMARK  3 active torsions:
REMARK  status: ('A' for Active; 'I' for Inactive)
REMARK    1  A    between atoms: C7_9  and  C8_10 
REMARK    2  A    between atoms: C8_10  and  C9_11 
REMARK    3  A    between atoms: C9_11  and  C10_12 
ROOT
HETATM    1  S1  UNL     1      29.126   2.473  53.801  1.00  0.00    -0.045 SA
HETATM    2  C1  UNL     1      27.683   1.775  53.879  1.00  0.00     0.170 C 
HETATM    3  N1  UNL     1      27.275   0.666  54.669  1.00  0.00    -0.346 N 
HETATM    4  C2  UNL     1      26.095  -0.092  54.855  1.00  0.00     0.102 C 
HETATM    5  C3  UNL     1      26.536  -0.839  53.815  1.00  0.00    -0.009 C 
HETATM    6  C4  UNL     1      25.748  -0.757  52.807  1.00  0.00     0.014 C 
HETATM    7  C5  UNL     1      26.754   0.065  52.024  1.00  0.00     0.003 C 
HETATM    8  C6  UNL     1      26.387   1.260  51.374  1.00  0.00     0.033 C 
HETATM    9  C7  UNL     1      24.964   1.666  51.532  1.00  0.00     0.071 C 
HETATM   10  N2  UNL     1      25.119   1.777  52.881  1.00  0.00    -0.195 NA
HETATM   11  N3  UNL     1      26.285   1.546  53.555  1.00  0.00    -0.157 NA
HETATM   12  H1  UNL     1      28.145   0.420  55.215  1.00  0.00     0.167 HD
HETATM   13  H15 UNL     1      26.650   2.404  52.991  1.00  0.00     0.157 HD
ENDROOT
BRANCH   9  14
HETATM   14  C8  UNL     1      23.522   2.107  51.663  1.00  0.00     0.034 C 
BRANCH  14  15
HETATM   15  C9  UNL     1      22.677   1.186  52.224  1.00  0.00     0.014 C 
BRANCH  15  16
HETATM   16  C10 UNL     1      21.724   0.308  52.938  1.00  0.00    -0.025 A 
HETATM   17  C11 UNL     1      22.382  -0.256  53.979  1.00  0.00     0.012 A 
HETATM   18  C12 UNL     1      21.461  -1.171  54.609  1.00  0.00     0.002 A 
HETATM   19  C13 UNL     1      20.195  -1.324  54.126  1.00  0.00     0.012 A 
HETATM   20  C14 UNL     1      19.640  -0.688  53.060  1.00  0.00    -0.025 A 
HETATM   21  C15 UNL     1      18.368  -0.820  52.626  1.00  0.00     0.012 A 
HETATM   22  C19 UNL     1      20.512   0.251  52.374  1.00  0.00    -0.016 A 
HETATM   23  C16 UNL     1      17.754  -0.174  51.591  1.00  0.00     0.001 A 
HETATM   24  C17 UNL     1      18.625   0.700  50.978  1.00  0.00     0.001 A 
HETATM   25  C18 UNL     1      19.968   0.950  51.309  1.00  0.00     0.013 A 
ENDBRANCH  15  16
ENDBRANCH  14  15
ENDBRANCH   9  14
TORSDOF 3
ENDMDL
MODEL 2
REMARK VINA RESULT:      -8.5      0.922      2.382
REMARK  3 active torsions:
REMARK  status: ('A' for Active; 'I' for Inactive)
REMARK    1  A    between atoms: C7_9  and  C8_10 
REMARK    2  A    between atoms: C8_10  and  C9_11 
REMARK    3  A    between atoms: C9_11  and  C10_12 
ROOT
HETATM    1  S1  UNL     1      29.417   1.128  54.337  1.00  0.00    -0.045 SA
HETATM    2  C1  UNL     1      27.828   0.917  54.261  1.00  0.00     0.170 C 
HETATM    3  N1  UNL     1      27.062  -0.210  54.667  1.00  0.00    -0.346 N 
HETATM    4  C2  UNL     1      25.699  -0.590  54.660  1.00  0.00     0.102 C 
HETATM    5  C3  UNL     1      25.943  -1.053  53.411  1.00  0.00    -0.009 C 
HETATM    6  C4  UNL     1      25.270  -0.410  52.529  1.00  0.00     0.014 C 
HETATM    7  C5  UNL     1      26.517   0.275  52.003  1.00  0.00     0.003 C 
HETATM    8  C6  UNL     1      26.565   1.669  51.799  1.00  0.00     0.033 C 
HETATM    9  C7  UNL     1      25.328   2.412  52.158  1.00  0.00     0.071 C 
HETATM   10  N2  UNL     1      25.441   2.024  53.459  1.00  0.00    -0.195 NA
HETATM   11  N3  UNL     1      26.446   1.243  53.956  1.00  0.00    -0.157 NA
HETATM   12  H1  UNL     1      27.787  -0.873  55.055  1.00  0.00     0.167 HD
HETATM   13  H15 UNL     1      27.082   2.084  53.685  1.00  0.00     0.157 HD
ENDROOT
BRANCH   9  14
HETATM   14  C8  UNL     1      24.085   3.204  52.504  1.00  0.00     0.034 C 
BRANCH  14  15
HETATM   15  C9  UNL     1      22.897   2.590  52.200  1.00  0.00     0.014 C 
BRANCH  15  16
HETATM   16  C10 UNL     1      21.685   1.789  51.922  1.00  0.00    -0.025 A 
HETATM   17  C11 UNL     1      21.072   2.328  50.842  1.00  0.00     0.012 A 
HETATM   18  C12 UNL     1      19.851   1.586  50.640  1.00  0.00     0.002 A 
HETATM   19  C13 UNL     1      19.521   0.555  51.470  1.00  0.00     0.012 A 
HETATM   20  C14 UNL     1      20.233   0.096  52.534  1.00  0.00    -0.025 A 
HETATM   21  C15 UNL     1      19.909  -0.957  53.315  1.00  0.00     0.012 A 
HETATM   22  C19 UNL     1      21.477   0.799  52.798  1.00  0.00    -0.016 A 
HETATM   23  C16 UNL     1      20.611  -1.479  54.365  1.00  0.00     0.001 A 
HETATM   24  C17 UNL     1      21.776  -0.776  54.570  1.00  0.00     0.001 A 
HETATM   25  C18 UNL     1      22.251   0.333  53.848  1.00  0.00     0.013 A 
ENDBRANCH  15  16
ENDBRANCH  14  15
ENDBRANCH   9  14
TORSDOF 3
ENDMDL
MODEL 3
REMARK VINA RESULT:      -8.4      4.521      7.837
REMARK  3 active torsions:
REMARK  status: ('A' for Active; 'I' for Inactive)
REMARK    1  A    between atoms: C7_9  and  C8_10 
REMARK    2  A    between atoms: C8_10  and  C9_11 
REMARK    3  A    between atoms: C9_11  and  C10_12 
ROOT
HETATM    1  S1  UNL     1      23.418  -0.814  54.134  1.00  0.00    -0.045 SA
HETATM    2  C1  UNL     1      24.821  -0.401  53.474  1.00  0.00     0.170 C 
HETATM    3  N1  UNL     1      26.130  -0.824  53.833  1.00  0.00    -0.346 N 
HETATM    4  C2  UNL     1      27.454  -0.563  53.407  1.00  0.00     0.102 C 
HETATM    5  C3  UNL     1      27.418   0.473  54.277  1.00  0.00    -0.009 C 
HETATM    6  C4  UNL     1      27.515   1.601  53.674  1.00  0.00     0.014 C 
HETATM    7  C5  UNL     1      26.064   1.934  53.957  1.00  0.00     0.003 C 
HETATM    8  C6  UNL     1      25.198   2.391  52.942  1.00  0.00     0.033 C 
HETATM    9  C7  UNL     1      25.799   2.495  51.586  1.00  0.00     0.071 C 
HETATM   10  N2  UNL     1      26.044   1.155  51.563  1.00  0.00    -0.195 NA
HETATM   11  N3  UNL     1      25.726   0.287  52.568  1.00  0.00    -0.157 NA
HETATM   12  H1  UNL     1      25.961  -1.498  54.628  1.00  0.00     0.167 HD
HETATM   13  H15 UNL     1      24.699   0.557  52.326  1.00  0.00     0.157 HD
ENDROOT
BRANCH   9  14
HETATM   14  C8  UNL     1      26.377   2.623  50.192  1.00  0.00     0.034 C 
BRANCH  14  15
HETATM   15  C9  UNL     1      26.358   3.887  49.664  1.00  0.00     0.014 C 
BRANCH  15  16
HETATM   16  C10 UNL     1      26.185   5.221  49.049  1.00  0.00    -0.025 A 
HETATM   17  C11 UNL     1      24.881   5.566  49.169  1.00  0.00     0.012 A 
HETATM   18  C12 UNL     1      24.717   6.828  48.490  1.00  0.00     0.002 A 
HETATM   19  C13 UNL     1      25.780   7.435  47.888  1.00  0.00     0.012 A 
HETATM   20  C14 UNL     1      27.062   6.987  47.839  1.00  0.00    -0.025 A 
HETATM   21  C15 UNL     1      28.110   7.627  47.278  1.00  0.00     0.012 A 
HETATM   22  C19 UNL     1      27.302   5.717  48.505  1.00  0.00    -0.016 A 
HETATM   23  C16 UNL     1      29.419   7.239  47.240  1.00  0.00     0.001 A 
HETATM   24  C17 UNL     1      29.588   6.032  47.882  1.00  0.00     0.001 A 
HETATM   25  C18 UNL     1      28.606   5.248  48.512  1.00  0.00     0.013 A 
ENDBRANCH  15  16
ENDBRANCH  14  15
ENDBRANCH   9  14
TORSDOF 3
ENDMDL
MODEL 4
REMARK VINA RESULT:      -8.2      3.128      5.299
REMARK  3 active torsions:
REMARK  status: ('A' for Active; 'I' for Inactive)
REMARK    1  A    between atoms: C7_9  and  C8_10 
REMARK    2  A    between atoms: C8_10  and  C9_11 
REMARK    3  A    between atoms: C9_11  and  C10_12 
ROOT
HETATM    1  S1  UNL     1      25.909   7.858  49.613  1.00  0.00    -0.045 SA
HETATM    2  C1  UNL     1      25.533   6.393  50.149  1.00  0.00     0.170 C 
HETATM    3  N1  UNL     1      26.281   5.189  50.041  1.00  0.00    -0.346 N 
HETATM    4  C2  UNL     1      26.117   3.834  50.411  1.00  0.00     0.102 C 
HETATM    5  C3  UNL     1      25.488   3.693  49.221  1.00  0.00    -0.009 C 
HETATM    6  C4  UNL     1      24.253   3.383  49.372  1.00  0.00     0.014 C 
HETATM    7  C5  UNL     1      23.800   4.753  48.909  1.00  0.00     0.003 C 
HETATM    8  C6  UNL     1      22.855   5.505  49.637  1.00  0.00     0.033 C 
HETATM    9  C7  UNL     1      22.362   4.874  50.891  1.00  0.00     0.071 C 
HETATM   10  N2  UNL     1      23.619   4.877  51.418  1.00  0.00    -0.195 NA
HETATM   11  N3  UNL     1      24.728   5.364  50.786  1.00  0.00    -0.157 NA
HETATM   12  H1  UNL     1      27.161   5.491  49.541  1.00  0.00     0.167 HD
HETATM   13  H15 UNL     1      24.212   6.320  50.857  1.00  0.00     0.157 HD
ENDROOT
BRANCH   9  14
HETATM   14  C8  UNL     1      21.831   4.261  52.169  1.00  0.00     0.034 C 
BRANCH  14  15
HETATM   15  C9  UNL     1      22.126   2.935  52.349  1.00  0.00     0.014 C 
BRANCH  15  16
HETATM   16  C10 UNL     1      22.365   1.515  52.687  1.00  0.00    -0.025 A 
HETATM   17  C11 UNL     1      21.201   0.845  52.510  1.00  0.00     0.012 A 
HETATM   18  C12 UNL     1      21.434  -0.517  52.924  1.00  0.00     0.002 A 
HETATM   19  C13 UNL     1      22.659  -0.902  53.385  1.00  0.00     0.012 A 
HETATM   20  C14 UNL     1      23.769  -0.128  53.513  1.00  0.00    -0.025 A 
HETATM   21  C15 UNL     1      24.986  -0.540  53.928  1.00  0.00     0.012 A 
HETATM   22  C19 UNL     1      23.607   1.261  53.114  1.00  0.00    -0.016 A 
HETATM   23  C16 UNL     1      26.137   0.188  54.034  1.00  0.00     0.001 A 
HETATM   24  C17 UNL     1      25.926   1.492  53.645  1.00  0.00     0.001 A 
HETATM   25  C18 UNL     1      24.729   2.071  53.191  1.00  0.00     0.013 A 
ENDBRANCH  15  16
ENDBRANCH  14  15
ENDBRANCH   9  14
TORSDOF 3
ENDMDL
MODEL 5
REMARK VINA RESULT:      -8.2      4.087      7.063
REMARK  3 active torsions:
REMARK  status: ('A' for Active; 'I' for Inactive)
REMARK    1  A    between atoms: C7_9  and  C8_10 
REMARK    2  A    between atoms: C8_10  and  C9_11 
REMARK    3  A    between atoms: C9_11  and  C10_12 
ROOT
HETATM    1  S1  UNL     1      21.228   5.495  48.880  1.00  0.00    -0.045 SA
HETATM    2  C1  UNL     1      22.532   5.164  49.754  1.00  0.00     0.170 C 
HETATM    3  N1  UNL     1      23.774   5.855  49.793  1.00  0.00    -0.346 N 
HETATM    4  C2  UNL     1      25.017   5.711  50.454  1.00  0.00     0.102 C 
HETATM    5  C3  UNL     1      25.356   4.908  49.418  1.00  0.00    -0.009 C 
HETATM    6  C4  UNL     1      25.560   3.701  49.802  1.00  0.00     0.014 C 
HETATM    7  C5  UNL     1      24.286   3.221  49.135  1.00  0.00     0.003 C 
HETATM    8  C6  UNL     1      23.351   2.416  49.818  1.00  0.00     0.033 C 
HETATM    9  C7  UNL     1      23.690   2.099  51.231  1.00  0.00     0.071 C 
HETATM   10  N2  UNL     1      23.652   3.420  51.564  1.00  0.00    -0.195 NA
HETATM   11  N3  UNL     1      23.365   4.436  50.696  1.00  0.00    -0.157 NA
HETATM   12  H1  UNL     1      23.629   6.658  49.122  1.00  0.00     0.167 HD
HETATM   13  H15 UNL     1      22.387   3.962  50.640  1.00  0.00     0.157 HD
ENDROOT
BRANCH   9  14
HETATM   14  C8  UNL     1      24.003   1.748  52.670  1.00  0.00     0.034 C 
BRANCH  14  15
HETATM   15  C9  UNL     1      25.314   1.443  52.926  1.00  0.00     0.014 C 
BRANCH  15  16
HETATM   16  C10 UNL     1      26.751   1.272  53.234  1.00  0.00    -0.025 A 
HETATM   17  C11 UNL     1      27.251   2.488  53.558  1.00  0.00     0.012 A 
HETATM   18  C12 UNL     1      28.667   2.315  53.772  1.00  0.00     0.002 A 
HETATM   19  C13 UNL     1      29.244   1.086  53.636  1.00  0.00     0.012 A 
HETATM   20  C14 UNL     1      28.626  -0.080  53.308  1.00  0.00    -0.025 A 
HETATM   21  C15 UNL     1      29.209  -1.295  53.223  1.00  0.00     0.012 A 
HETATM   22  C19 UNL     1      27.195   0.020  53.076  1.00  0.00    -0.016 A 
HETATM   23  C16 UNL     1      28.624  -2.497  52.939  1.00  0.00     0.001 A 
HETATM   24  C17 UNL     1      27.272  -2.343  52.728  1.00  0.00     0.001 A 
HETATM   25  C18 UNL     1      26.523  -1.155  52.780  1.00  0.00     0.013 A 
ENDBRANCH  15  16
ENDBRANCH  14  15
ENDBRANCH   9  14
TORSDOF 3
ENDMDL
MODEL 6
REMARK VINA RESULT:      -8.1      4.383      7.033
REMARK  3 active torsions:
REMARK  status: ('A' for Active; 'I' for Inactive)
REMARK    1  A    between atoms: C7_9  and  C8_10 
REMARK    2  A    between atoms: C8_10  and  C9_11 
REMARK    3  A    between atoms: C9_11  and  C10_12 
ROOT
HETATM    1  S1  UNL     1      24.582  -0.962  54.752  1.00  0.00    -0.045 SA
HETATM    2  C1  UNL     1      25.795  -0.421  53.852  1.00  0.00     0.170 C 
HETATM    3  N1  UNL     1      27.191  -0.626  54.027  1.00  0.00    -0.346 N 
HETATM    4  C2  UNL     1      28.384  -0.226  53.380  1.00  0.00     0.102 C 
HETATM    5  C3  UNL     1      28.322   0.870  54.172  1.00  0.00    -0.009 C 
HETATM    6  C4  UNL     1      28.160   1.941  53.485  1.00  0.00     0.014 C 
HETATM    7  C5  UNL     1      26.732   2.097  53.971  1.00  0.00     0.003 C 
HETATM    8  C6  UNL     1      25.668   2.337  53.078  1.00  0.00     0.033 C 
HETATM    9  C7  UNL     1      26.041   2.399  51.639  1.00  0.00     0.071 C 
HETATM   10  N2  UNL     1      26.478   1.109  51.669  1.00  0.00    -0.195 NA
HETATM   11  N3  UNL     1      26.444   0.299  52.769  1.00  0.00    -0.157 NA
HETATM   12  H1  UNL     1      27.243  -1.243  54.883  1.00  0.00     0.167 HD
HETATM   13  H15 UNL     1      25.364   0.403  52.675  1.00  0.00     0.157 HD
ENDROOT
BRANCH   9  14
HETATM   14  C8  UNL     1      26.382   2.478  50.166  1.00  0.00     0.034 C 
BRANCH  14  15
HETATM   15  C9  UNL     1      26.654   3.736  49.695  1.00  0.00     0.014 C 
BRANCH  15  16
HETATM   16  C10 UNL     1      26.790   5.128  49.213  1.00  0.00    -0.025 A 
HETATM   17  C11 UNL     1      27.895   5.190  48.433  1.00  0.00     0.012 A 
HETATM   18  C12 UNL     1      28.056   6.570  48.044  1.00  0.00     0.002 A 
HETATM   19  C13 UNL     1      27.171   7.518  48.467  1.00  0.00     0.012 A 
HETATM   20  C14 UNL     1      26.080   7.329  49.256  1.00  0.00    -0.025 A 
HETATM   21  C15 UNL     1      25.190   8.275  49.625  1.00  0.00     0.012 A 
HETATM   22  C19 UNL     1      25.855   5.959  49.687  1.00  0.00    -0.016 A 
HETATM   23  C16 UNL     1      24.060   8.127  50.379  1.00  0.00     0.001 A 
HETATM   24  C17 UNL     1      23.898   6.813  50.760  1.00  0.00     0.001 A 
HETATM   25  C18 UNL     1      24.729   5.721  50.459  1.00  0.00     0.013 A 
ENDBRANCH  15  16
ENDBRANCH  14  15
ENDBRANCH   9  14
TORSDOF 3
ENDMDL
MODEL 7
REMARK VINA RESULT:      -8.0      3.563      5.961
REMARK  3 active torsions:
REMARK  status: ('A' for Active; 'I' for Inactive)
REMARK    1  A    between atoms: C7_9  and  C8_10 
REMARK    2  A    between atoms: C8_10  and  C9_11 
REMARK    3  A    between atoms: C9_11  and  C10_12 
ROOT
HETATM    1  S1  UNL     1      20.718   4.748  50.970  1.00  0.00    -0.045 SA
HETATM    2  C1  UNL     1      22.253   5.213  50.969  1.00  0.00     0.170 C 
HETATM    3  N1  UNL     1      22.783   6.526  51.103  1.00  0.00    -0.346 N 
HETATM    4  C2  UNL     1      24.063   7.129  51.101  1.00  0.00     0.102 C 
HETATM    5  C3  UNL     1      23.914   7.195  49.757  1.00  0.00    -0.009 C 
HETATM    6  C4  UNL     1      24.784   6.474  49.149  1.00  0.00     0.014 C 
HETATM    7  C5  UNL     1      23.732   5.463  48.737  1.00  0.00     0.003 C 
HETATM    8  C6  UNL     1      23.920   4.079  48.930  1.00  0.00     0.033 C 
HETATM    9  C7  UNL     1      25.198   3.691  49.583  1.00  0.00     0.071 C 
HETATM   10  N2  UNL     1      24.863   4.382  50.709  1.00  0.00    -0.195 NA
HETATM   11  N3  UNL     1      23.696   5.072  50.882  1.00  0.00    -0.157 NA
HETATM   12  H1  UNL     1      21.923   7.126  51.228  1.00  0.00     0.167 HD
HETATM   13  H15 UNL     1      23.233   4.090  50.807  1.00  0.00     0.157 HD
ENDROOT
BRANCH   9  14
HETATM   14  C8  UNL     1      26.492   3.256  50.239  1.00  0.00     0.034 C 
BRANCH  14  15
HETATM   15  C9  UNL     1      26.387   2.183  51.085  1.00  0.00     0.014 C 
BRANCH  15  16
HETATM   16  C10 UNL     1      26.199   1.127  52.104  1.00  0.00    -0.025 A 
HETATM   17  C11 UNL     1      27.425   0.728  52.517  1.00  0.00     0.012 A 
HETATM   18  C12 UNL     1      27.222  -0.357  53.445  1.00  0.00     0.002 A 
HETATM   19  C13 UNL     1      25.962  -0.784  53.748  1.00  0.00     0.012 A 
HETATM   20  C14 UNL     1      24.790  -0.292  53.266  1.00  0.00    -0.025 A 
HETATM   21  C15 UNL     1      23.550  -0.699  53.615  1.00  0.00     0.012 A 
HETATM   22  C19 UNL     1      24.919   0.806  52.322  1.00  0.00    -0.016 A 
HETATM   23  C16 UNL     1      22.347  -0.210  53.191  1.00  0.00     0.001 A 
HETATM   24  C17 UNL     1      22.529   0.825  52.301  1.00  0.00     0.001 A 
HETATM   25  C18 UNL     1      23.744   1.361  51.841  1.00  0.00     0.013 A 
ENDBRANCH  15  16
ENDBRANCH  14  15
ENDBRANCH   9  14
TORSDOF 3
ENDMDL
MODEL 8
REMARK VINA RESULT:      -7.9      3.686      6.031
REMARK  3 active torsions:
REMARK  status: ('A' for Active; 'I' for Inactive)
REMARK    1  A    between atoms: C7_9  and  C8_10 
REMARK    2  A    between atoms: C8_10  and  C9_11 
REMARK    3  A    between atoms: C9_11  and  C10_12 
ROOT
HETATM    1  S1  UNL     1      21.361   6.787  48.770  1.00  0.00    -0.045 SA
HETATM    2  C1  UNL     1      21.969   5.561  49.608  1.00  0.00     0.170 C 
HETATM    3  N1  UNL     1      21.371   4.827  50.669  1.00  0.00    -0.346 N 
HETATM    4  C2  UNL     1      21.740   3.764  51.526  1.00  0.00     0.102 C 
HETATM    5  C3  UNL     1      22.263   4.726  52.323  1.00  0.00    -0.009 C 
HETATM    6  C4  UNL     1      23.536   4.613  52.428  1.00  0.00     0.014 C 
HETATM    7  C5  UNL     1      23.766   5.853  51.586  1.00  0.00     0.003 C 
HETATM    8  C6  UNL     1      24.675   5.858  50.508  1.00  0.00     0.033 C 
HETATM    9  C7  UNL     1      25.362   4.566  50.244  1.00  0.00     0.071 C 
HETATM   10  N2  UNL     1      24.172   3.957  49.981  1.00  0.00    -0.195 NA
HETATM   11  N3  UNL     1      22.954   4.575  50.016  1.00  0.00    -0.157 NA
HETATM   12  H1  UNL     1      20.416   5.268  50.764  1.00  0.00     0.167 HD
HETATM   13  H15 UNL     1      23.351   5.157  49.186  1.00  0.00     0.157 HD
ENDROOT
BRANCH   9  14
HETATM   14  C8  UNL     1      26.089   3.272  49.948  1.00  0.00     0.034 C 
BRANCH  14  15
HETATM   15  C9  UNL     1      26.241   2.429  51.018  1.00  0.00     0.014 C 
BRANCH  15  16
HETATM   16  C10 UNL     1      26.370   1.647  52.268  1.00  0.00    -0.025 A 
HETATM   17  C11 UNL     1      27.643   1.783  52.710  1.00  0.00     0.012 A 
HETATM   18  C12 UNL     1      27.770   0.948  53.880  1.00  0.00     0.002 A 
HETATM   19  C13 UNL     1      26.709   0.219  54.331  1.00  0.00     0.012 A 
HETATM   20  C14 UNL     1      25.460   0.169  53.796  1.00  0.00    -0.025 A 
HETATM   21  C15 UNL     1      24.410  -0.524  54.286  1.00  0.00     0.012 A 
HETATM   22  C19 UNL     1      25.259   0.987  52.612  1.00  0.00    -0.016 A 
HETATM   23  C16 UNL     1      23.130  -0.572  53.809  1.00  0.00     0.001 A 
HETATM   24  C17 UNL     1      22.997   0.218  52.690  1.00  0.00     0.001 A 
HETATM   25  C18 UNL     1      23.986   0.995  52.063  1.00  0.00     0.013 A 
ENDBRANCH  15  16
ENDBRANCH  14  15
ENDBRANCH   9  14
TORSDOF 3
ENDMDL
MODEL 9
REMARK VINA RESULT:      -7.9      3.236      5.214
REMARK  3 active torsions:
REMARK  status: ('A' for Active; 'I' for Inactive)
REMARK    1  A    between atoms: C7_9  and  C8_10 
REMARK    2  A    between atoms: C8_10  and  C9_11 
REMARK    3  A    between atoms: C9_11  and  C10_12 
ROOT
HETATM    1  S1  UNL     1      23.203   6.939  48.987  1.00  0.00    -0.045 SA
HETATM    2  C1  UNL     1      22.766   5.837  50.069  1.00  0.00     0.170 C 
HETATM    3  N1  UNL     1      22.662   5.972  51.480  1.00  0.00    -0.346 N 
HETATM    4  C2  UNL     1      22.331   5.140  52.576  1.00  0.00     0.102 C 
HETATM    5  C3  UNL     1      23.642   4.803  52.582  1.00  0.00    -0.009 C 
HETATM    6  C4  UNL     1      23.812   3.561  52.311  1.00  0.00     0.014 C 
HETATM    7  C5  UNL     1      24.392   3.885  50.949  1.00  0.00     0.003 C 
HETATM    8  C6  UNL     1      23.943   3.239  49.780  1.00  0.00     0.033 C 
HETATM    9  C7  UNL     1      22.852   2.247  49.975  1.00  0.00     0.071 C 
HETATM   10  N2  UNL     1      22.018   3.217  50.445  1.00  0.00    -0.195 NA
HETATM   11  N3  UNL     1      22.347   4.537  50.564  1.00  0.00    -0.157 NA
HETATM   12  H1  UNL     1      22.921   6.982  51.650  1.00  0.00     0.167 HD
HETATM   13  H15 UNL     1      22.424   4.502  49.478  1.00  0.00     0.157 HD
ENDROOT
BRANCH   9  14
HETATM   14  C8  UNL     1      21.748   1.223  50.134  1.00  0.00     0.034 C 
BRANCH  14  15
HETATM   15  C9  UNL     1      21.798   0.483  51.286  1.00  0.00     0.014 C 
BRANCH  15  16
HETATM   16  C10 UNL     1      21.930  -0.189  52.598  1.00  0.00    -0.025 A 
HETATM   17  C11 UNL     1      20.692  -0.569  52.995  1.00  0.00     0.012 A 
HETATM   18  C12 UNL     1      20.833  -1.144  54.310  1.00  0.00     0.002 A 
HETATM   19  C13 UNL     1      22.057  -1.221  54.907  1.00  0.00     0.012 A 
HETATM   20  C14 UNL     1      23.247  -0.805  54.397  1.00  0.00    -0.025 A 
HETATM   21  C15 UNL     1      24.456  -0.932  54.986  1.00  0.00     0.012 A 
HETATM   22  C19 UNL     1      23.181  -0.212  53.071  1.00  0.00    -0.016 A 
HETATM   23  C16 UNL     1      25.679  -0.569  54.497  1.00  0.00     0.001 A 
HETATM   24  C17 UNL     1      25.557  -0.014  53.243  1.00  0.00     0.001 A 
HETATM   25  C18 UNL     1      24.380   0.186  52.501  1.00  0.00     0.013 A 
ENDBRANCH  15  16
ENDBRANCH  14  15
ENDBRANCH   9  14
TORSDOF 3
ENDMDL
