MODEL 1
REMARK VINA RESULT:      -9.5      0.000      0.000
REMARK  0 active torsions:
REMARK  status: ('A' for Active; 'I' for Inactive)
ROOT
HETATM    1  F1  UNL     1      20.228  -1.969  54.590  1.00  0.00    -0.204 F 
HETATM    2  C1  UNL     1      19.718  -1.145  53.658  1.00  0.00     0.148 A 
HETATM    3  C2  UNL     1      20.432  -0.074  53.285  1.00  0.00     0.030 A 
HETATM    4  C3  UNL     1      21.718  -0.035  54.036  1.00  0.00     0.211 C 
HETATM    5  O1  UNL     1      22.272  -1.269  54.235  1.00  0.00    -0.384 OA
HETATM    6  C4  UNL     1      23.457  -1.252  54.929  1.00  0.00     0.197 C 
HETATM    7  C5  UNL     1      24.483  -0.473  54.230  1.00  0.00     0.316 C 
HETATM    8  N1  UNL     1      25.376  -0.021  53.455  1.00  0.00    -0.430 NA
HETATM    9  C6  UNL     1      25.978   1.285  53.669  1.00  0.00     0.198 C 
HETATM   10  C7  UNL     1      26.179   1.982  52.449  1.00  0.00    -0.087 C 
HETATM   11  C8  UNL     1      26.355   2.565  51.462  1.00  0.00    -0.086 C 
HETATM   12  C9  UNL     1      26.592   3.266  50.258  1.00  0.00     0.209 C 
HETATM   13  N2  UNL     1      25.956   4.590  50.242  1.00  0.00    -0.403 N 
HETATM   14  C10 UNL     1      24.557   4.150  50.463  1.00  0.00     0.035 A 
HETATM   15  C11 UNL     1      24.201   4.416  51.852  1.00  0.00     0.116 A 
HETATM   16  C12 UNL     1      22.874   3.895  51.752  1.00  0.00    -0.010 A 
HETATM   17  C13 UNL     1      22.048   3.301  50.747  1.00  0.00    -0.042 A 
HETATM   18  C14 UNL     1      22.671   3.180  49.521  1.00  0.00     0.006 A 
HETATM   19  C15 UNL     1      23.966   3.585  49.257  1.00  0.00    -0.001 A 
HETATM   20  C16 UNL     1      20.704   2.919  51.195  1.00  0.00     0.187 C 
HETATM   21  N3  UNL     1      20.801   1.801  52.097  1.00  0.00    -0.289 NA
HETATM   22  C17 UNL     1      19.961   0.874  52.283  1.00  0.00     0.044 A 
HETATM   23  C18 UNL     1      18.645   0.641  51.656  1.00  0.00     0.088 A 
HETATM   24  C19 UNL     1      17.987  -0.581  52.179  1.00  0.00     0.006 A 
HETATM   25  C20 UNL     1      18.407  -1.448  53.089  1.00  0.00     0.070 A 
HETATM   26 CL1  UNL     1      17.446  -2.828  53.545  1.00  0.00    -0.081 Cl
HETATM   27  H10 UNL     1      26.251   5.592  50.126  1.00  0.00     0.154 HD
ENDROOT
TORSDOF 0
ENDMDL
MODEL 2
REMARK VINA RESULT:      -8.9      2.648      4.165
REMARK  0 active torsions:
REMARK  status: ('A' for Active; 'I' for Inactive)
ROOT
HETATM    1  F1  UNL     1      17.858   2.247  51.894  1.00  0.00    -0.204 F 
HETATM    2  C1  UNL     1      18.695   3.178  51.404  1.00  0.00     0.148 A 
HETATM    3  C2  UNL     1      19.980   3.154  51.786  1.00  0.00     0.030 A 
HETATM    4  C3  UNL     1      20.207   2.024  52.730  1.00  0.00     0.211 C 
HETATM    5  O1  UNL     1      19.501   0.896  52.412  1.00  0.00    -0.384 OA
HETATM    6  C4  UNL     1      19.697  -0.155  53.274  1.00  0.00     0.197 C 
HETATM    7  C5  UNL     1      21.102  -0.572  53.310  1.00  0.00     0.316 C 
HETATM    8  N1  UNL     1      22.258  -1.040  53.089  1.00  0.00    -0.430 NA
HETATM    9  C6  UNL     1      23.334  -0.890  54.054  1.00  0.00     0.198 C 
HETATM   10  C7  UNL     1      24.575  -0.609  53.424  1.00  0.00    -0.087 C 
HETATM   11  C8  UNL     1      25.598  -0.383  52.926  1.00  0.00    -0.086 C 
HETATM   12  C9  UNL     1      26.848  -0.131  52.319  1.00  0.00     0.209 C 
HETATM   13  N2  UNL     1      27.479   1.099  52.815  1.00  0.00    -0.403 N 
HETATM   14  C10 UNL     1      26.394   2.045  52.462  1.00  0.00     0.035 A 
HETATM   15  C11 UNL     1      25.659   2.384  53.676  1.00  0.00     0.116 A 
HETATM   16  C12 UNL     1      24.725   3.250  53.029  1.00  0.00    -0.010 A 
HETATM   17  C13 UNL     1      24.465   3.719  51.703  1.00  0.00    -0.042 A 
HETATM   18  C14 UNL     1      25.338   3.216  50.759  1.00  0.00     0.006 A 
HETATM   19  C15 UNL     1      26.374   2.344  51.036  1.00  0.00    -0.001 A 
HETATM   20  C16 UNL     1      23.323   4.631  51.581  1.00  0.00     0.187 C 
HETATM   21  N3  UNL     1      22.102   3.902  51.804  1.00  0.00    -0.289 NA
HETATM   22  C17 UNL     1      20.960   4.121  51.308  1.00  0.00     0.044 A 
HETATM   23  C18 UNL     1      20.516   5.167  50.366  1.00  0.00     0.088 A 
HETATM   24  C19 UNL     1      19.072   5.054  50.047  1.00  0.00     0.006 A 
HETATM   25  C20 UNL     1      18.174   4.179  50.477  1.00  0.00     0.070 A 
HETATM   26 CL1  UNL     1      16.513   4.247  49.954  1.00  0.00    -0.081 Cl
HETATM   27  H10 UNL     1      28.379   1.377  53.282  1.00  0.00     0.154 HD
ENDROOT
TORSDOF 0
ENDMDL
MODEL 3
REMARK VINA RESULT:      -8.9      3.026      5.979
REMARK  0 active torsions:
REMARK  status: ('A' for Active; 'I' for Inactive)
ROOT
HETATM    1  F1  UNL     1      25.770  -0.892  54.607  1.00  0.00    -0.204 F 
HETATM    2  C1  UNL     1      26.102   0.103  53.766  1.00  0.00     0.148 A 
HETATM    3  C2  UNL     1      25.190   0.532  52.883  1.00  0.00     0.030 A 
HETATM    4  C3  UNL     1      23.926  -0.241  53.044  1.00  0.00     0.211 C 
HETATM    5  O1  UNL     1      23.626  -0.532  54.346  1.00  0.00    -0.384 OA
HETATM    6  C4  UNL     1      22.465  -1.247  54.512  1.00  0.00     0.197 C 
HETATM    7  C5  UNL     1      21.302  -0.518  53.998  1.00  0.00     0.316 C 
HETATM    8  N1  UNL     1      20.332   0.267  53.783  1.00  0.00    -0.430 NA
HETATM    9  C6  UNL     1      19.488   0.128  52.609  1.00  0.00     0.198 C 
HETATM   10  C7  UNL     1      19.145   1.387  52.050  1.00  0.00    -0.087 C 
HETATM   11  C8  UNL     1      18.852   2.407  51.582  1.00  0.00    -0.086 C 
HETATM   12  C9  UNL     1      18.475   3.650  51.026  1.00  0.00     0.209 C 
HETATM   13  N2  UNL     1      18.839   3.767  49.608  1.00  0.00    -0.403 N 
HETATM   14  C10 UNL     1      20.298   3.545  49.749  1.00  0.00     0.035 A 
HETATM   15  C11 UNL     1      20.604   2.184  49.324  1.00  0.00     0.116 A 
HETATM   16  C12 UNL     1      22.007   2.276  49.582  1.00  0.00    -0.010 A 
HETATM   17  C13 UNL     1      22.926   3.255  50.072  1.00  0.00    -0.042 A 
HETATM   18  C14 UNL     1      22.331   4.458  50.396  1.00  0.00     0.006 A 
HETATM   19  C15 UNL     1      20.981   4.722  50.270  1.00  0.00    -0.001 A 
HETATM   20  C16 UNL     1      24.322   2.810  50.152  1.00  0.00     0.187 C 
HETATM   21  N3  UNL     1      24.452   1.834  51.203  1.00  0.00    -0.289 NA
HETATM   22  C17 UNL     1      25.459   1.604  51.933  1.00  0.00     0.044 A 
HETATM   23  C18 UNL     1      26.791   2.241  51.948  1.00  0.00     0.088 A 
HETATM   24  C19 UNL     1      27.679   1.651  52.979  1.00  0.00     0.006 A 
HETATM   25  C20 UNL     1      27.443   0.677  53.846  1.00  0.00     0.070 A 
HETATM   26 CL1  UNL     1      28.659   0.150  54.977  1.00  0.00    -0.081 Cl
HETATM   27  H10 UNL     1      18.353   3.943  48.693  1.00  0.00     0.154 HD
ENDROOT
TORSDOF 0
ENDMDL
MODEL 4
REMARK VINA RESULT:      -8.9      4.228      7.068
REMARK  0 active torsions:
REMARK  status: ('A' for Active; 'I' for Inactive)
ROOT
HETATM    1  F1  UNL     1      27.697   4.343  49.714  1.00  0.00    -0.204 F 
HETATM    2  C1  UNL     1      26.479   4.756  49.322  1.00  0.00     0.148 A 
HETATM    3  C2  UNL     1      25.421   3.973  49.574  1.00  0.00     0.030 A 
HETATM    4  C3  UNL     1      25.862   2.738  50.281  1.00  0.00     0.211 C 
HETATM    5  O1  UNL     1      26.863   2.955  51.187  1.00  0.00    -0.384 OA
HETATM    6  C4  UNL     1      27.283   1.825  51.846  1.00  0.00     0.197 C 
HETATM    7  C5  UNL     1      26.195   1.207  52.609  1.00  0.00     0.316 C 
HETATM    8  N1  UNL     1      25.294   0.889  53.440  1.00  0.00    -0.430 NA
HETATM    9  C6  UNL     1      24.481  -0.302  53.260  1.00  0.00     0.198 C 
HETATM   10  C7  UNL     1      23.124  -0.076  53.610  1.00  0.00    -0.087 C 
HETATM   11  C8  UNL     1      22.012   0.089  53.895  1.00  0.00    -0.086 C 
HETATM   12  C9  UNL     1      20.663   0.284  54.265  1.00  0.00     0.209 C 
HETATM   13  N2  UNL     1      19.728  -0.041  53.180  1.00  0.00    -0.403 N 
HETATM   14  C10 UNL     1      20.255   0.901  52.164  1.00  0.00     0.035 A 
HETATM   15  C11 UNL     1      21.045   0.147  51.197  1.00  0.00     0.116 A 
HETATM   16  C12 UNL     1      21.405   1.280  50.405  1.00  0.00    -0.010 A 
HETATM   17  C13 UNL     1      21.168   2.690  50.413  1.00  0.00    -0.042 A 
HETATM   18  C14 UNL     1      20.375   3.110  51.463  1.00  0.00     0.006 A 
HETATM   19  C15 UNL     1      19.847   2.275  52.429  1.00  0.00    -0.001 A 
HETATM   20  C16 UNL     1      21.809   3.434  49.323  1.00  0.00     0.187 C 
HETATM   21  N3  UNL     1      23.234   3.445  49.526  1.00  0.00    -0.289 NA
HETATM   22  C17 UNL     1      24.064   4.336  49.187  1.00  0.00     0.044 A 
HETATM   23  C18 UNL     1      23.850   5.621  48.490  1.00  0.00     0.088 A 
HETATM   24  C19 UNL     1      25.118   6.363  48.289  1.00  0.00     0.006 A 
HETATM   25  C20 UNL     1      26.355   6.040  48.637  1.00  0.00     0.070 A 
HETATM   26 CL1  UNL     1      27.702   7.089  48.289  1.00  0.00    -0.081 Cl
HETATM   27  H10 UNL     1      18.916  -0.689  53.022  1.00  0.00     0.154 HD
ENDROOT
TORSDOF 0
ENDMDL
MODEL 5
REMARK VINA RESULT:      -8.8      3.559      6.573
REMARK  0 active torsions:
REMARK  status: ('A' for Active; 'I' for Inactive)
ROOT
HETATM    1  F1  UNL     1      27.542   1.888  51.956  1.00  0.00    -0.204 F 
HETATM    2  C1  UNL     1      26.655   1.072  52.552  1.00  0.00     0.148 A 
HETATM    3  C2  UNL     1      25.356   1.399  52.519  1.00  0.00     0.030 A 
HETATM    4  C3  UNL     1      25.173   2.679  51.779  1.00  0.00     0.211 C 
HETATM    5  O1  UNL     1      26.003   2.809  50.699  1.00  0.00    -0.384 OA
HETATM    6  C4  UNL     1      25.850   3.985  50.007  1.00  0.00     0.197 C 
HETATM    7  C5  UNL     1      24.493   4.126  49.473  1.00  0.00     0.316 C 
HETATM    8  N1  UNL     1      23.405   4.055  48.829  1.00  0.00    -0.430 NA
HETATM    9  C6  UNL     1      22.255   4.869  49.188  1.00  0.00     0.198 C 
HETATM   10  C7  UNL     1      21.039   4.144  49.085  1.00  0.00    -0.087 C 
HETATM   11  C8  UNL     1      20.036   3.569  49.002  1.00  0.00    -0.086 C 
HETATM   12  C9  UNL     1      18.811   2.875  48.879  1.00  0.00     0.209 C 
HETATM   13  N2  UNL     1      18.034   2.877  50.125  1.00  0.00    -0.403 N 
HETATM   14  C10 UNL     1      19.045   2.240  51.002  1.00  0.00     0.035 A 
HETATM   15  C11 UNL     1      19.660   3.272  51.829  1.00  0.00     0.116 A 
HETATM   16  C12 UNL     1      20.549   2.385  52.510  1.00  0.00    -0.010 A 
HETATM   17  C13 UNL     1      20.853   0.988  52.506  1.00  0.00    -0.042 A 
HETATM   18  C14 UNL     1      20.098   0.262  51.606  1.00  0.00     0.006 A 
HETATM   19  C15 UNL     1      19.134   0.803  50.777  1.00  0.00    -0.001 A 
HETATM   20  C16 UNL     1      21.909   0.579  53.439  1.00  0.00     0.187 C 
HETATM   21  N3  UNL     1      23.175   1.086  52.979  1.00  0.00    -0.289 NA
HETATM   22  C17 UNL     1      24.323   0.577  53.137  1.00  0.00     0.044 A 
HETATM   23  C18 UNL     1      24.728  -0.665  53.824  1.00  0.00     0.088 A 
HETATM   24  C19 UNL     1      26.195  -0.879  53.770  1.00  0.00     0.006 A 
HETATM   25  C20 UNL     1      27.140  -0.137  53.212  1.00  0.00     0.070 A 
HETATM   26 CL1  UNL     1      28.819  -0.600  53.278  1.00  0.00    -0.081 Cl
HETATM   27  H10 UNL     1      17.082   3.187  50.447  1.00  0.00     0.154 HD
ENDROOT
TORSDOF 0
ENDMDL
MODEL 6
REMARK VINA RESULT:      -8.4      3.189      5.927
REMARK  0 active torsions:
REMARK  status: ('A' for Active; 'I' for Inactive)
ROOT
HETATM    1  F1  UNL     1      24.288  -0.011  54.061  1.00  0.00    -0.204 F 
HETATM    2  C1  UNL     1      25.077   0.743  53.275  1.00  0.00     0.148 A 
HETATM    3  C2  UNL     1      24.520   1.409  52.254  1.00  0.00     0.030 A 
HETATM    4  C3  UNL     1      23.054   1.149  52.217  1.00  0.00     0.211 C 
HETATM    5  O1  UNL     1      22.482   1.069  53.457  1.00  0.00    -0.384 OA
HETATM    6  C4  UNL     1      21.130   0.827  53.441  1.00  0.00     0.197 C 
HETATM    7  C5  UNL     1      20.398   1.886  52.742  1.00  0.00     0.316 C 
HETATM    8  N1  UNL     1      19.820   2.950  52.368  1.00  0.00    -0.430 NA
HETATM    9  C6  UNL     1      19.164   3.043  51.075  1.00  0.00     0.198 C 
HETATM   10  C7  UNL     1      19.386   4.302  50.458  1.00  0.00    -0.087 C 
HETATM   11  C8  UNL     1      19.553   5.326  49.940  1.00  0.00    -0.086 C 
HETATM   12  C9  UNL     1      19.736   6.582  49.320  1.00  0.00     0.209 C 
HETATM   13  N2  UNL     1      20.321   6.469  47.977  1.00  0.00    -0.403 N 
HETATM   14  C10 UNL     1      21.563   5.752  48.352  1.00  0.00     0.035 A 
HETATM   15  C11 UNL     1      21.415   4.346  47.993  1.00  0.00     0.116 A 
HETATM   16  C12 UNL     1      22.702   3.950  48.471  1.00  0.00    -0.010 A 
HETATM   17  C13 UNL     1      23.832   4.568  49.094  1.00  0.00    -0.042 A 
HETATM   18  C14 UNL     1      23.671   5.922  49.308  1.00  0.00     0.006 A 
HETATM   19  C15 UNL     1      22.542   6.641  48.966  1.00  0.00    -0.001 A 
HETATM   20  C16 UNL     1      24.944   3.662  49.400  1.00  0.00     0.187 C 
HETATM   21  N3  UNL     1      24.558   2.775  50.466  1.00  0.00    -0.289 NA
HETATM   22  C17 UNL     1      25.295   2.250  51.350  1.00  0.00     0.044 A 
HETATM   23  C18 UNL     1      26.749   2.370  51.572  1.00  0.00     0.088 A 
HETATM   24  C19 UNL     1      27.203   1.573  52.737  1.00  0.00     0.006 A 
HETATM   25  C20 UNL     1      26.507   0.806  53.563  1.00  0.00     0.070 A 
HETATM   26 CL1  UNL     1      27.271  -0.044  54.879  1.00  0.00    -0.081 Cl
HETATM   27  H10 UNL     1      20.070   6.746  46.995  1.00  0.00     0.154 HD
ENDROOT
TORSDOF 0
ENDMDL
MODEL 7
REMARK VINA RESULT:      -8.2      2.726      3.947
REMARK  0 active torsions:
REMARK  status: ('A' for Active; 'I' for Inactive)
ROOT
HETATM    1  F1  UNL     1      24.246  -0.310  53.348  1.00  0.00    -0.204 F 
HETATM    2  C1  UNL     1      23.026   0.250  53.258  1.00  0.00     0.148 A 
HETATM    3  C2  UNL     1      22.927   1.507  52.803  1.00  0.00     0.030 A 
HETATM    4  C3  UNL     1      24.281   2.037  52.476  1.00  0.00     0.211 C 
HETATM    5  O1  UNL     1      25.112   1.105  51.919  1.00  0.00    -0.384 OA
HETATM    6  C4  UNL     1      26.365   1.576  51.614  1.00  0.00     0.197 C 
HETATM    7  C5  UNL     1      26.310   2.676  50.647  1.00  0.00     0.316 C 
HETATM    8  N1  UNL     1      26.204   3.423  49.630  1.00  0.00    -0.430 NA
HETATM    9  C6  UNL     1      26.391   4.861  49.721  1.00  0.00     0.198 C 
HETATM   10  C7  UNL     1      25.455   5.569  48.922  1.00  0.00    -0.087 C 
HETATM   11  C8  UNL     1      24.702   6.164  48.272  1.00  0.00    -0.086 C 
HETATM   12  C9  UNL     1      23.799   6.888  47.461  1.00  0.00     0.209 C 
HETATM   13  N2  UNL     1      23.022   7.874  48.223  1.00  0.00    -0.403 N 
HETATM   14  C10 UNL     1      22.403   6.943  49.197  1.00  0.00     0.035 A 
HETATM   15  C11 UNL     1      23.101   7.071  50.471  1.00  0.00     0.116 A 
HETATM   16  C12 UNL     1      22.320   6.087  51.151  1.00  0.00    -0.010 A 
HETATM   17  C13 UNL     1      21.229   5.213  50.848  1.00  0.00    -0.042 A 
HETATM   18  C14 UNL     1      20.780   5.322  49.547  1.00  0.00     0.006 A 
HETATM   19  C15 UNL     1      21.310   6.182  48.605  1.00  0.00    -0.001 A 
HETATM   20  C16 UNL     1      20.793   4.358  51.957  1.00  0.00     0.187 C 
HETATM   21  N3  UNL     1      21.804   3.369  52.225  1.00  0.00    -0.289 NA
HETATM   22  C17 UNL     1      21.650   2.196  52.671  1.00  0.00     0.044 A 
HETATM   23  C18 UNL     1      20.418   1.477  53.054  1.00  0.00     0.088 A 
HETATM   24  C19 UNL     1      20.702   0.103  53.535  1.00  0.00     0.006 A 
HETATM   25  C20 UNL     1      21.859  -0.531  53.659  1.00  0.00     0.070 A 
HETATM   26 CL1  UNL     1      21.944  -2.166  54.255  1.00  0.00    -0.081 Cl
HETATM   27  H10 UNL     1      22.857   8.912  48.210  1.00  0.00     0.154 HD
ENDROOT
TORSDOF 0
ENDMDL
MODEL 8
REMARK VINA RESULT:      -8.0      3.273      5.734
REMARK  0 active torsions:
REMARK  status: ('A' for Active; 'I' for Inactive)
ROOT
HETATM    1  F1  UNL     1      19.149   3.592  48.918  1.00  0.00    -0.204 F 
HETATM    2  C1  UNL     1      20.389   4.042  48.658  1.00  0.00     0.148 A 
HETATM    3  C2  UNL     1      21.363   3.797  49.546  1.00  0.00     0.030 A 
HETATM    4  C3  UNL     1      20.816   3.028  50.700  1.00  0.00     0.211 C 
HETATM    5  O1  UNL     1      19.881   2.097  50.341  1.00  0.00    -0.384 OA
HETATM    6  C4  UNL     1      19.364   1.380  51.392  1.00  0.00     0.197 C 
HETATM    7  C5  UNL     1      20.406   0.633  52.103  1.00  0.00     0.316 C 
HETATM    8  N1  UNL     1      21.297  -0.178  52.491  1.00  0.00    -0.430 NA
HETATM    9  C6  UNL     1      21.966  -0.016  53.771  1.00  0.00     0.198 C 
HETATM   10  C7  UNL     1      23.352  -0.309  53.687  1.00  0.00    -0.087 C 
HETATM   11  C8  UNL     1      24.485  -0.549  53.638  1.00  0.00    -0.086 C 
HETATM   12  C9  UNL     1      25.862  -0.864  53.583  1.00  0.00     0.209 C 
HETATM   13  N2  UNL     1      26.712   0.240  54.047  1.00  0.00    -0.403 N 
HETATM   14  C10 UNL     1      26.253   1.273  53.088  1.00  0.00     0.035 A 
HETATM   15  C11 UNL     1      25.347   2.182  53.782  1.00  0.00     0.116 A 
HETATM   16  C12 UNL     1      25.085   3.004  52.643  1.00  0.00    -0.010 A 
HETATM   17  C13 UNL     1      25.477   3.058  51.269  1.00  0.00    -0.042 A 
HETATM   18  C14 UNL     1      26.351   2.053  50.905  1.00  0.00     0.006 A 
HETATM   19  C15 UNL     1      26.821   1.075  51.760  1.00  0.00    -0.001 A 
HETATM   20  C16 UNL     1      24.880   4.152  50.496  1.00  0.00     0.187 C 
HETATM   21  N3  UNL     1      23.474   3.900  50.318  1.00  0.00    -0.289 NA
HETATM   22  C17 UNL     1      22.736   4.245  49.351  1.00  0.00     0.044 A 
HETATM   23  C18 UNL     1      23.063   4.997  48.123  1.00  0.00     0.088 A 
HETATM   24  C19 UNL     1      21.878   5.183  47.250  1.00  0.00     0.006 A 
HETATM   25  C20 UNL     1      20.628   4.780  47.421  1.00  0.00     0.070 A 
HETATM   26 CL1  UNL     1      19.392   5.120  46.240  1.00  0.00    -0.081 Cl
HETATM   27  H10 UNL     1      27.440   0.401  54.788  1.00  0.00     0.154 HD
ENDROOT
TORSDOF 0
ENDMDL
MODEL 9
REMARK VINA RESULT:      -8.0      3.292      5.966
REMARK  0 active torsions:
REMARK  status: ('A' for Active; 'I' for Inactive)
ROOT
HETATM    1  F1  UNL     1      22.951   0.291  53.098  1.00  0.00    -0.204 F 
HETATM    2  C1  UNL     1      24.127   0.860  52.779  1.00  0.00     0.148 A 
HETATM    3  C2  UNL     1      24.139   1.849  51.874  1.00  0.00     0.030 A 
HETATM    4  C3  UNL     1      22.754   2.113  51.392  1.00  0.00     0.211 C 
HETATM    5  O1  UNL     1      21.806   2.010  52.373  1.00  0.00    -0.384 OA
HETATM    6  C4  UNL     1      20.523   2.248  51.945  1.00  0.00     0.197 C 
HETATM    7  C5  UNL     1      20.375   3.601  51.401  1.00  0.00     0.316 C 
HETATM    8  N1  UNL     1      20.261   4.846  51.199  1.00  0.00    -0.430 NA
HETATM    9  C6  UNL     1      20.119   5.388  49.858  1.00  0.00     0.198 C 
HETATM   10  C7  UNL     1      20.861   6.586  49.689  1.00  0.00    -0.087 C 
HETATM   11  C8  UNL     1      21.458   7.568  49.533  1.00  0.00    -0.086 C 
HETATM   12  C9  UNL     1      22.166   8.777  49.351  1.00  0.00     0.209 C 
HETATM   13  N2  UNL     1      23.107   8.715  48.226  1.00  0.00    -0.403 N 
HETATM   14  C10 UNL     1      23.915   7.564  48.694  1.00  0.00     0.035 A 
HETATM   15  C11 UNL     1      23.523   6.381  47.937  1.00  0.00     0.116 A 
HETATM   16  C12 UNL     1      24.423   5.493  48.601  1.00  0.00    -0.010 A 
HETATM   17  C13 UNL     1      25.406   5.567  49.637  1.00  0.00    -0.042 A 
HETATM   18  C14 UNL     1      25.554   6.834  50.166  1.00  0.00     0.006 A 
HETATM   19  C15 UNL     1      24.838   7.942  49.758  1.00  0.00    -0.001 A 
HETATM   20  C16 UNL     1      26.068   4.298  49.956  1.00  0.00     0.187 C 
HETATM   21  N3  UNL     1      25.129   3.418  50.602  1.00  0.00    -0.289 NA
HETATM   22  C17 UNL     1      25.364   2.525  51.465  1.00  0.00     0.044 A 
HETATM   23  C18 UNL     1      26.639   2.102  52.077  1.00  0.00     0.088 A 
HETATM   24  C19 UNL     1      26.452   1.002  53.053  1.00  0.00     0.006 A 
HETATM   25  C20 UNL     1      25.343   0.381  53.430  1.00  0.00     0.070 A 
HETATM   26 CL1  UNL     1      25.372  -0.899  54.611  1.00  0.00    -0.081 Cl
HETATM   27  H10 UNL     1      23.279   9.233  47.327  1.00  0.00     0.154 HD
ENDROOT
TORSDOF 0
ENDMDL
