MODEL 1
REMARK VINA RESULT:      -8.7      0.000      0.000
REMARK  5 active torsions:
REMARK  status: ('A' for Active; 'I' for Inactive)
REMARK    1  A    between atoms: C2_2  and  C3_3 
REMARK       I    between atoms: C3_3  and  N1_5 
REMARK    2  A    between atoms: C5_7  and  C6_8 
REMARK    3  A    between atoms: C6_8  and  O2_9 
REMARK    4  A    between atoms: O2_9  and  C7_10 
REMARK    5  A    between atoms: C17_25  and  C18_26 
ROOT
HETATM    1  C7  UNL     1      23.426   3.710  52.078  1.00  0.00     0.171 C 
HETATM    2  N2  UNL     1      24.443   4.188  51.342  1.00  0.00    -0.238 NA
HETATM    3  C8  UNL     1      24.352   5.323  50.451  1.00  0.00     0.230 C 
HETATM    4  C9  UNL     1      23.952   6.569  51.221  1.00  0.00     0.170 C 
HETATM    5  N3  UNL     1      22.501   6.614  51.493  1.00  0.00    -0.371 N 
HETATM    6  C10 UNL     1      21.786   5.371  51.217  1.00  0.00     0.133 C 
HETATM    7  C11 UNL     1      22.009   4.183  51.869  1.00  0.00     0.036 C 
HETATM    8  C12 UNL     1      20.734   3.534  52.168  1.00  0.00     0.057 C 
HETATM    9  N4  UNL     1      20.754   4.957  50.208  1.00  0.00    -0.243 NA
HETATM   10  C13 UNL     1      21.125   4.916  48.865  1.00  0.00     0.138 C 
HETATM   11  C14 UNL     1      22.541   4.831  48.212  1.00  0.00     0.227 A 
HETATM   12  N5  UNL     1      22.567   5.745  47.162  1.00  0.00    -0.372 N 
HETATM   13  C15 UNL     1      23.493   6.772  47.447  1.00  0.00     0.102 A 
HETATM   14  C16 UNL     1      24.022   6.498  48.603  1.00  0.00     0.107 A 
HETATM   15  N6  UNL     1      23.541   5.274  49.255  1.00  0.00    -0.339 N 
HETATM   16  H12 UNL     1      22.334   7.606  51.850  1.00  0.00     0.161 HD
HETATM   17  H18 UNL     1      21.912   5.503  46.386  1.00  0.00     0.161 HD
ENDROOT
BRANCH   1  18
HETATM   18  O2  UNL     1      23.456   2.762  53.082  1.00  0.00    -0.334 OA
BRANCH  18  19
HETATM   19  C6  UNL     1      24.809   2.424  53.455  1.00  0.00     0.185 C 
BRANCH  19  20
HETATM   20  C5  UNL     1      25.128   1.108  52.825  1.00  0.00     0.053 C 
HETATM   21  C4  UNL     1      23.957   0.195  52.681  1.00  0.00     0.148 C 
HETATM   22  N1  UNL     1      23.751  -0.499  53.916  1.00  0.00    -0.287 N 
HETATM   23  C3  UNL     1      22.635  -1.043  54.601  1.00  0.00     0.252 C 
HETATM   24  S1  UNL     1      25.369  -0.642  54.665  1.00  0.00    -0.036 SA
HETATM   25  O1  UNL     1      22.622  -1.635  55.708  1.00  0.00    -0.268 OA
HETATM   26  C17 UNL     1      26.264   0.385  53.462  1.00  0.00     0.184 C 
BRANCH  23  27
HETATM   27  C2  UNL     1      21.317  -0.930  53.994  1.00  0.00     0.065 C 
HETATM   28  C1  UNL     1      20.461   0.064  53.967  1.00  0.00     0.017 C 
ENDBRANCH  23  27
BRANCH  26  29
HETATM   29  C18 UNL     1      26.980  -0.544  52.500  1.00  0.00     0.402 C 
HETATM   30  F1  UNL     1      28.340  -0.513  52.743  1.00  0.00    -0.170 F 
HETATM   31  F2  UNL     1      26.793  -0.094  51.207  1.00  0.00    -0.170 F 
HETATM   32  F3  UNL     1      26.585  -1.852  52.634  1.00  0.00    -0.170 F 
ENDBRANCH  26  29
ENDBRANCH  19  20
ENDBRANCH  18  19
ENDBRANCH   1  18
TORSDOF 5
ENDMDL
MODEL 2
REMARK VINA RESULT:      -8.5      1.991      3.298
REMARK  5 active torsions:
REMARK  status: ('A' for Active; 'I' for Inactive)
REMARK    1  A    between atoms: C2_2  and  C3_3 
REMARK       I    between atoms: C3_3  and  N1_5 
REMARK    2  A    between atoms: C5_7  and  C6_8 
REMARK    3  A    between atoms: C6_8  and  O2_9 
REMARK    4  A    between atoms: O2_9  and  C7_10 
REMARK    5  A    between atoms: C17_25  and  C18_26 
ROOT
HETATM    1  C7  UNL     1      25.870   3.277  50.905  1.00  0.00     0.171 C 
HETATM    2  N2  UNL     1      24.774   3.346  51.679  1.00  0.00    -0.238 NA
HETATM    3  C8  UNL     1      23.550   4.024  51.315  1.00  0.00     0.230 C 
HETATM    4  C9  UNL     1      22.964   3.417  50.052  1.00  0.00     0.170 C 
HETATM    5  N3  UNL     1      23.645   3.902  48.833  1.00  0.00    -0.371 N 
HETATM    6  C10 UNL     1      24.881   4.641  49.074  1.00  0.00     0.133 C 
HETATM    7  C11 UNL     1      26.007   4.108  49.654  1.00  0.00     0.036 C 
HETATM    8  C12 UNL     1      27.197   4.562  48.938  1.00  0.00     0.057 C 
HETATM    9  N4  UNL     1      25.302   6.071  48.889  1.00  0.00    -0.243 NA
HETATM   10  C13 UNL     1      24.694   7.043  49.680  1.00  0.00     0.138 C 
HETATM   11  C14 UNL     1      23.925   6.908  51.032  1.00  0.00     0.227 A 
HETATM   12  N5  UNL     1      22.777   7.690  50.935  1.00  0.00    -0.372 N 
HETATM   13  C15 UNL     1      21.633   6.865  50.968  1.00  0.00     0.102 A 
HETATM   14  C16 UNL     1      22.051   5.640  51.096  1.00  0.00     0.107 A 
HETATM   15  N6  UNL     1      23.506   5.462  51.165  1.00  0.00    -0.339 N 
HETATM   16  H12 UNL     1      23.022   3.563  48.035  1.00  0.00     0.161 HD
HETATM   17  H18 UNL     1      22.978   8.711  50.855  1.00  0.00     0.161 HD
ENDROOT
BRANCH   1  18
HETATM   18  O2  UNL     1      27.005   2.509  51.081  1.00  0.00    -0.334 OA
BRANCH  18  19
HETATM   19  C6  UNL     1      27.211   2.172  52.469  1.00  0.00     0.185 C 
BRANCH  19  20
HETATM   20  C5  UNL     1      27.563   0.722  52.528  1.00  0.00     0.053 C 
HETATM   21  C4  UNL     1      26.401  -0.199  52.370  1.00  0.00     0.148 C 
HETATM   22  N1  UNL     1      25.753  -0.353  53.638  1.00  0.00    -0.287 N 
HETATM   23  C3  UNL     1      24.429  -0.608  54.077  1.00  0.00     0.252 C 
HETATM   24  S1  UNL     1      27.039  -0.153  54.865  1.00  0.00    -0.036 SA
HETATM   25  O1  UNL     1      24.014  -0.715  55.256  1.00  0.00    -0.268 OA
HETATM   26  C17 UNL     1      28.364   0.336  53.722  1.00  0.00     0.184 C 
BRANCH  23  27
HETATM   27  C2  UNL     1      23.380  -0.774  53.081  1.00  0.00     0.065 C 
HETATM   28  C1  UNL     1      22.076  -0.857  53.206  1.00  0.00     0.017 C 
ENDBRANCH  23  27
BRANCH  26  29
HETATM   29  C18 UNL     1      29.235  -0.881  53.473  1.00  0.00     0.402 C 
HETATM   30  F1  UNL     1      29.871  -1.249  54.644  1.00  0.00    -0.170 F 
HETATM   31  F2  UNL     1      30.223  -0.557  52.564  1.00  0.00    -0.170 F 
HETATM   32  F3  UNL     1      28.514  -1.973  53.057  1.00  0.00    -0.170 F 
ENDBRANCH  26  29
ENDBRANCH  19  20
ENDBRANCH  18  19
ENDBRANCH   1  18
TORSDOF 5
ENDMDL
MODEL 3
REMARK VINA RESULT:      -8.3      1.312      2.552
REMARK  5 active torsions:
REMARK  status: ('A' for Active; 'I' for Inactive)
REMARK    1  A    between atoms: C2_2  and  C3_3 
REMARK       I    between atoms: C3_3  and  N1_5 
REMARK    2  A    between atoms: C5_7  and  C6_8 
REMARK    3  A    between atoms: C6_8  and  O2_9 
REMARK    4  A    between atoms: O2_9  and  C7_10 
REMARK    5  A    between atoms: C17_25  and  C18_26 
ROOT
HETATM    1  C7  UNL     1      23.557   3.660  51.796  1.00  0.00     0.171 C 
HETATM    2  N2  UNL     1      22.383   4.049  52.321  1.00  0.00    -0.238 NA
HETATM    3  C8  UNL     1      21.122   4.045  51.613  1.00  0.00     0.230 C 
HETATM    4  C9  UNL     1      20.774   2.638  51.160  1.00  0.00     0.170 C 
HETATM    5  N3  UNL     1      21.509   2.249  49.938  1.00  0.00    -0.371 N 
HETATM    6  C10 UNL     1      22.592   3.152  49.560  1.00  0.00     0.133 C 
HETATM    7  C11 UNL     1      23.711   3.389  50.320  1.00  0.00     0.036 C 
HETATM    8  C12 UNL     1      24.895   3.420  49.465  1.00  0.00     0.057 C 
HETATM    9  N4  UNL     1      22.821   4.092  48.410  1.00  0.00    -0.243 NA
HETATM   10  C13 UNL     1      21.995   5.209  48.299  1.00  0.00     0.138 C 
HETATM   11  C14 UNL     1      21.108   5.918  49.370  1.00  0.00     0.227 A 
HETATM   12  N5  UNL     1      19.877   6.186  48.776  1.00  0.00    -0.372 N 
HETATM   13  C15 UNL     1      18.867   5.430  49.409  1.00  0.00     0.102 A 
HETATM   14  C16 UNL     1      19.440   4.744  50.353  1.00  0.00     0.107 A 
HETATM   15  N6  UNL     1      20.889   4.931  50.494  1.00  0.00    -0.339 N 
HETATM   16  H12 UNL     1      21.034   1.345  49.626  1.00  0.00     0.161 HD
HETATM   17  H18 UNL     1      19.937   6.876  47.995  1.00  0.00     0.161 HD
ENDROOT
BRANCH   1  18
HETATM   18  O2  UNL     1      24.763   3.453  52.436  1.00  0.00    -0.334 OA
BRANCH  18  19
HETATM   19  C6  UNL     1      24.661   2.432  53.450  1.00  0.00     0.185 C 
BRANCH  19  20
HETATM   20  C5  UNL     1      25.009   1.130  52.808  1.00  0.00     0.053 C 
HETATM   21  C4  UNL     1      23.861   0.187  52.669  1.00  0.00     0.148 C 
HETATM   22  N1  UNL     1      23.688  -0.521  53.901  1.00  0.00    -0.287 N 
HETATM   23  C3  UNL     1      22.594  -1.101  54.594  1.00  0.00     0.252 C 
HETATM   24  S1  UNL     1      25.317  -0.627  54.632  1.00  0.00    -0.036 SA
HETATM   25  O1  UNL     1      22.609  -1.700  55.696  1.00  0.00    -0.268 OA
HETATM   26  C17 UNL     1      26.170   0.434  53.427  1.00  0.00     0.184 C 
BRANCH  23  27
HETATM   27  C2  UNL     1      21.267  -1.019  54.001  1.00  0.00     0.065 C 
HETATM   28  C1  UNL     1      20.395  -0.039  53.967  1.00  0.00     0.017 C 
ENDBRANCH  23  27
BRANCH  26  29
HETATM   29  C18 UNL     1      26.901  -0.468  52.451  1.00  0.00     0.402 C 
HETATM   30  F1  UNL     1      28.238  -0.545  52.793  1.00  0.00    -0.170 F 
HETATM   31  F2  UNL     1      26.841   0.085  51.187  1.00  0.00    -0.170 F 
HETATM   32  F3  UNL     1      26.420  -1.754  52.455  1.00  0.00    -0.170 F 
ENDBRANCH  26  29
ENDBRANCH  19  20
ENDBRANCH  18  19
ENDBRANCH   1  18
TORSDOF 5
ENDMDL
MODEL 4
REMARK VINA RESULT:      -8.2      1.329      2.485
REMARK  5 active torsions:
REMARK  status: ('A' for Active; 'I' for Inactive)
REMARK    1  A    between atoms: C2_2  and  C3_3 
REMARK       I    between atoms: C3_3  and  N1_5 
REMARK    2  A    between atoms: C5_7  and  C6_8 
REMARK    3  A    between atoms: C6_8  and  O2_9 
REMARK    4  A    between atoms: O2_9  and  C7_10 
REMARK    5  A    between atoms: C17_25  and  C18_26 
ROOT
HETATM    1  C7  UNL     1      24.043   4.202  51.739  1.00  0.00     0.171 C 
HETATM    2  N2  UNL     1      23.031   4.915  52.260  1.00  0.00    -0.238 NA
HETATM    3  C8  UNL     1      22.056   5.648  51.484  1.00  0.00     0.230 C 
HETATM    4  C9  UNL     1      21.294   4.708  50.566  1.00  0.00     0.170 C 
HETATM    5  N3  UNL     1      22.066   4.368  49.352  1.00  0.00    -0.371 N 
HETATM    6  C10 UNL     1      23.470   4.770  49.386  1.00  0.00     0.133 C 
HETATM    7  C11 UNL     1      24.398   4.285  50.275  1.00  0.00     0.036 C 
HETATM    8  C12 UNL     1      25.656   4.016  49.583  1.00  0.00     0.057 C 
HETATM    9  N4  UNL     1      24.291   5.777  48.633  1.00  0.00    -0.243 NA
HETATM   10  C13 UNL     1      24.012   7.128  48.824  1.00  0.00     0.138 C 
HETATM   11  C14 UNL     1      23.261   7.849  49.988  1.00  0.00     0.227 A 
HETATM   12  N5  UNL     1      22.394   8.774  49.411  1.00  0.00    -0.372 N 
HETATM   13  C15 UNL     1      21.058   8.401  49.671  1.00  0.00     0.102 A 
HETATM   14  C16 UNL     1      21.098   7.314  50.384  1.00  0.00     0.107 A 
HETATM   15  N6  UNL     1      22.436   6.804  50.702  1.00  0.00    -0.339 N 
HETATM   16  H12 UNL     1      21.357   3.880  48.721  1.00  0.00     0.161 HD
HETATM   17  H18 UNL     1      22.887   9.544  48.908  1.00  0.00     0.161 HD
ENDROOT
BRANCH   1  18
HETATM   18  O2  UNL     1      24.903   3.329  52.377  1.00  0.00    -0.334 OA
BRANCH  18  19
HETATM   19  C6  UNL     1      24.186   2.297  53.086  1.00  0.00     0.185 C 
BRANCH  19  20
HETATM   20  C5  UNL     1      24.705   0.982  52.604  1.00  0.00     0.053 C 
HETATM   21  C4  UNL     1      23.690  -0.110  52.586  1.00  0.00     0.148 C 
HETATM   22  N1  UNL     1      23.595  -0.681  53.895  1.00  0.00    -0.287 N 
HETATM   23  C3  UNL     1      22.577  -1.309  54.658  1.00  0.00     0.252 C 
HETATM   24  S1  UNL     1      25.216  -0.487  54.626  1.00  0.00    -0.036 SA
HETATM   25  O1  UNL     1      22.657  -1.764  55.825  1.00  0.00    -0.268 OA
HETATM   26  C17 UNL     1      25.940   0.522  53.298  1.00  0.00     0.184 C 
BRANCH  23  27
HETATM   27  C2  UNL     1      21.257  -1.471  54.067  1.00  0.00     0.065 C 
HETATM   28  C1  UNL     1      20.302  -0.602  53.836  1.00  0.00     0.017 C 
ENDBRANCH  23  27
BRANCH  26  29
HETATM   29  C18 UNL     1      26.790  -0.390  52.434  1.00  0.00     0.402 C 
HETATM   30  F1  UNL     1      26.358  -1.697  52.563  1.00  0.00    -0.170 F 
HETATM   31  F2  UNL     1      28.097  -0.353  52.881  1.00  0.00    -0.170 F 
HETATM   32  F3  UNL     1      26.712  -0.080  51.099  1.00  0.00    -0.170 F 
ENDBRANCH  26  29
ENDBRANCH  19  20
ENDBRANCH  18  19
ENDBRANCH   1  18
TORSDOF 5
ENDMDL
MODEL 5
REMARK VINA RESULT:      -8.1      3.535      7.436
REMARK  5 active torsions:
REMARK  status: ('A' for Active; 'I' for Inactive)
REMARK    1  A    between atoms: C2_2  and  C3_3 
REMARK       I    between atoms: C3_3  and  N1_5 
REMARK    2  A    between atoms: C5_7  and  C6_8 
REMARK    3  A    between atoms: C6_8  and  O2_9 
REMARK    4  A    between atoms: O2_9  and  C7_10 
REMARK    5  A    between atoms: C17_25  and  C18_26 
ROOT
HETATM    1  C7  UNL     1      23.938   2.594  52.808  1.00  0.00     0.171 C 
HETATM    2  N2  UNL     1      25.074   3.170  53.233  1.00  0.00    -0.238 NA
HETATM    3  C8  UNL     1      26.371   2.531  53.239  1.00  0.00     0.230 C 
HETATM    4  C9  UNL     1      26.769   2.130  51.828  1.00  0.00     0.170 C 
HETATM    5  N3  UNL     1      26.108   0.881  51.397  1.00  0.00    -0.371 N 
HETATM    6  C10 UNL     1      25.030   0.424  52.270  1.00  0.00     0.133 C 
HETATM    7  C11 UNL     1      23.868   1.118  52.501  1.00  0.00     0.036 C 
HETATM    8  C12 UNL     1      22.730   0.201  52.489  1.00  0.00     0.057 C 
HETATM    9  N4  UNL     1      24.845  -0.758  53.178  1.00  0.00    -0.243 NA
HETATM   10  C13 UNL     1      25.655  -0.851  54.309  1.00  0.00     0.138 C 
HETATM   11  C14 UNL     1      26.470   0.248  55.060  1.00  0.00     0.227 A 
HETATM   12  N5  UNL     1      27.726  -0.286  55.339  1.00  0.00    -0.372 N 
HETATM   13  C15 UNL     1      28.714   0.417  54.618  1.00  0.00     0.102 A 
HETATM   14  C16 UNL     1      28.104   1.346  53.942  1.00  0.00     0.107 A 
HETATM   15  N6  UNL     1      26.647   1.405  54.103  1.00  0.00    -0.339 N 
HETATM   16  H12 UNL     1      26.616   0.615  50.496  1.00  0.00     0.161 HD
HETATM   17  H18 UNL     1      27.695  -1.085  56.010  1.00  0.00     0.161 HD
ENDROOT
BRANCH   1  18
HETATM   18  O2  UNL     1      22.703   3.173  52.592  1.00  0.00    -0.334 OA
BRANCH  18  19
HETATM   19  C6  UNL     1      22.757   4.173  51.553  1.00  0.00     0.185 C 
BRANCH  19  20
HETATM   20  C5  UNL     1      22.979   3.459  50.260  1.00  0.00     0.053 C 
HETATM   21  C4  UNL     1      24.304   3.725  49.630  1.00  0.00     0.148 C 
HETATM   22  N1  UNL     1      24.231   4.947  48.888  1.00  0.00    -0.287 N 
HETATM   23  C3  UNL     1      25.142   5.975  48.532  1.00  0.00     0.252 C 
HETATM   24  S1  UNL     1      22.533   5.080  48.343  1.00  0.00    -0.036 SA
HETATM   25  O1  UNL     1      24.913   7.010  47.860  1.00  0.00    -0.268 OA
HETATM   26  C17 UNL     1      21.891   3.650  49.262  1.00  0.00     0.184 C 
BRANCH  23  27
HETATM   27  C2  UNL     1      26.525   5.869  48.972  1.00  0.00     0.065 C 
HETATM   28  C1  UNL     1      27.491   5.062  48.599  1.00  0.00     0.017 C 
ENDBRANCH  23  27
BRANCH  26  29
HETATM   29  C18 UNL     1      21.775   2.489  48.292  1.00  0.00     0.402 C 
HETATM   30  F1  UNL     1      22.512   2.754  47.153  1.00  0.00    -0.170 F 
HETATM   31  F2  UNL     1      20.458   2.354  47.897  1.00  0.00    -0.170 F 
HETATM   32  F3  UNL     1      22.262   1.315  48.811  1.00  0.00    -0.170 F 
ENDBRANCH  26  29
ENDBRANCH  19  20
ENDBRANCH  18  19
ENDBRANCH   1  18
TORSDOF 5
ENDMDL
MODEL 6
REMARK VINA RESULT:      -8.0      4.185      7.853
REMARK  5 active torsions:
REMARK  status: ('A' for Active; 'I' for Inactive)
REMARK    1  A    between atoms: C2_2  and  C3_3 
REMARK       I    between atoms: C3_3  and  N1_5 
REMARK    2  A    between atoms: C5_7  and  C6_8 
REMARK    3  A    between atoms: C6_8  and  O2_9 
REMARK    4  A    between atoms: O2_9  and  C7_10 
REMARK    5  A    between atoms: C17_25  and  C18_26 
ROOT
HETATM    1  C7  UNL     1      23.860   2.706  52.814  1.00  0.00     0.171 C 
HETATM    2  N2  UNL     1      25.018   3.242  53.236  1.00  0.00    -0.238 NA
HETATM    3  C8  UNL     1      26.293   2.560  53.226  1.00  0.00     0.230 C 
HETATM    4  C9  UNL     1      26.667   2.161  51.809  1.00  0.00     0.170 C 
HETATM    5  N3  UNL     1      25.964   0.938  51.371  1.00  0.00    -0.371 N 
HETATM    6  C10 UNL     1      24.877   0.508  52.247  1.00  0.00     0.133 C 
HETATM    7  C11 UNL     1      23.740   1.237  52.494  1.00  0.00     0.036 C 
HETATM    8  C12 UNL     1      22.574   0.357  52.482  1.00  0.00     0.057 C 
HETATM    9  N4  UNL     1      24.661  -0.676  53.146  1.00  0.00    -0.243 NA
HETATM   10  C13 UNL     1      25.476  -0.807  54.269  1.00  0.00     0.138 C 
HETATM   11  C14 UNL     1      26.331   0.258  55.024  1.00  0.00     0.227 A 
HETATM   12  N5  UNL     1      27.571  -0.319  55.289  1.00  0.00    -0.372 N 
HETATM   13  C15 UNL     1      28.577   0.358  54.567  1.00  0.00     0.102 A 
HETATM   14  C16 UNL     1      27.992   1.313  53.905  1.00  0.00     0.107 A 
HETATM   15  N6  UNL     1      26.538   1.418  54.078  1.00  0.00    -0.339 N 
HETATM   16  H12 UNL     1      26.456   0.665  50.464  1.00  0.00     0.161 HD
HETATM   17  H18 UNL     1      27.519  -1.123  55.952  1.00  0.00     0.161 HD
ENDROOT
BRANCH   1  18
HETATM   18  O2  UNL     1      22.643   3.327  52.613  1.00  0.00    -0.334 OA
BRANCH  18  19
HETATM   19  C6  UNL     1      22.787   4.758  52.498  1.00  0.00     0.185 C 
BRANCH  19  20
HETATM   20  C5  UNL     1      22.356   5.140  51.120  1.00  0.00     0.053 C 
HETATM   21  C4  UNL     1      23.371   4.871  50.061  1.00  0.00     0.148 C 
HETATM   22  N1  UNL     1      24.301   5.959  50.020  1.00  0.00    -0.287 N 
HETATM   23  C3  UNL     1      25.670   6.112  49.685  1.00  0.00     0.252 C 
HETATM   24  S1  UNL     1      23.379   7.402  50.538  1.00  0.00    -0.036 SA
HETATM   25  O1  UNL     1      26.356   7.163  49.704  1.00  0.00    -0.268 OA
HETATM   26  C17 UNL     1      21.851   6.535  51.002  1.00  0.00     0.184 C 
BRANCH  23  27
HETATM   27  C2  UNL     1      26.423   4.941  49.260  1.00  0.00     0.065 C 
HETATM   28  C1  UNL     1      27.579   4.833  48.647  1.00  0.00     0.017 C 
ENDBRANCH  23  27
BRANCH  26  29
HETATM   29  C18 UNL     1      20.858   6.705  49.868  1.00  0.00     0.402 C 
HETATM   30  F1  UNL     1      19.989   7.741  50.155  1.00  0.00    -0.170 F 
HETATM   31  F2  UNL     1      20.095   5.560  49.754  1.00  0.00    -0.170 F 
HETATM   32  F3  UNL     1      21.464   7.019  48.676  1.00  0.00    -0.170 F 
ENDBRANCH  26  29
ENDBRANCH  19  20
ENDBRANCH  18  19
ENDBRANCH   1  18
TORSDOF 5
ENDMDL
MODEL 7
REMARK VINA RESULT:      -8.0      2.486      3.593
REMARK  5 active torsions:
REMARK  status: ('A' for Active; 'I' for Inactive)
REMARK    1  A    between atoms: C2_2  and  C3_3 
REMARK       I    between atoms: C3_3  and  N1_5 
REMARK    2  A    between atoms: C5_7  and  C6_8 
REMARK    3  A    between atoms: C6_8  and  O2_9 
REMARK    4  A    between atoms: O2_9  and  C7_10 
REMARK    5  A    between atoms: C17_25  and  C18_26 
ROOT
HETATM    1  C7  UNL     1      24.134   3.644  50.505  1.00  0.00     0.171 C 
HETATM    2  N2  UNL     1      24.712   4.317  49.496  1.00  0.00    -0.238 NA
HETATM    3  C8  UNL     1      24.633   5.748  49.308  1.00  0.00     0.230 C 
HETATM    4  C9  UNL     1      25.226   6.472  50.505  1.00  0.00     0.170 C 
HETATM    5  N3  UNL     1      24.287   6.527  51.644  1.00  0.00    -0.371 N 
HETATM    6  C10 UNL     1      23.108   5.676  51.509  1.00  0.00     0.133 C 
HETATM    7  C11 UNL     1      23.142   4.305  51.429  1.00  0.00     0.036 C 
HETATM    8  C12 UNL     1      22.074   3.734  52.247  1.00  0.00     0.057 C 
HETATM    9  N4  UNL     1      21.638   5.938  51.343  1.00  0.00    -0.243 NA
HETATM   10  C13 UNL     1      21.207   6.539  50.162  1.00  0.00     0.138 C 
HETATM   11  C14 UNL     1      21.905   6.645  48.770  1.00  0.00     0.227 A 
HETATM   12  N5  UNL     1      21.744   7.954  48.324  1.00  0.00    -0.372 N 
HETATM   13  C15 UNL     1      23.001   8.594  48.258  1.00  0.00     0.102 A 
HETATM   14  C16 UNL     1      23.891   7.721  48.627  1.00  0.00     0.107 A 
HETATM   15  N6  UNL     1      23.379   6.394  48.989  1.00  0.00    -0.339 N 
HETATM   16  H12 UNL     1      24.740   7.216  52.322  1.00  0.00     0.161 HD
HETATM   17  H18 UNL     1      20.750   8.206  48.132  1.00  0.00     0.161 HD
ENDROOT
BRANCH   1  18
HETATM   18  O2  UNL     1      24.301   2.322  50.870  1.00  0.00    -0.334 OA
BRANCH  18  19
HETATM   19  C6  UNL     1      25.423   2.154  51.762  1.00  0.00     0.185 C 
BRANCH  19  20
HETATM   20  C5  UNL     1      24.929   1.426  52.968  1.00  0.00     0.053 C 
HETATM   21  C4  UNL     1      25.935   1.293  54.061  1.00  0.00     0.148 C 
HETATM   22  N1  UNL     1      26.777   0.169  53.786  1.00  0.00    -0.287 N 
HETATM   23  C3  UNL     1      28.122  -0.184  54.065  1.00  0.00     0.252 C 
HETATM   24  S1  UNL     1      25.762  -0.983  52.868  1.00  0.00    -0.036 SA
HETATM   25  O1  UNL     1      28.727  -1.236  53.743  1.00  0.00    -0.268 OA
HETATM   26  C17 UNL     1      24.316   0.101  52.673  1.00  0.00     0.184 C 
BRANCH  23  27
HETATM   27  C2  UNL     1      28.951   0.749  54.814  1.00  0.00     0.065 C 
HETATM   28  C1  UNL     1      29.423   1.931  54.496  1.00  0.00     0.017 C 
ENDBRANCH  23  27
BRANCH  26  29
HETATM   29  C18 UNL     1      23.285  -0.310  53.707  1.00  0.00     0.402 C 
HETATM   30  F1  UNL     1      22.467  -1.296  53.188  1.00  0.00    -0.170 F 
HETATM   31  F2  UNL     1      22.476   0.771  54.000  1.00  0.00    -0.170 F 
HETATM   32  F3  UNL     1      23.853  -0.829  54.845  1.00  0.00    -0.170 F 
ENDBRANCH  26  29
ENDBRANCH  19  20
ENDBRANCH  18  19
ENDBRANCH   1  18
TORSDOF 5
ENDMDL
MODEL 8
REMARK VINA RESULT:      -7.5      4.181      7.274
REMARK  5 active torsions:
REMARK  status: ('A' for Active; 'I' for Inactive)
REMARK    1  A    between atoms: C2_2  and  C3_3 
REMARK       I    between atoms: C3_3  and  N1_5 
REMARK    2  A    between atoms: C5_7  and  C6_8 
REMARK    3  A    between atoms: C6_8  and  O2_9 
REMARK    4  A    between atoms: O2_9  and  C7_10 
REMARK    5  A    between atoms: C17_25  and  C18_26 
ROOT
HETATM    1  C7  UNL     1      24.110   2.727  52.852  1.00  0.00     0.171 C 
HETATM    2  N2  UNL     1      25.319   3.214  53.179  1.00  0.00    -0.238 NA
HETATM    3  C8  UNL     1      26.551   2.459  53.134  1.00  0.00     0.230 C 
HETATM    4  C9  UNL     1      26.819   1.968  51.722  1.00  0.00     0.170 C 
HETATM    5  N3  UNL     1      26.024   0.769  51.389  1.00  0.00    -0.371 N 
HETATM    6  C10 UNL     1      24.969   0.447  52.346  1.00  0.00     0.133 C 
HETATM    7  C11 UNL     1      23.890   1.253  52.617  1.00  0.00     0.036 C 
HETATM    8  C12 UNL     1      22.678   0.443  52.717  1.00  0.00     0.057 C 
HETATM    9  N4  UNL     1      24.740  -0.676  53.317  1.00  0.00    -0.243 NA
HETATM   10  C13 UNL     1      25.610  -0.798  54.398  1.00  0.00     0.138 C 
HETATM   11  C14 UNL     1      26.567   0.251  55.047  1.00  0.00     0.227 A 
HETATM   12  N5  UNL     1      27.786  -0.384  55.273  1.00  0.00    -0.372 N 
HETATM   13  C15 UNL     1      28.784   0.197  54.461  1.00  0.00     0.102 A 
HETATM   14  C16 UNL     1      28.215   1.150  53.783  1.00  0.00     0.107 A 
HETATM   15  N6  UNL     1      26.782   1.348  54.031  1.00  0.00    -0.339 N 
HETATM   16  H12 UNL     1      26.446   0.423  50.472  1.00  0.00     0.161 HD
HETATM   17  H18 UNL     1      27.728  -1.150  55.980  1.00  0.00     0.161 HD
ENDROOT
BRANCH   1  18
HETATM   18  O2  UNL     1      22.920   3.407  52.686  1.00  0.00    -0.334 OA
BRANCH  18  19
HETATM   19  C6  UNL     1      23.114   4.837  52.720  1.00  0.00     0.185 C 
BRANCH  19  20
HETATM   20  C5  UNL     1      22.219   5.432  51.684  1.00  0.00     0.053 C 
HETATM   21  C4  UNL     1      21.429   4.434  50.907  1.00  0.00     0.148 C 
HETATM   22  N1  UNL     1      22.241   3.923  49.844  1.00  0.00    -0.287 N 
HETATM   23  C3  UNL     1      22.329   2.699  49.132  1.00  0.00     0.252 C 
HETATM   24  S1  UNL     1      23.361   5.248  49.411  1.00  0.00    -0.036 SA
HETATM   25  O1  UNL     1      23.119   2.402  48.203  1.00  0.00    -0.268 OA
HETATM   26  C17 UNL     1      22.900   6.378  50.758  1.00  0.00     0.184 C 
BRANCH  23  27
HETATM   27  C2  UNL     1      21.417   1.619  49.479  1.00  0.00     0.065 C 
HETATM   28  C1  UNL     1      20.133   1.468  49.256  1.00  0.00     0.017 C 
ENDBRANCH  23  27
BRANCH  26  29
HETATM   29  C18 UNL     1      21.957   7.420  50.187  1.00  0.00     0.402 C 
HETATM   30  F1  UNL     1      22.664   8.560  49.853  1.00  0.00    -0.170 F 
HETATM   31  F2  UNL     1      21.041   7.785  51.154  1.00  0.00    -0.170 F 
HETATM   32  F3  UNL     1      21.330   6.997  49.041  1.00  0.00    -0.170 F 
ENDBRANCH  26  29
ENDBRANCH  19  20
ENDBRANCH  18  19
ENDBRANCH   1  18
TORSDOF 5
ENDMDL
MODEL 9
REMARK VINA RESULT:      -7.5      3.385      7.365
REMARK  5 active torsions:
REMARK  status: ('A' for Active; 'I' for Inactive)
REMARK    1  A    between atoms: C2_2  and  C3_3 
REMARK       I    between atoms: C3_3  and  N1_5 
REMARK    2  A    between atoms: C5_7  and  C6_8 
REMARK    3  A    between atoms: C6_8  and  O2_9 
REMARK    4  A    between atoms: O2_9  and  C7_10 
REMARK    5  A    between atoms: C17_25  and  C18_26 
ROOT
HETATM    1  C7  UNL     1      23.828   2.509  52.917  1.00  0.00     0.171 C 
HETATM    2  N2  UNL     1      24.939   3.144  53.325  1.00  0.00    -0.238 NA
HETATM    3  C8  UNL     1      26.275   2.600  53.246  1.00  0.00     0.230 C 
HETATM    4  C9  UNL     1      26.638   2.299  51.801  1.00  0.00     0.170 C 
HETATM    5  N3  UNL     1      26.048   1.028  51.332  1.00  0.00    -0.371 N 
HETATM    6  C10 UNL     1      25.043   0.453  52.222  1.00  0.00     0.133 C 
HETATM    7  C11 UNL     1      23.847   1.049  52.537  1.00  0.00     0.036 C 
HETATM    8  C12 UNL     1      22.777   0.054  52.522  1.00  0.00     0.057 C 
HETATM    9  N4  UNL     1      24.982  -0.783  53.075  1.00  0.00    -0.243 NA
HETATM   10  C13 UNL     1      25.845  -0.874  54.165  1.00  0.00     0.138 C 
HETATM   11  C14 UNL     1      26.613   0.243  54.939  1.00  0.00     0.227 A 
HETATM   12  N5  UNL     1      27.914  -0.213  55.140  1.00  0.00    -0.372 N 
HETATM   13  C15 UNL     1      28.819   0.594  54.417  1.00  0.00     0.102 A 
HETATM   14  C16 UNL     1      28.117   1.509  53.816  1.00  0.00     0.107 A 
HETATM   15  N6  UNL     1      26.667   1.455  54.038  1.00  0.00    -0.339 N 
HETATM   16  H12 UNL     1      26.533   0.845  50.399  1.00  0.00     0.161 HD
HETATM   17  H18 UNL     1      27.968  -1.044  55.768  1.00  0.00     0.161 HD
ENDROOT
BRANCH   1  18
HETATM   18  O2  UNL     1      22.547   3.008  52.782  1.00  0.00    -0.334 OA
BRANCH  18  19
HETATM   19  C6  UNL     1      22.550   4.343  52.234  1.00  0.00     0.185 C 
BRANCH  19  20
HETATM   20  C5  UNL     1      22.805   4.222  50.767  1.00  0.00     0.053 C 
HETATM   21  C4  UNL     1      22.824   5.522  50.037  1.00  0.00     0.148 C 
HETATM   22  N1  UNL     1      21.480   5.901  49.724  1.00  0.00    -0.287 N 
HETATM   23  C3  UNL     1      20.784   7.125  49.550  1.00  0.00     0.252 C 
HETATM   24  S1  UNL     1      20.577   4.369  49.534  1.00  0.00    -0.036 SA
HETATM   25  O1  UNL     1      19.572   7.290  49.273  1.00  0.00    -0.268 OA
HETATM   26  C17 UNL     1      21.911   3.256  50.070  1.00  0.00     0.184 C 
BRANCH  23  27
HETATM   27  C2  UNL     1      21.515   8.374  49.701  1.00  0.00     0.065 C 
HETATM   28  C1  UNL     1      22.272   9.039  48.860  1.00  0.00     0.017 C 
ENDBRANCH  23  27
BRANCH  26  29
HETATM   29  C18 UNL     1      22.547   2.663  48.827  1.00  0.00     0.402 C 
HETATM   30  F1  UNL     1      22.094   3.330  47.704  1.00  0.00    -0.170 F 
HETATM   31  F2  UNL     1      22.154   1.345  48.698  1.00  0.00    -0.170 F 
HETATM   32  F3  UNL     1      23.916   2.777  48.826  1.00  0.00    -0.170 F 
ENDBRANCH  26  29
ENDBRANCH  19  20
ENDBRANCH  18  19
ENDBRANCH   1  18
TORSDOF 5
ENDMDL
