MODEL 1
REMARK VINA RESULT:      -8.8      0.000      0.000
REMARK  3 active torsions:
REMARK  status: ('A' for Active; 'I' for Inactive)
REMARK    1  A    between atoms: C5_5  and  C6_6 
REMARK    2  A    between atoms: N2_8  and  C7_9 
REMARK    3  A    between atoms: C10_14  and  C11_15 
ROOT
HETATM    1  C6  UNL     1      25.558   2.427  51.753  1.00  0.00     0.067 A 
HETATM    2  N1  UNL     1      24.587   1.705  52.111  1.00  0.00    -0.173 NA
HETATM    3  N2  UNL     1      24.979   0.811  53.113  1.00  0.00    -0.236 N 
HETATM    4  C10 UNL     1      26.357   0.971  53.389  1.00  0.00     0.151 A 
HETATM    5  C17 UNL     1      26.789   2.096  52.503  1.00  0.00     0.094 A 
ENDROOT
BRANCH   1   6
HETATM    6  C5  UNL     1      25.699   3.506  50.752  1.00  0.00    -0.010 A 
HETATM    7  C4  UNL     1      26.694   3.694  49.827  1.00  0.00     0.014 A 
HETATM    8  C3  UNL     1      26.709   4.738  48.967  1.00  0.00     0.007 A 
HETATM    9  C2  UNL     1      25.693   5.677  48.993  1.00  0.00    -0.062 A 
HETATM   10  C1  UNL     1      25.832   6.772  47.993  1.00  0.00     0.048 C 
HETATM   11  C19 UNL     1      24.652   5.547  49.908  1.00  0.00     0.007 A 
HETATM   12  C18 UNL     1      24.681   4.455  50.770  1.00  0.00     0.014 A 
ENDBRANCH   1   6
BRANCH   3  13
HETATM   13  C7  UNL     1      23.850  -0.003  53.569  1.00  0.00     0.189 A 
HETATM   14  N3  UNL     1      23.622  -0.928  54.583  1.00  0.00    -0.235 NA
HETATM   15  C8  UNL     1      22.359  -1.318  54.518  1.00  0.00     0.127 A 
HETATM   16  C9  UNL     1      21.254  -0.975  53.637  1.00  0.00     0.072 A 
HETATM   17  S1  UNL     1      22.221   0.248  52.578  1.00  0.00    -0.061 SA
ENDBRANCH   3  13
BRANCH   4  18
HETATM   18  C11 UNL     1      27.161  -0.268  53.221  1.00  0.00    -0.033 A 
HETATM   19  C12 UNL     1      26.747  -1.474  52.700  1.00  0.00     0.009 A 
HETATM   20  C13 UNL     1      27.545  -2.579  52.581  1.00  0.00     0.001 A 
HETATM   21  C14 UNL     1      28.848  -2.511  53.000  1.00  0.00     0.000 A 
HETATM   22  C15 UNL     1      29.340  -1.339  53.533  1.00  0.00     0.001 A 
HETATM   23  C16 UNL     1      28.496  -0.269  53.627  1.00  0.00     0.009 A 
ENDBRANCH   4  18
TORSDOF 3
ENDMDL
MODEL 2
REMARK VINA RESULT:      -8.8      1.842      6.655
REMARK  3 active torsions:
REMARK  status: ('A' for Active; 'I' for Inactive)
REMARK    1  A    between atoms: C5_5  and  C6_6 
REMARK    2  A    between atoms: N2_8  and  C7_9 
REMARK    3  A    between atoms: C10_14  and  C11_15 
ROOT
HETATM    1  C6  UNL     1      23.261   0.573  53.395  1.00  0.00     0.067 A 
HETATM    2  N1  UNL     1      24.432   0.161  53.620  1.00  0.00    -0.173 NA
HETATM    3  N2  UNL     1      25.364   1.185  53.419  1.00  0.00    -0.236 N 
HETATM    4  C10 UNL     1      24.703   2.361  52.991  1.00  0.00     0.151 A 
HETATM    5  C17 UNL     1      23.252   1.997  52.995  1.00  0.00     0.094 A 
ENDROOT
BRANCH   1   6
HETATM    6  C5  UNL     1      21.933  -0.076  53.450  1.00  0.00    -0.010 A 
HETATM    7  C4  UNL     1      21.542  -1.168  54.181  1.00  0.00     0.014 A 
HETATM    8  C3  UNL     1      20.288  -1.672  54.132  1.00  0.00     0.007 A 
HETATM    9  C2  UNL     1      19.332  -1.086  53.322  1.00  0.00    -0.062 A 
HETATM   10  C1  UNL     1      17.994  -1.740  53.365  1.00  0.00     0.048 C 
HETATM   11  C19 UNL     1      19.662   0.025  52.552  1.00  0.00     0.007 A 
HETATM   12  C18 UNL     1      20.965   0.507  52.637  1.00  0.00     0.014 A 
ENDBRANCH   1   6
BRANCH   3  13
HETATM   13  C7  UNL     1      26.723   0.732  53.720  1.00  0.00     0.189 A 
HETATM   14  N3  UNL     1      27.763   1.149  54.546  1.00  0.00    -0.235 NA
HETATM   15  C8  UNL     1      28.769   0.300  54.413  1.00  0.00     0.127 A 
HETATM   16  C9  UNL     1      28.962  -0.900  53.615  1.00  0.00     0.072 A 
HETATM   17  S1  UNL     1      27.264  -0.867  52.798  1.00  0.00    -0.061 SA
ENDBRANCH   3  13
BRANCH   4  18
HETATM   18  C11 UNL     1      25.185   2.892  51.690  1.00  0.00    -0.033 A 
HETATM   19  C12 UNL     1      26.294   2.489  50.977  1.00  0.00     0.009 A 
HETATM   20  C13 UNL     1      26.682   3.031  49.782  1.00  0.00     0.001 A 
HETATM   21  C14 UNL     1      25.938   4.043  49.233  1.00  0.00     0.000 A 
HETATM   22  C15 UNL     1      24.813   4.503  49.884  1.00  0.00     0.001 A 
HETATM   23  C16 UNL     1      24.475   3.923  51.074  1.00  0.00     0.009 A 
ENDBRANCH   4  18
TORSDOF 3
ENDMDL
MODEL 3
REMARK VINA RESULT:      -8.3      2.857      6.344
REMARK  3 active torsions:
REMARK  status: ('A' for Active; 'I' for Inactive)
REMARK    1  A    between atoms: C5_5  and  C6_6 
REMARK    2  A    between atoms: N2_8  and  C7_9 
REMARK    3  A    between atoms: C10_14  and  C11_15 
ROOT
HETATM    1  C6  UNL     1      24.954   1.049  52.256  1.00  0.00     0.067 A 
HETATM    2  N1  UNL     1      24.430   1.287  51.132  1.00  0.00    -0.173 NA
HETATM    3  N2  UNL     1      23.081   1.628  51.278  1.00  0.00    -0.236 N 
HETATM    4  C10 UNL     1      22.713   1.566  52.643  1.00  0.00     0.151 A 
HETATM    5  C17 UNL     1      23.979   1.207  53.357  1.00  0.00     0.094 A 
ENDROOT
BRANCH   1   6
HETATM    6  C5  UNL     1      26.316   0.650  52.671  1.00  0.00    -0.010 A 
HETATM    7  C4  UNL     1      27.362   1.447  53.060  1.00  0.00     0.014 A 
HETATM    8  C3  UNL     1      28.571   0.951  53.409  1.00  0.00     0.007 A 
HETATM    9  C2  UNL     1      28.798  -0.413  53.386  1.00  0.00    -0.062 A 
HETATM   10  C1  UNL     1      30.171  -0.823  53.796  1.00  0.00     0.048 C 
HETATM   11  C19 UNL     1      27.779  -1.280  53.001  1.00  0.00     0.007 A 
HETATM   12  C18 UNL     1      26.554  -0.721  52.651  1.00  0.00     0.014 A 
ENDBRANCH   1   6
BRANCH   3  13
HETATM   13  C7  UNL     1      22.473   1.950  49.986  1.00  0.00     0.189 A 
HETATM   14  N3  UNL     1      21.482   1.402  49.177  1.00  0.00    -0.235 NA
HETATM   15  C8  UNL     1      21.340   2.171  48.110  1.00  0.00     0.127 A 
HETATM   16  C9  UNL     1      21.991   3.395  47.670  1.00  0.00     0.072 A 
HETATM   17  S1  UNL     1      23.142   3.549  49.154  1.00  0.00    -0.061 SA
ENDBRANCH   3  13
BRANCH   4  18
HETATM   18  C11 UNL     1      21.582   0.647  52.929  1.00  0.00    -0.033 A 
HETATM   19  C12 UNL     1      20.290   0.732  52.458  1.00  0.00     0.009 A 
HETATM   20  C13 UNL     1      19.294  -0.152  52.770  1.00  0.00     0.001 A 
HETATM   21  C14 UNL     1      19.570  -1.204  53.605  1.00  0.00     0.000 A 
HETATM   22  C15 UNL     1      20.840  -1.360  54.119  1.00  0.00     0.001 A 
HETATM   23  C16 UNL     1      21.794  -0.446  53.772  1.00  0.00     0.009 A 
ENDBRANCH   4  18
TORSDOF 3
ENDMDL
MODEL 4
REMARK VINA RESULT:      -8.3      2.598      6.933
REMARK  3 active torsions:
REMARK  status: ('A' for Active; 'I' for Inactive)
REMARK    1  A    between atoms: C5_5  and  C6_6 
REMARK    2  A    between atoms: N2_8  and  C7_9 
REMARK    3  A    between atoms: C10_14  and  C11_15 
ROOT
HETATM    1  C6  UNL     1      26.100   2.716  51.276  1.00  0.00     0.067 A 
HETATM    2  N1  UNL     1      25.020   3.312  51.542  1.00  0.00    -0.173 NA
HETATM    3  N2  UNL     1      24.570   4.037  50.433  1.00  0.00    -0.236 N 
HETATM    4  C10 UNL     1      25.488   3.903  49.365  1.00  0.00     0.151 A 
HETATM    5  C17 UNL     1      26.538   2.975  49.887  1.00  0.00     0.094 A 
ENDROOT
BRANCH   1   6
HETATM    6  C5  UNL     1      26.990   1.838  52.066  1.00  0.00    -0.010 A 
HETATM    7  C4  UNL     1      28.056   2.183  52.855  1.00  0.00     0.014 A 
HETATM    8  C3  UNL     1      28.800   1.272  53.523  1.00  0.00     0.007 A 
HETATM    9  C2  UNL     1      28.501  -0.075  53.430  1.00  0.00    -0.062 A 
HETATM   10  C1  UNL     1      29.398  -0.968  54.216  1.00  0.00     0.048 C 
HETATM   11  C19 UNL     1      27.431  -0.496  52.644  1.00  0.00     0.007 A 
HETATM   12  C18 UNL     1      26.696   0.480  51.978  1.00  0.00     0.014 A 
ENDBRANCH   1   6
BRANCH   3  13
HETATM   13  C7  UNL     1      23.293   4.697  50.714  1.00  0.00     0.189 A 
HETATM   14  N3  UNL     1      22.888   5.908  51.268  1.00  0.00    -0.235 NA
HETATM   15  C8  UNL     1      21.567   5.964  51.230  1.00  0.00     0.127 A 
HETATM   16  C9  UNL     1      20.544   5.050  50.748  1.00  0.00     0.072 A 
HETATM   17  S1  UNL     1      21.735   3.709  50.171  1.00  0.00    -0.061 SA
ENDBRANCH   3  13
BRANCH   4  18
HETATM   18  C11 UNL     1      26.025   5.193  48.858  1.00  0.00    -0.033 A 
HETATM   19  C12 UNL     1      25.317   6.333  48.544  1.00  0.00     0.009 A 
HETATM   20  C13 UNL     1      25.882   7.487  48.073  1.00  0.00     0.001 A 
HETATM   21  C14 UNL     1      27.240   7.543  47.892  1.00  0.00     0.000 A 
HETATM   22  C15 UNL     1      28.019   6.443  48.183  1.00  0.00     0.001 A 
HETATM   23  C16 UNL     1      27.399   5.319  48.650  1.00  0.00     0.009 A 
ENDBRANCH   4  18
TORSDOF 3
ENDMDL
MODEL 5
REMARK VINA RESULT:      -8.3      2.633      6.796
REMARK  3 active torsions:
REMARK  status: ('A' for Active; 'I' for Inactive)
REMARK    1  A    between atoms: C5_5  and  C6_6 
REMARK    2  A    between atoms: N2_8  and  C7_9 
REMARK    3  A    between atoms: C10_14  and  C11_15 
ROOT
HETATM    1  C6  UNL     1      25.682   2.150  52.207  1.00  0.00     0.067 A 
HETATM    2  N1  UNL     1      25.480   2.893  51.206  1.00  0.00    -0.173 NA
HETATM    3  N2  UNL     1      24.192   3.438  51.247  1.00  0.00    -0.236 N 
HETATM    4  C10 UNL     1      23.501   2.958  52.384  1.00  0.00     0.151 A 
HETATM    5  C17 UNL     1      24.498   2.098  53.094  1.00  0.00     0.094 A 
ENDROOT
BRANCH   1   6
HETATM    6  C5  UNL     1      26.839   1.343  52.649  1.00  0.00    -0.010 A 
HETATM    7  C4  UNL     1      28.056   1.771  53.112  1.00  0.00     0.014 A 
HETATM    8  C3  UNL     1      29.042   0.920  53.479  1.00  0.00     0.007 A 
HETATM    9  C2  UNL     1      28.849  -0.447  53.397  1.00  0.00    -0.062 A 
HETATM   10  C1  UNL     1      30.013  -1.268  53.833  1.00  0.00     0.048 C 
HETATM   11  C19 UNL     1      27.636  -0.950  52.935  1.00  0.00     0.007 A 
HETATM   12  C18 UNL     1      26.653  -0.034  52.571  1.00  0.00     0.014 A 
ENDBRANCH   1   6
BRANCH   3  13
HETATM   13  C7  UNL     1      23.961   4.336  50.114  1.00  0.00     0.189 A 
HETATM   14  N3  UNL     1      23.054   4.415  49.062  1.00  0.00    -0.235 NA
HETATM   15  C8  UNL     1      23.329   5.497  48.352  1.00  0.00     0.127 A 
HETATM   16  C9  UNL     1      24.338   6.538  48.471  1.00  0.00     0.072 A 
HETATM   17  S1  UNL     1      25.162   5.835  50.013  1.00  0.00    -0.061 SA
ENDBRANCH   3  13
BRANCH   4  18
HETATM   18  C11 UNL     1      22.224   2.265  52.074  1.00  0.00    -0.033 A 
HETATM   19  C12 UNL     1      20.943   2.738  52.263  1.00  0.00     0.009 A 
HETATM   20  C13 UNL     1      19.808   2.038  51.959  1.00  0.00     0.001 A 
HETATM   21  C14 UNL     1      19.921   0.778  51.429  1.00  0.00     0.000 A 
HETATM   22  C15 UNL     1      21.168   0.233  51.209  1.00  0.00     0.001 A 
HETATM   23  C16 UNL     1      22.265   0.979  51.533  1.00  0.00     0.009 A 
ENDBRANCH   4  18
TORSDOF 3
ENDMDL
MODEL 6
REMARK VINA RESULT:      -8.2      2.355      3.681
REMARK  3 active torsions:
REMARK  status: ('A' for Active; 'I' for Inactive)
REMARK    1  A    between atoms: C5_5  and  C6_6 
REMARK    2  A    between atoms: N2_8  and  C7_9 
REMARK    3  A    between atoms: C10_14  and  C11_15 
ROOT
HETATM    1  C6  UNL     1      25.312   4.145  49.752  1.00  0.00     0.067 A 
HETATM    2  N1  UNL     1      24.259   3.556  49.382  1.00  0.00    -0.173 NA
HETATM    3  N2  UNL     1      23.752   2.756  50.412  1.00  0.00    -0.236 N 
HETATM    4  C10 UNL     1      24.601   2.830  51.542  1.00  0.00     0.151 A 
HETATM    5  C17 UNL     1      25.668   3.802  51.147  1.00  0.00     0.094 A 
ENDROOT
BRANCH   1   6
HETATM    6  C5  UNL     1      26.235   5.083  49.078  1.00  0.00    -0.010 A 
HETATM    7  C4  UNL     1      25.986   6.352  48.623  1.00  0.00     0.014 A 
HETATM    8  C3  UNL     1      26.925   7.109  48.008  1.00  0.00     0.007 A 
HETATM    9  C2  UNL     1      28.202   6.613  47.814  1.00  0.00    -0.062 A 
HETATM   10  C1  UNL     1      29.136   7.549  47.128  1.00  0.00     0.048 C 
HETATM   11  C19 UNL     1      28.522   5.331  48.252  1.00  0.00     0.007 A 
HETATM   12  C18 UNL     1      27.522   4.593  48.878  1.00  0.00     0.014 A 
ENDBRANCH   1   6
BRANCH   3  13
HETATM   13  C7  UNL     1      22.506   2.101  50.011  1.00  0.00     0.189 A 
HETATM   14  N3  UNL     1      22.030   1.455  48.874  1.00  0.00    -0.235 NA
HETATM   15  C8  UNL     1      20.802   1.028  49.117  1.00  0.00     0.127 A 
HETATM   16  C9  UNL     1      19.930   1.112  50.278  1.00  0.00     0.072 A 
HETATM   17  S1  UNL     1      21.144   2.054  51.368  1.00  0.00    -0.061 SA
ENDBRANCH   3  13
BRANCH   4  18
HETATM   18  C11 UNL     1      25.125   1.517  51.998  1.00  0.00    -0.033 A 
HETATM   19  C12 UNL     1      26.322   0.925  51.656  1.00  0.00     0.009 A 
HETATM   20  C13 UNL     1      26.738  -0.297  52.112  1.00  0.00     0.001 A 
HETATM   21  C14 UNL     1      25.931  -1.001  52.968  1.00  0.00     0.000 A 
HETATM   22  C15 UNL     1      24.718  -0.477  53.359  1.00  0.00     0.001 A 
HETATM   23  C16 UNL     1      24.356   0.746  52.871  1.00  0.00     0.009 A 
ENDBRANCH   4  18
TORSDOF 3
ENDMDL
MODEL 7
REMARK VINA RESULT:      -8.1      2.287      4.542
REMARK  3 active torsions:
REMARK  status: ('A' for Active; 'I' for Inactive)
REMARK    1  A    between atoms: C5_5  and  C6_6 
REMARK    2  A    between atoms: N2_8  and  C7_9 
REMARK    3  A    between atoms: C10_14  and  C11_15 
ROOT
HETATM    1  C6  UNL     1      24.559   3.225  51.475  1.00  0.00     0.067 A 
HETATM    2  N1  UNL     1      25.498   2.869  52.239  1.00  0.00    -0.173 NA
HETATM    3  N2  UNL     1      25.368   1.521  52.587  1.00  0.00    -0.236 N 
HETATM    4  C10 UNL     1      24.199   0.982  52.000  1.00  0.00     0.151 A 
HETATM    5  C17 UNL     1      23.630   2.108  51.196  1.00  0.00     0.094 A 
ENDROOT
BRANCH   1   6
HETATM    6  C5  UNL     1      24.215   4.509  50.826  1.00  0.00    -0.010 A 
HETATM    7  C4  UNL     1      23.753   5.664  51.402  1.00  0.00     0.014 A 
HETATM    8  C3  UNL     1      23.466   6.776  50.687  1.00  0.00     0.007 A 
HETATM    9  C2  UNL     1      23.634   6.785  49.314  1.00  0.00    -0.062 A 
HETATM   10  C1  UNL     1      23.283   8.072  48.652  1.00  0.00     0.048 C 
HETATM   11  C19 UNL     1      24.100   5.645  48.665  1.00  0.00     0.007 A 
HETATM   12  C18 UNL     1      24.382   4.527  49.444  1.00  0.00     0.014 A 
ENDBRANCH   1   6
BRANCH   3  13
HETATM   13  C7  UNL     1      26.477   1.084  53.438  1.00  0.00     0.189 A 
HETATM   14  N3  UNL     1      26.692   0.072  54.368  1.00  0.00    -0.235 NA
HETATM   15  C8  UNL     1      27.939   0.159  54.802  1.00  0.00     0.127 A 
HETATM   16  C9  UNL     1      29.039   1.061  54.498  1.00  0.00     0.072 A 
HETATM   17  S1  UNL     1      28.095   2.105  53.245  1.00  0.00    -0.061 SA
ENDBRANCH   3  13
BRANCH   4  18
HETATM   18  C11 UNL     1      23.242   0.396  52.974  1.00  0.00    -0.033 A 
HETATM   19  C12 UNL     1      23.434  -0.702  53.784  1.00  0.00     0.009 A 
HETATM   20  C13 UNL     1      22.500  -1.191  54.656  1.00  0.00     0.001 A 
HETATM   21  C14 UNL     1      21.283  -0.567  54.752  1.00  0.00     0.000 A 
HETATM   22  C15 UNL     1      21.013   0.539  53.976  1.00  0.00     0.001 A 
HETATM   23  C16 UNL     1      21.984   0.981  53.123  1.00  0.00     0.009 A 
ENDBRANCH   4  18
TORSDOF 3
ENDMDL
MODEL 8
REMARK VINA RESULT:      -8.0      3.205      4.574
REMARK  3 active torsions:
REMARK  status: ('A' for Active; 'I' for Inactive)
REMARK    1  A    between atoms: C5_5  and  C6_6 
REMARK    2  A    between atoms: N2_8  and  C7_9 
REMARK    3  A    between atoms: C10_14  and  C11_15 
ROOT
HETATM    1  C6  UNL     1      24.004   4.138  50.765  1.00  0.00     0.067 A 
HETATM    2  N1  UNL     1      22.768   4.185  50.513  1.00  0.00    -0.173 NA
HETATM    3  N2  UNL     1      22.029   3.607  51.551  1.00  0.00    -0.236 N 
HETATM    4  C10 UNL     1      22.903   3.116  52.550  1.00  0.00     0.151 A 
HETATM    5  C17 UNL     1      24.270   3.490  52.069  1.00  0.00     0.094 A 
ENDROOT
BRANCH   1   6
HETATM    6  C5  UNL     1      25.204   4.588  50.027  1.00  0.00    -0.010 A 
HETATM    7  C4  UNL     1      26.260   3.842  49.572  1.00  0.00     0.014 A 
HETATM    8  C3  UNL     1      27.310   4.383  48.912  1.00  0.00     0.007 A 
HETATM    9  C2  UNL     1      27.352   5.744  48.667  1.00  0.00    -0.062 A 
HETATM   10  C1  UNL     1      28.562   6.207  47.930  1.00  0.00     0.048 C 
HETATM   11  C19 UNL     1      26.312   6.560  49.103  1.00  0.00     0.007 A 
HETATM   12  C18 UNL     1      25.255   5.956  49.776  1.00  0.00     0.014 A 
ENDBRANCH   1   6
BRANCH   3  13
HETATM   13  C7  UNL     1      20.591   3.696  51.292  1.00  0.00     0.189 A 
HETATM   14  N3  UNL     1      19.425   3.590  52.044  1.00  0.00    -0.235 NA
HETATM   15  C8  UNL     1      18.391   3.801  51.245  1.00  0.00     0.127 A 
HETATM   16  C9  UNL     1      18.272   4.099  49.827  1.00  0.00     0.072 A 
HETATM   17  S1  UNL     1      20.122   4.093  49.469  1.00  0.00    -0.061 SA
ENDBRANCH   3  13
BRANCH   4  18
HETATM   18  C11 UNL     1      22.746   1.667  52.839  1.00  0.00    -0.033 A 
HETATM   19  C12 UNL     1      21.572   0.972  53.035  1.00  0.00     0.009 A 
HETATM   20  C13 UNL     1      21.503  -0.367  53.305  1.00  0.00     0.001 A 
HETATM   21  C14 UNL     1      22.663  -1.092  53.393  1.00  0.00     0.000 A 
HETATM   22  C15 UNL     1      23.880  -0.471  53.210  1.00  0.00     0.001 A 
HETATM   23  C16 UNL     1      23.886   0.869  52.942  1.00  0.00     0.009 A 
ENDBRANCH   4  18
TORSDOF 3
ENDMDL
MODEL 9
REMARK VINA RESULT:      -8.0      2.325      4.878
REMARK  3 active torsions:
REMARK  status: ('A' for Active; 'I' for Inactive)
REMARK    1  A    between atoms: C5_5  and  C6_6 
REMARK    2  A    between atoms: N2_8  and  C7_9 
REMARK    3  A    between atoms: C10_14  and  C11_15 
ROOT
HETATM    1  C6  UNL     1      25.743   3.518  50.147  1.00  0.00     0.067 A 
HETATM    2  N1  UNL     1      26.111   2.882  51.174  1.00  0.00    -0.173 NA
HETATM    3  N2  UNL     1      25.156   1.923  51.529  1.00  0.00    -0.236 N 
HETATM    4  C10 UNL     1      24.055   1.988  50.643  1.00  0.00     0.151 A 
HETATM    5  C17 UNL     1      24.430   3.046  49.655  1.00  0.00     0.094 A 
ENDROOT
BRANCH   1   6
HETATM    6  C5  UNL     1      26.353   4.616  49.367  1.00  0.00    -0.010 A 
HETATM    7  C4  UNL     1      27.637   4.722  48.896  1.00  0.00     0.014 A 
HETATM    8  C3  UNL     1      28.074   5.794  48.196  1.00  0.00     0.007 A 
HETATM    9  C2  UNL     1      27.218   6.846  47.924  1.00  0.00    -0.062 A 
HETATM   10  C1  UNL     1      27.828   7.959  47.145  1.00  0.00     0.048 C 
HETATM   11  C19 UNL     1      25.902   6.803  48.374  1.00  0.00     0.007 A 
HETATM   12  C18 UNL     1      25.499   5.679  49.089  1.00  0.00     0.014 A 
ENDBRANCH   1   6
BRANCH   3  13
HETATM   13  C7  UNL     1      25.591   1.148  52.693  1.00  0.00     0.189 A 
HETATM   14  N3  UNL     1      25.021   0.205  53.543  1.00  0.00    -0.235 NA
HETATM   15  C8  UNL     1      25.936  -0.175  54.420  1.00  0.00     0.127 A 
HETATM   16  C9  UNL     1      27.327   0.194  54.633  1.00  0.00     0.072 A 
HETATM   17  S1  UNL     1      27.421   1.430  53.214  1.00  0.00    -0.061 SA
ENDBRANCH   3  13
BRANCH   4  18
HETATM   18  C11 UNL     1      22.749   2.227  51.311  1.00  0.00    -0.033 A 
HETATM   19  C12 UNL     1      21.901   1.289  51.859  1.00  0.00     0.009 A 
HETATM   20  C13 UNL     1      20.705   1.584  52.455  1.00  0.00     0.001 A 
HETATM   21  C14 UNL     1      20.297   2.891  52.526  1.00  0.00     0.000 A 
HETATM   22  C15 UNL     1      21.089   3.889  52.001  1.00  0.00     0.001 A 
HETATM   23  C16 UNL     1      22.273   3.535  51.418  1.00  0.00     0.009 A 
ENDBRANCH   4  18
TORSDOF 3
ENDMDL
