MODEL 1
REMARK VINA RESULT:      -6.5      0.000      0.000
REMARK  7 active torsions:
REMARK  status: ('A' for Active; 'I' for Inactive)
REMARK    1  A    between atoms: C2_2  and  C3_3 
REMARK       I    between atoms: C3_3  and  N1_5 
REMARK    2  A    between atoms: N1_5  and  C4_6 
REMARK    3  A    between atoms: N2_8  and  C6_9 
REMARK    4  A    between atoms: C6_9  and  C7_10 
REMARK    5  A    between atoms: C8_11  and  C9_12 
REMARK    6  A    between atoms: C9_12  and  N3_13 
REMARK    7  A    between atoms: C15_21  and  O2_22 
ROOT
HETATM    1  C4  UNL     1      25.132   1.793  51.534  1.00  0.00     0.086 C 
HETATM    2  C5  UNL     1      24.610   1.177  52.629  1.00  0.00     0.120 C 
HETATM    3  N2  UNL     1      25.500   0.795  53.709  1.00  0.00    -0.358 N 
HETATM    4  C12 UNL     1      26.722   1.536  53.893  1.00  0.00     0.241 C 
HETATM    5  N4  UNL     1      27.855   0.671  54.239  1.00  0.00    -0.358 N 
HETATM    6  C13 UNL     1      28.930   1.552  53.828  1.00  0.00     0.205 C 
HETATM    7  N5  UNL     1      28.484   2.277  52.886  1.00  0.00    -0.242 NA
HETATM    8  C14 UNL     1      27.164   2.018  52.547  1.00  0.00     0.113 C 
HETATM    9  C15 UNL     1      26.516   2.251  51.441  1.00  0.00     0.125 C 
HETATM   10  H17 UNL     1      28.197  -0.254  54.635  1.00  0.00     0.162 HD
ENDROOT
BRANCH   3  11
HETATM   11  C6  UNL     1      25.225  -0.382  54.465  1.00  0.00     0.151 C 
BRANCH  11  12
HETATM   12  C7  UNL     1      23.839  -0.831  54.530  1.00  0.00    -0.010 C 
HETATM   13  C8  UNL     1      22.717  -1.274  55.096  1.00  0.00    -0.010 C 
BRANCH  13  14
HETATM   14  C9  UNL     1      21.414  -1.587  54.325  1.00  0.00     0.150 C 
BRANCH  14  15
HETATM   15  N3  UNL     1      21.154  -0.272  53.708  1.00  0.00    -0.376 N 
HETATM   16  C10 UNL     1      20.897   1.005  53.126  1.00  0.00     0.087 A 
HETATM   17  C11 UNL     1      21.021   0.034  52.246  1.00  0.00     0.150 A 
ENDBRANCH  14  15
ENDBRANCH  13  14
ENDBRANCH  11  12
ENDBRANCH   3  11
BRANCH   1  18
HETATM   18  N1  UNL     1      23.949   1.987  50.707  1.00  0.00    -0.324 N 
HETATM   19  C3  UNL     1      23.080   3.088  50.779  1.00  0.00     0.221 C 
HETATM   20  O1  UNL     1      23.066   4.131  51.491  1.00  0.00    -0.273 OA
HETATM   21  H6  UNL     1      23.735   1.248  49.994  1.00  0.00     0.169 HD
BRANCH  19  22
HETATM   22  C2  UNL     1      21.910   3.081  49.838  1.00  0.00     0.098 C 
HETATM   23  C1  UNL     1      21.846   1.872  48.969  1.00  0.00     0.014 C 
ENDBRANCH  19  22
ENDBRANCH   1  18
BRANCH   9  24
HETATM   24  O2  UNL     1      26.822   2.809  50.245  1.00  0.00    -0.352 OA
HETATM   25  C16 UNL     1      26.533   4.087  49.752  1.00  0.00     0.210 C 
ENDBRANCH   9  24
TORSDOF 7
ENDMDL
MODEL 2
REMARK VINA RESULT:      -6.5      2.655      6.844
REMARK  7 active torsions:
REMARK  status: ('A' for Active; 'I' for Inactive)
REMARK    1  A    between atoms: C2_2  and  C3_3 
REMARK       I    between atoms: C3_3  and  N1_5 
REMARK    2  A    between atoms: N1_5  and  C4_6 
REMARK    3  A    between atoms: N2_8  and  C6_9 
REMARK    4  A    between atoms: C6_9  and  C7_10 
REMARK    5  A    between atoms: C8_11  and  C9_12 
REMARK    6  A    between atoms: C9_12  and  N3_13 
REMARK    7  A    between atoms: C15_21  and  O2_22 
ROOT
HETATM    1  C4  UNL     1      26.268   0.999  52.109  1.00  0.00     0.086 C 
HETATM    2  C5  UNL     1      26.781   2.060  51.430  1.00  0.00     0.120 C 
HETATM    3  N2  UNL     1      25.890   2.875  50.627  1.00  0.00    -0.358 N 
HETATM    4  C12 UNL     1      24.497   2.939  50.987  1.00  0.00     0.241 C 
HETATM    5  N4  UNL     1      23.613   2.920  49.816  1.00  0.00    -0.358 N 
HETATM    6  C13 UNL     1      22.405   2.458  50.468  1.00  0.00     0.205 C 
HETATM    7  N5  UNL     1      22.758   1.746  51.458  1.00  0.00    -0.242 NA
HETATM    8  C14 UNL     1      24.132   1.628  51.610  1.00  0.00     0.113 C 
HETATM    9  C15 UNL     1      24.839   0.718  52.219  1.00  0.00     0.125 C 
HETATM   10  H17 UNL     1      23.491   3.090  48.774  1.00  0.00     0.162 HD
ENDROOT
BRANCH   3  11
HETATM   11  C6  UNL     1      26.374   3.472  49.425  1.00  0.00     0.151 C 
BRANCH  11  12
HETATM   12  C7  UNL     1      26.409   4.928  49.364  1.00  0.00    -0.010 C 
HETATM   13  C8  UNL     1      26.600   6.130  48.823  1.00  0.00    -0.010 C 
BRANCH  13  14
HETATM   14  C9  UNL     1      26.387   7.468  49.567  1.00  0.00     0.150 C 
BRANCH  14  15
HETATM   15  N3  UNL     1      25.243   7.108  50.427  1.00  0.00    -0.376 N 
HETATM   16  C10 UNL     1      24.141   6.745  51.257  1.00  0.00     0.087 A 
HETATM   17  C11 UNL     1      23.982   7.894  50.634  1.00  0.00     0.150 A 
ENDBRANCH  14  15
ENDBRANCH  13  14
ENDBRANCH  11  12
ENDBRANCH   3  11
BRANCH   1  18
HETATM   18  N1  UNL     1      27.453   0.454  52.755  1.00  0.00    -0.324 N 
HETATM   19  C3  UNL     1      27.711   0.486  54.135  1.00  0.00     0.221 C 
HETATM   20  O1  UNL     1      27.065   0.932  55.125  1.00  0.00    -0.273 OA
HETATM   21  H6  UNL     1      28.168  -0.006  52.140  1.00  0.00     0.169 HD
BRANCH  19  22
HETATM   22  C2  UNL     1      29.007  -0.125  54.589  1.00  0.00     0.098 C 
HETATM   23  C1  UNL     1      29.717  -0.886  53.523  1.00  0.00     0.014 C 
ENDBRANCH  19  22
ENDBRANCH   1  18
BRANCH   9  24
HETATM   24  O2  UNL     1      24.560  -0.410  52.916  1.00  0.00    -0.352 OA
HETATM   25  C16 UNL     1      23.988  -0.561  54.185  1.00  0.00     0.210 C 
ENDBRANCH   9  24
TORSDOF 7
ENDMDL
MODEL 3
REMARK VINA RESULT:      -6.5      1.676      5.330
REMARK  7 active torsions:
REMARK  status: ('A' for Active; 'I' for Inactive)
REMARK    1  A    between atoms: C2_2  and  C3_3 
REMARK       I    between atoms: C3_3  and  N1_5 
REMARK    2  A    between atoms: N1_5  and  C4_6 
REMARK    3  A    between atoms: N2_8  and  C6_9 
REMARK    4  A    between atoms: C6_9  and  C7_10 
REMARK    5  A    between atoms: C8_11  and  C9_12 
REMARK    6  A    between atoms: C9_12  and  N3_13 
REMARK    7  A    between atoms: C15_21  and  O2_22 
ROOT
HETATM    1  C4  UNL     1      23.868   2.098  52.318  1.00  0.00     0.086 C 
HETATM    2  C5  UNL     1      24.785   1.126  52.572  1.00  0.00     0.120 C 
HETATM    3  N2  UNL     1      24.375  -0.045  53.324  1.00  0.00    -0.358 N 
HETATM    4  C12 UNL     1      22.991  -0.443  53.286  1.00  0.00     0.241 C 
HETATM    5  N4  UNL     1      22.501  -0.894  54.592  1.00  0.00    -0.358 N 
HETATM    6  C13 UNL     1      21.084  -0.691  54.371  1.00  0.00     0.205 C 
HETATM    7  N5  UNL     1      20.964   0.261  53.539  1.00  0.00    -0.242 NA
HETATM    8  C14 UNL     1      22.170   0.797  53.114  1.00  0.00     0.113 C 
HETATM    9  C15 UNL     1      22.443   1.968  52.611  1.00  0.00     0.125 C 
HETATM   10  H17 UNL     1      22.726  -1.279  55.557  1.00  0.00     0.162 HD
ENDROOT
BRANCH   3  11
HETATM   11  C6  UNL     1      25.307  -0.684  54.193  1.00  0.00     0.151 C 
BRANCH  11  12
HETATM   12  C7  UNL     1      26.715  -0.653  53.812  1.00  0.00    -0.010 C 
HETATM   13  C8  UNL     1      27.805  -0.965  53.113  1.00  0.00    -0.010 C 
BRANCH  13  14
HETATM   14  C9  UNL     1      29.216  -0.400  53.397  1.00  0.00     0.150 C 
BRANCH  14  15
HETATM   15  N3  UNL     1      28.909   1.041  53.477  1.00  0.00    -0.376 N 
HETATM   16  C10 UNL     1      28.607   2.434  53.538  1.00  0.00     0.087 A 
HETATM   17  C11 UNL     1      29.413   2.021  54.494  1.00  0.00     0.150 A 
ENDBRANCH  14  15
ENDBRANCH  13  14
ENDBRANCH  11  12
ENDBRANCH   3  11
BRANCH   1  18
HETATM   18  N1  UNL     1      24.659   3.071  51.578  1.00  0.00    -0.324 N 
HETATM   19  C3  UNL     1      24.532   3.345  50.207  1.00  0.00     0.221 C 
HETATM   20  O1  UNL     1      23.774   2.894  49.303  1.00  0.00    -0.273 OA
HETATM   21  H6  UNL     1      25.376   3.617  52.116  1.00  0.00     0.169 HD
BRANCH  19  22
HETATM   22  C2  UNL     1      25.461   4.382  49.641  1.00  0.00     0.098 C 
HETATM   23  C1  UNL     1      26.822   3.862  49.330  1.00  0.00     0.014 C 
ENDBRANCH  19  22
ENDBRANCH   1  18
BRANCH   9  24
HETATM   24  O2  UNL     1      21.724   3.074  52.303  1.00  0.00    -0.352 OA
HETATM   25  C16 UNL     1      20.753   3.265  51.312  1.00  0.00     0.210 C 
ENDBRANCH   9  24
TORSDOF 7
ENDMDL
MODEL 4
REMARK VINA RESULT:      -6.4      2.695      7.371
REMARK  7 active torsions:
REMARK  status: ('A' for Active; 'I' for Inactive)
REMARK    1  A    between atoms: C2_2  and  C3_3 
REMARK       I    between atoms: C3_3  and  N1_5 
REMARK    2  A    between atoms: N1_5  and  C4_6 
REMARK    3  A    between atoms: N2_8  and  C6_9 
REMARK    4  A    between atoms: C6_9  and  C7_10 
REMARK    5  A    between atoms: C8_11  and  C9_12 
REMARK    6  A    between atoms: C9_12  and  N3_13 
REMARK    7  A    between atoms: C15_21  and  O2_22 
ROOT
HETATM    1  C4  UNL     1      26.039   0.936  52.287  1.00  0.00     0.086 C 
HETATM    2  C5  UNL     1      26.097   2.022  51.470  1.00  0.00     0.120 C 
HETATM    3  N2  UNL     1      24.858   2.653  51.055  1.00  0.00    -0.358 N 
HETATM    4  C12 UNL     1      23.701   2.531  51.904  1.00  0.00     0.241 C 
HETATM    5  N4  UNL     1      22.466   2.318  51.142  1.00  0.00    -0.358 N 
HETATM    6  C13 UNL     1      21.667   1.720  52.192  1.00  0.00     0.205 C 
HETATM    7  N5  UNL     1      22.464   1.122  52.979  1.00  0.00    -0.242 NA
HETATM    8  C14 UNL     1      23.798   1.216  52.613  1.00  0.00     0.113 C 
HETATM    9  C15 UNL     1      24.812   0.455  52.915  1.00  0.00     0.125 C 
HETATM   10  H17 UNL     1      21.947   2.411  50.219  1.00  0.00     0.162 HD
ENDROOT
BRANCH   3  11
HETATM   11  C6  UNL     1      24.770   3.247  49.762  1.00  0.00     0.151 C 
BRANCH  11  12
HETATM   12  C7  UNL     1      25.872   4.103  49.339  1.00  0.00    -0.010 C 
HETATM   13  C8  UNL     1      27.128   4.429  49.035  1.00  0.00    -0.010 C 
BRANCH  13  14
HETATM   14  C9  UNL     1      27.582   5.837  48.587  1.00  0.00     0.150 C 
BRANCH  14  15
HETATM   15  N3  UNL     1      28.971   5.547  48.184  1.00  0.00    -0.376 N 
HETATM   16  C10 UNL     1      30.311   5.250  47.792  1.00  0.00     0.087 A 
HETATM   17  C11 UNL     1      30.195   6.353  48.501  1.00  0.00     0.150 A 
ENDBRANCH  14  15
ENDBRANCH  13  14
ENDBRANCH  11  12
ENDBRANCH   3  11
BRANCH   1  18
HETATM   18  N1  UNL     1      27.449   0.607  52.449  1.00  0.00    -0.324 N 
HETATM   19  C3  UNL     1      28.172   0.704  53.648  1.00  0.00     0.221 C 
HETATM   20  O1  UNL     1      27.856   1.052  54.821  1.00  0.00    -0.273 OA
HETATM   21  H6  UNL     1      27.963   0.263  51.601  1.00  0.00     0.169 HD
BRANCH  19  22
HETATM   22  C2  UNL     1      29.624   0.325  53.588  1.00  0.00     0.098 C 
HETATM   23  C1  UNL     1      29.862  -1.145  53.617  1.00  0.00     0.014 C 
ENDBRANCH  19  22
ENDBRANCH   1  18
BRANCH   9  24
HETATM   24  O2  UNL     1      24.987  -0.663  53.661  1.00  0.00    -0.352 OA
HETATM   25  C16 UNL     1      24.797  -0.861  55.035  1.00  0.00     0.210 C 
ENDBRANCH   9  24
TORSDOF 7
ENDMDL
MODEL 5
REMARK VINA RESULT:      -6.3      2.645      6.740
REMARK  7 active torsions:
REMARK  status: ('A' for Active; 'I' for Inactive)
REMARK    1  A    between atoms: C2_2  and  C3_3 
REMARK       I    between atoms: C3_3  and  N1_5 
REMARK    2  A    between atoms: N1_5  and  C4_6 
REMARK    3  A    between atoms: N2_8  and  C6_9 
REMARK    4  A    between atoms: C6_9  and  C7_10 
REMARK    5  A    between atoms: C8_11  and  C9_12 
REMARK    6  A    between atoms: C9_12  and  N3_13 
REMARK    7  A    between atoms: C15_21  and  O2_22 
ROOT
HETATM    1  C4  UNL     1      25.835   0.709  52.533  1.00  0.00     0.086 C 
HETATM    2  C5  UNL     1      25.823   1.775  51.689  1.00  0.00     0.120 C 
HETATM    3  N2  UNL     1      24.549   2.368  51.327  1.00  0.00    -0.358 N 
HETATM    4  C12 UNL     1      23.443   2.242  52.240  1.00  0.00     0.241 C 
HETATM    5  N4  UNL     1      22.173   1.982  51.552  1.00  0.00    -0.358 N 
HETATM    6  C13 UNL     1      21.446   1.394  52.658  1.00  0.00     0.205 C 
HETATM    7  N5  UNL     1      22.299   0.834  53.415  1.00  0.00    -0.242 NA
HETATM    8  C14 UNL     1      23.609   0.948  52.975  1.00  0.00     0.113 C 
HETATM    9  C15 UNL     1      24.655   0.217  53.239  1.00  0.00     0.125 C 
HETATM   10  H17 UNL     1      21.604   2.041  50.657  1.00  0.00     0.162 HD
ENDROOT
BRANCH   3  11
HETATM   11  C6  UNL     1      24.377   2.927  50.027  1.00  0.00     0.151 C 
BRANCH  11  12
HETATM   12  C7  UNL     1      25.168   4.106  49.691  1.00  0.00    -0.010 C 
HETATM   13  C8  UNL     1      26.234   4.796  49.291  1.00  0.00    -0.010 C 
BRANCH  13  14
HETATM   14  C9  UNL     1      26.293   6.339  49.200  1.00  0.00     0.150 C 
BRANCH  14  15
HETATM   15  N3  UNL     1      25.265   6.698  50.195  1.00  0.00    -0.376 N 
HETATM   16  C10 UNL     1      24.269   7.030  51.162  1.00  0.00     0.087 A 
HETATM   17  C11 UNL     1      24.389   7.916  50.195  1.00  0.00     0.150 A 
ENDBRANCH  14  15
ENDBRANCH  13  14
ENDBRANCH  11  12
ENDBRANCH   3  11
BRANCH   1  18
HETATM   18  N1  UNL     1      27.258   0.416  52.626  1.00  0.00    -0.324 N 
HETATM   19  C3  UNL     1      28.036   0.532  53.789  1.00  0.00     0.221 C 
HETATM   20  O1  UNL     1      27.770   0.873  54.976  1.00  0.00    -0.273 OA
HETATM   21  H6  UNL     1      27.739   0.085  51.754  1.00  0.00     0.169 HD
BRANCH  19  22
HETATM   22  C2  UNL     1      29.494   0.190  53.658  1.00  0.00     0.098 C 
HETATM   23  C1  UNL     1      29.756  -1.270  53.515  1.00  0.00     0.014 C 
ENDBRANCH  19  22
ENDBRANCH   1  18
BRANCH   9  24
HETATM   24  O2  UNL     1      24.897  -0.876  54.002  1.00  0.00    -0.352 OA
HETATM   25  C16 UNL     1      24.694  -1.074  55.374  1.00  0.00     0.210 C 
ENDBRANCH   9  24
TORSDOF 7
ENDMDL
MODEL 6
REMARK VINA RESULT:      -6.1      1.985      3.750
REMARK  7 active torsions:
REMARK  status: ('A' for Active; 'I' for Inactive)
REMARK    1  A    between atoms: C2_2  and  C3_3 
REMARK       I    between atoms: C3_3  and  N1_5 
REMARK    2  A    between atoms: N1_5  and  C4_6 
REMARK    3  A    between atoms: N2_8  and  C6_9 
REMARK    4  A    between atoms: C6_9  and  C7_10 
REMARK    5  A    between atoms: C8_11  and  C9_12 
REMARK    6  A    between atoms: C9_12  and  N3_13 
REMARK    7  A    between atoms: C15_21  and  O2_22 
ROOT
HETATM    1  C4  UNL     1      25.570   2.893  51.518  1.00  0.00     0.086 C 
HETATM    2  C5  UNL     1      24.238   2.681  51.337  1.00  0.00     0.120 C 
HETATM    3  N2  UNL     1      23.624   1.519  51.950  1.00  0.00    -0.358 N 
HETATM    4  C12 UNL     1      24.220   0.968  53.140  1.00  0.00     0.241 C 
HETATM    5  N4  UNL     1      24.213  -0.499  53.144  1.00  0.00    -0.358 N 
HETATM    6  C13 UNL     1      25.285  -0.716  54.094  1.00  0.00     0.205 C 
HETATM    7  N5  UNL     1      26.075   0.273  54.004  1.00  0.00    -0.242 NA
HETATM    8  C14 UNL     1      25.694   1.220  53.065  1.00  0.00     0.113 C 
HETATM    9  C15 UNL     1      26.400   2.114  52.434  1.00  0.00     0.125 C 
HETATM   10  H17 UNL     1      23.787  -1.401  52.776  1.00  0.00     0.162 HD
ENDROOT
BRANCH   3  11
HETATM   11  C6  UNL     1      22.544   0.863  51.289  1.00  0.00     0.151 C 
BRANCH  11  12
HETATM   12  C7  UNL     1      21.463   0.344  52.119  1.00  0.00    -0.010 C 
HETATM   13  C8  UNL     1      20.231   0.258  52.617  1.00  0.00    -0.010 C 
BRANCH  13  14
HETATM   14  C9  UNL     1      19.792  -0.761  53.694  1.00  0.00     0.150 C 
BRANCH  14  15
HETATM   15  N3  UNL     1      18.411  -1.029  53.251  1.00  0.00    -0.376 N 
HETATM   16  C10 UNL     1      17.071  -1.273  52.823  1.00  0.00     0.087 A 
HETATM   17  C11 UNL     1      17.642  -2.308  53.402  1.00  0.00     0.150 A 
ENDBRANCH  14  15
ENDBRANCH  13  14
ENDBRANCH  11  12
ENDBRANCH   3  11
BRANCH   1  18
HETATM   18  N1  UNL     1      25.786   4.113  50.754  1.00  0.00    -0.324 N 
HETATM   19  C3  UNL     1      26.588   4.220  49.606  1.00  0.00     0.221 C 
HETATM   20  O1  UNL     1      27.276   3.386  48.953  1.00  0.00    -0.273 OA
HETATM   21  H6  UNL     1      25.297   4.981  51.084  1.00  0.00     0.169 HD
BRANCH  19  22
HETATM   22  C2  UNL     1      26.683   5.582  48.978  1.00  0.00     0.098 C 
HETATM   23  C1  UNL     1      27.992   5.849  48.320  1.00  0.00     0.014 C 
ENDBRANCH  19  22
ENDBRANCH   1  18
BRANCH   9  24
HETATM   24  O2  UNL     1      27.704   2.482  52.427  1.00  0.00    -0.352 OA
HETATM   25  C16 UNL     1      28.626   2.531  53.480  1.00  0.00     0.210 C 
ENDBRANCH   9  24
TORSDOF 7
ENDMDL
MODEL 7
REMARK VINA RESULT:      -5.9      2.409      5.770
REMARK  7 active torsions:
REMARK  status: ('A' for Active; 'I' for Inactive)
REMARK    1  A    between atoms: C2_2  and  C3_3 
REMARK       I    between atoms: C3_3  and  N1_5 
REMARK    2  A    between atoms: N1_5  and  C4_6 
REMARK    3  A    between atoms: N2_8  and  C6_9 
REMARK    4  A    between atoms: C6_9  and  C7_10 
REMARK    5  A    between atoms: C8_11  and  C9_12 
REMARK    6  A    between atoms: C9_12  and  N3_13 
REMARK    7  A    between atoms: C15_21  and  O2_22 
ROOT
HETATM    1  C4  UNL     1      22.114   1.814  52.321  1.00  0.00     0.086 C 
HETATM    2  C5  UNL     1      23.439   1.638  52.572  1.00  0.00     0.120 C 
HETATM    3  N2  UNL     1      24.349   2.743  52.339  1.00  0.00    -0.358 N 
HETATM    4  C12 UNL     1      23.840   4.088  52.420  1.00  0.00     0.241 C 
HETATM    5  N4  UNL     1      24.394   4.962  51.380  1.00  0.00    -0.358 N 
HETATM    6  C13 UNL     1      23.358   5.974  51.375  1.00  0.00     0.205 C 
HETATM    7  N5  UNL     1      22.276   5.408  51.725  1.00  0.00    -0.242 NA
HETATM    8  C14 UNL     1      22.406   4.053  51.992  1.00  0.00     0.113 C 
HETATM    9  C15 UNL     1      21.514   3.103  51.987  1.00  0.00     0.125 C 
HETATM   10  H17 UNL     1      25.174   5.154  50.684  1.00  0.00     0.162 HD
ENDROOT
BRANCH   3  11
HETATM   11  C6  UNL     1      25.678   2.479  51.896  1.00  0.00     0.151 C 
BRANCH  11  12
HETATM   12  C7  UNL     1      26.223   1.151  52.154  1.00  0.00    -0.010 C 
HETATM   13  C8  UNL     1      26.635  -0.083  51.871  1.00  0.00    -0.010 C 
BRANCH  13  14
HETATM   14  C9  UNL     1      27.179  -1.085  52.916  1.00  0.00     0.150 C 
BRANCH  14  15
HETATM   15  N3  UNL     1      28.390  -0.367  53.358  1.00  0.00    -0.376 N 
HETATM   16  C10 UNL     1      29.569   0.323  53.772  1.00  0.00     0.087 A 
HETATM   17  C11 UNL     1      28.732   0.061  54.754  1.00  0.00     0.150 A 
ENDBRANCH  14  15
ENDBRANCH  13  14
ENDBRANCH  11  12
ENDBRANCH   3  11
BRANCH   1  18
HETATM   18  N1  UNL     1      21.569   0.507  52.657  1.00  0.00    -0.324 N 
HETATM   19  C3  UNL     1      20.926   0.181  53.862  1.00  0.00     0.221 C 
HETATM   20  O1  UNL     1      20.644   0.847  54.897  1.00  0.00    -0.273 OA
HETATM   21  H6  UNL     1      21.657  -0.251  51.936  1.00  0.00     0.169 HD
BRANCH  19  22
HETATM   22  C2  UNL     1      20.449  -1.236  54.006  1.00  0.00     0.098 C 
HETATM   23  C1  UNL     1      21.516  -2.189  54.423  1.00  0.00     0.014 C 
ENDBRANCH  19  22
ENDBRANCH   1  18
BRANCH   9  24
HETATM   24  O2  UNL     1      20.182   3.034  51.746  1.00  0.00    -0.352 OA
HETATM   25  C16 UNL     1      19.501   2.773  50.551  1.00  0.00     0.210 C 
ENDBRANCH   9  24
TORSDOF 7
ENDMDL
MODEL 8
REMARK VINA RESULT:      -5.7      2.269      4.897
REMARK  7 active torsions:
REMARK  status: ('A' for Active; 'I' for Inactive)
REMARK    1  A    between atoms: C2_2  and  C3_3 
REMARK       I    between atoms: C3_3  and  N1_5 
REMARK    2  A    between atoms: N1_5  and  C4_6 
REMARK    3  A    between atoms: N2_8  and  C6_9 
REMARK    4  A    between atoms: C6_9  and  C7_10 
REMARK    5  A    between atoms: C8_11  and  C9_12 
REMARK    6  A    between atoms: C9_12  and  N3_13 
REMARK    7  A    between atoms: C15_21  and  O2_22 
ROOT
HETATM    1  C4  UNL     1      22.941   0.502  52.458  1.00  0.00     0.086 C 
HETATM    2  C5  UNL     1      23.747   1.147  51.571  1.00  0.00     0.120 C 
HETATM    3  N2  UNL     1      25.141   1.352  51.913  1.00  0.00    -0.358 N 
HETATM    4  C12 UNL     1      25.773   0.435  52.825  1.00  0.00     0.241 C 
HETATM    5  N4  UNL     1      26.670   1.110  53.769  1.00  0.00    -0.358 N 
HETATM    6  C13 UNL     1      26.692   0.098  54.806  1.00  0.00     0.205 C 
HETATM    7  N5  UNL     1      25.583  -0.517  54.756  1.00  0.00    -0.242 NA
HETATM    8  C14 UNL     1      24.722  -0.056  53.771  1.00  0.00     0.113 C 
HETATM    9  C15 UNL     1      23.426  -0.150  53.672  1.00  0.00     0.125 C 
HETATM   10  H17 UNL     1      27.266   1.960  53.997  1.00  0.00     0.162 HD
ENDROOT
BRANCH   3  11
HETATM   11  C6  UNL     1      25.810   2.528  51.461  1.00  0.00     0.151 C 
BRANCH  11  12
HETATM   12  C7  UNL     1      25.140   3.337  50.450  1.00  0.00    -0.010 C 
HETATM   13  C8  UNL     1      25.018   4.265  49.502  1.00  0.00    -0.010 C 
BRANCH  13  14
HETATM   14  C9  UNL     1      23.698   4.600  48.770  1.00  0.00     0.150 C 
BRANCH  14  15
HETATM   15  N3  UNL     1      22.753   4.547  49.902  1.00  0.00    -0.376 N 
HETATM   16  C10 UNL     1      21.851   4.499  51.006  1.00  0.00     0.087 A 
HETATM   17  C11 UNL     1      21.399   3.901  49.924  1.00  0.00     0.150 A 
ENDBRANCH  14  15
ENDBRANCH  13  14
ENDBRANCH  11  12
ENDBRANCH   3  11
BRANCH   1  18
HETATM   18  N1  UNL     1      21.661   0.515  51.765  1.00  0.00    -0.324 N 
HETATM   19  C3  UNL     1      20.507   1.183  52.205  1.00  0.00     0.221 C 
HETATM   20  O1  UNL     1      20.257   1.904  53.211  1.00  0.00    -0.273 OA
HETATM   21  H6  UNL     1      21.599  -0.013  50.860  1.00  0.00     0.169 HD
BRANCH  19  22
HETATM   22  C2  UNL     1      19.286   1.052  51.339  1.00  0.00     0.098 C 
HETATM   23  C1  UNL     1      18.455  -0.145  51.651  1.00  0.00     0.014 C 
ENDBRANCH  19  22
ENDBRANCH   1  18
BRANCH   9  24
HETATM   24  O2  UNL     1      22.441  -0.700  54.421  1.00  0.00    -0.352 OA
HETATM   25  C16 UNL     1      21.698  -1.868  54.207  1.00  0.00     0.210 C 
ENDBRANCH   9  24
TORSDOF 7
ENDMDL
MODEL 9
REMARK VINA RESULT:      -5.6      2.549      5.143
REMARK  7 active torsions:
REMARK  status: ('A' for Active; 'I' for Inactive)
REMARK    1  A    between atoms: C2_2  and  C3_3 
REMARK       I    between atoms: C3_3  and  N1_5 
REMARK    2  A    between atoms: N1_5  and  C4_6 
REMARK    3  A    between atoms: N2_8  and  C6_9 
REMARK    4  A    between atoms: C6_9  and  C7_10 
REMARK    5  A    between atoms: C8_11  and  C9_12 
REMARK    6  A    between atoms: C9_12  and  N3_13 
REMARK    7  A    between atoms: C15_21  and  O2_22 
ROOT
HETATM    1  C4  UNL     1      23.352   3.560  49.641  1.00  0.00     0.086 C 
HETATM    2  C5  UNL     1      24.225   2.943  50.482  1.00  0.00     0.120 C 
HETATM    3  N2  UNL     1      25.615   3.358  50.476  1.00  0.00    -0.358 N 
HETATM    4  C12 UNL     1      25.934   4.703  50.071  1.00  0.00     0.241 C 
HETATM    5  N4  UNL     1      27.144   4.767  49.243  1.00  0.00    -0.358 N 
HETATM    6  C13 UNL     1      26.890   6.035  48.591  1.00  0.00     0.205 C 
HETATM    7  N5  UNL     1      25.630   6.179  48.522  1.00  0.00    -0.242 NA
HETATM    8  C14 UNL     1      24.909   5.126  49.066  1.00  0.00     0.113 C 
HETATM    9  C15 UNL     1      23.686   4.736  48.842  1.00  0.00     0.125 C 
HETATM   10  H17 UNL     1      28.058   4.315  48.944  1.00  0.00     0.162 HD
ENDROOT
BRANCH   3  11
HETATM   11  C6  UNL     1      26.638   2.397  50.727  1.00  0.00     0.151 C 
BRANCH  11  12
HETATM   12  C7  UNL     1      26.394   1.412  51.775  1.00  0.00    -0.010 C 
HETATM   13  C8  UNL     1      25.906   0.303  52.328  1.00  0.00    -0.010 C 
BRANCH  13  14
HETATM   14  C9  UNL     1      26.132  -0.112  53.800  1.00  0.00     0.150 C 
BRANCH  14  15
HETATM   15  N3  UNL     1      27.598  -0.276  53.803  1.00  0.00    -0.376 N 
HETATM   16  C10 UNL     1      29.015  -0.446  53.794  1.00  0.00     0.087 A 
HETATM   17  C11 UNL     1      28.555   0.138  54.881  1.00  0.00     0.150 A 
ENDBRANCH  14  15
ENDBRANCH  13  14
ENDBRANCH  11  12
ENDBRANCH   3  11
BRANCH   1  18
HETATM   18  N1  UNL     1      22.108   2.863  49.936  1.00  0.00    -0.324 N 
HETATM   19  C3  UNL     1      21.560   1.821  49.171  1.00  0.00     0.221 C 
HETATM   20  O1  UNL     1      21.940   1.227  48.123  1.00  0.00    -0.273 OA
HETATM   21  H6  UNL     1      21.583   3.161  50.795  1.00  0.00     0.169 HD
BRANCH  19  22
HETATM   22  C2  UNL     1      20.256   1.251  49.652  1.00  0.00     0.098 C 
HETATM   23  C1  UNL     1      20.365   0.502  50.935  1.00  0.00     0.014 C 
ENDBRANCH  19  22
ENDBRANCH   1  18
BRANCH   9  24
HETATM   24  O2  UNL     1      22.670   5.161  48.053  1.00  0.00    -0.352 OA
HETATM   25  C16 UNL     1      22.051   6.415  47.986  1.00  0.00     0.210 C 
ENDBRANCH   9  24
TORSDOF 7
ENDMDL
