MODEL 1
REMARK VINA RESULT:      -8.2      0.000      0.000
REMARK  5 active torsions:
REMARK  status: ('A' for Active; 'I' for Inactive)
REMARK    1  A    between atoms: C2_2  and  C3_3 
REMARK    2  A    between atoms: C3_3  and  N1_4 
REMARK    3  A    between atoms: C5_7  and  C6_8 
REMARK    4  A    between atoms: C12_15  and  C13_16 
REMARK    5  A    between atoms: C16_20  and  N4_21 
ROOT
HETATM    1  N1  UNL     1      25.394   2.510  51.051  1.00  0.00    -0.334 N 
HETATM    2  C4  UNL     1      24.199   2.996  50.650  1.00  0.00     0.211 A 
HETATM    3  N2  UNL     1      23.196   2.285  51.233  1.00  0.00    -0.241 NA
HETATM    4  C5  UNL     1      23.766   1.327  52.019  1.00  0.00     0.097 A 
HETATM    5  C12 UNL     1      25.138   1.477  51.899  1.00  0.00     0.095 A 
ENDROOT
BRANCH   5   6
HETATM    6  C13 UNL     1      26.028   0.586  52.632  1.00  0.00     0.106 A 
HETATM    7  C14 UNL     1      26.567   1.140  53.792  1.00  0.00     0.054 A 
HETATM    8  C15 UNL     1      27.420   0.438  54.594  1.00  0.00     0.139 A 
HETATM    9  N3  UNL     1      27.733  -0.825  54.230  1.00  0.00    -0.075 NA
HETATM   10  C16 UNL     1      27.199  -1.354  53.094  1.00  0.00     0.720 A 
HETATM   11  N5  UNL     1      26.346  -0.666  52.284  1.00  0.00    -0.061 NA
BRANCH  10  12
HETATM   12  N4  UNL     1      27.570  -2.687  52.770  1.00  0.00    -0.231 N 
HETATM   13  H13 UNL     1      27.610  -3.553  53.360  1.00  0.00     0.174 HD
HETATM   14  H14 UNL     1      27.861  -2.871  51.773  1.00  0.00     0.174 HD
ENDBRANCH  10  12
ENDBRANCH   5   6
BRANCH   1  15
HETATM   15  C3  UNL     1      26.728   2.925  50.713  1.00  0.00     0.156 C 
BRANCH  15  16
HETATM   16  C2  UNL     1      26.747   3.597  49.389  1.00  0.00    -0.017 C 
HETATM   17  C1  UNL     1      27.130   4.770  48.881  1.00  0.00     0.008 C 
ENDBRANCH  15  16
ENDBRANCH   1  15
BRANCH   4  18
HETATM   18  C6  UNL     1      22.924   0.407  52.773  1.00  0.00    -0.005 A 
HETATM   19  C7  UNL     1      23.351  -0.327  53.861  1.00  0.00     0.017 A 
HETATM   20  C8  UNL     1      22.457  -1.167  54.495  1.00  0.00     0.043 A 
HETATM   21  C9  UNL     1      21.164  -1.249  54.022  1.00  0.00     0.116 A 
HETATM   22  F1  UNL     1      20.304  -2.086  54.667  1.00  0.00    -0.206 F 
HETATM   23  C10 UNL     1      20.722  -0.523  52.938  1.00  0.00     0.043 A 
HETATM   24  C11 UNL     1      21.615   0.311  52.312  1.00  0.00     0.017 A 
ENDBRANCH   4  18
TORSDOF 5
ENDMDL
MODEL 2
REMARK VINA RESULT:      -8.0      2.999      5.930
REMARK  5 active torsions:
REMARK  status: ('A' for Active; 'I' for Inactive)
REMARK    1  A    between atoms: C2_2  and  C3_3 
REMARK    2  A    between atoms: C3_3  and  N1_4 
REMARK    3  A    between atoms: C5_7  and  C6_8 
REMARK    4  A    between atoms: C12_15  and  C13_16 
REMARK    5  A    between atoms: C16_20  and  N4_21 
ROOT
HETATM    1  N1  UNL     1      21.824   0.175  53.685  1.00  0.00    -0.334 N 
HETATM    2  C4  UNL     1      22.039  -0.972  54.366  1.00  0.00     0.211 A 
HETATM    3  N2  UNL     1      23.377  -1.200  54.468  1.00  0.00    -0.241 NA
HETATM    4  C5  UNL     1      24.024  -0.177  53.838  1.00  0.00     0.097 A 
HETATM    5  C12 UNL     1      23.045   0.675  53.353  1.00  0.00     0.095 A 
ENDROOT
BRANCH   5   6
HETATM    6  C13 UNL     1      23.431   1.876  52.624  1.00  0.00     0.106 A 
HETATM    7  C14 UNL     1      23.740   1.659  51.283  1.00  0.00     0.054 A 
HETATM    8  C15 UNL     1      24.121   2.679  50.459  1.00  0.00     0.139 A 
HETATM    9  N3  UNL     1      24.190   3.922  50.983  1.00  0.00    -0.075 NA
HETATM   10  C16 UNL     1      23.885   4.120  52.296  1.00  0.00     0.720 A 
HETATM   11  N5  UNL     1      23.504   3.112  53.131  1.00  0.00    -0.061 NA
BRANCH  10  12
HETATM   12  N4  UNL     1      23.979   5.452  52.783  1.00  0.00    -0.231 N 
HETATM   13  H13 UNL     1      24.626   6.235  52.525  1.00  0.00     0.174 HD
HETATM   14  H14 UNL     1      23.294   5.733  53.535  1.00  0.00     0.174 HD
ENDBRANCH  10  12
ENDBRANCH   5   6
BRANCH   1  15
HETATM   15  C3  UNL     1      20.595   0.827  53.326  1.00  0.00     0.156 C 
BRANCH  15  16
HETATM   16  C2  UNL     1      20.103   0.332  52.015  1.00  0.00    -0.017 C 
HETATM   17  C1  UNL     1      20.184   0.687  50.731  1.00  0.00     0.008 C 
ENDBRANCH  15  16
ENDBRANCH   1  15
BRANCH   4  18
HETATM   18  C6  UNL     1      25.480  -0.156  53.789  1.00  0.00    -0.005 A 
HETATM   19  C7  UNL     1      26.278   0.588  54.633  1.00  0.00     0.017 A 
HETATM   20  C8  UNL     1      27.650   0.525  54.488  1.00  0.00     0.043 A 
HETATM   21  C9  UNL     1      28.182  -0.281  53.502  1.00  0.00     0.116 A 
HETATM   22  F1  UNL     1      29.539  -0.324  53.381  1.00  0.00    -0.206 F 
HETATM   23  C10 UNL     1      27.400  -1.030  52.652  1.00  0.00     0.043 A 
HETATM   24  C11 UNL     1      26.037  -0.963  52.801  1.00  0.00     0.017 A 
ENDBRANCH   4  18
TORSDOF 5
ENDMDL
MODEL 3
REMARK VINA RESULT:      -7.8      1.694      4.483
REMARK  5 active torsions:
REMARK  status: ('A' for Active; 'I' for Inactive)
REMARK    1  A    between atoms: C2_2  and  C3_3 
REMARK    2  A    between atoms: C3_3  and  N1_4 
REMARK    3  A    between atoms: C5_7  and  C6_8 
REMARK    4  A    between atoms: C12_15  and  C13_16 
REMARK    5  A    between atoms: C16_20  and  N4_21 
ROOT
HETATM    1  N1  UNL     1      26.761   0.767  53.886  1.00  0.00    -0.334 N 
HETATM    2  C4  UNL     1      26.696  -0.420  54.526  1.00  0.00     0.211 A 
HETATM    3  N2  UNL     1      25.418  -0.887  54.497  1.00  0.00    -0.241 NA
HETATM    4  C5  UNL     1      24.656   0.023  53.825  1.00  0.00     0.097 A 
HETATM    5  C12 UNL     1      25.504   1.052  53.447  1.00  0.00     0.095 A 
ENDROOT
BRANCH   5   6
HETATM    6  C13 UNL     1      24.975   2.187  52.702  1.00  0.00     0.106 A 
HETATM    7  C14 UNL     1      25.248   2.155  51.336  1.00  0.00     0.054 A 
HETATM    8  C15 UNL     1      24.824   3.143  50.495  1.00  0.00     0.139 A 
HETATM    9  N3  UNL     1      24.122   4.167  51.028  1.00  0.00    -0.075 NA
HETATM   10  C16 UNL     1      23.861   4.185  52.365  1.00  0.00     0.720 A 
HETATM   11  N5  UNL     1      24.278   3.206  53.217  1.00  0.00    -0.061 NA
BRANCH  10  12
HETATM   12  N4  UNL     1      23.117   5.291  52.859  1.00  0.00    -0.231 N 
HETATM   13  H13 UNL     1      22.762   6.152  52.378  1.00  0.00     0.174 HD
HETATM   14  H14 UNL     1      22.862   5.274  53.883  1.00  0.00     0.174 HD
ENDBRANCH  10  12
ENDBRANCH   5   6
BRANCH   1  15
HETATM   15  C3  UNL     1      27.879   1.640  53.655  1.00  0.00     0.156 C 
BRANCH  15  16
HETATM   16  C2  UNL     1      29.151   0.968  54.020  1.00  0.00    -0.017 C 
HETATM   17  C1  UNL     1      29.969   0.049  53.500  1.00  0.00     0.008 C 
ENDBRANCH  15  16
ENDBRANCH   1  15
BRANCH   4  18
HETATM   18  C6  UNL     1      23.231  -0.216  53.636  1.00  0.00    -0.005 A 
HETATM   19  C7  UNL     1      22.516   0.174  52.523  1.00  0.00     0.017 A 
HETATM   20  C8  UNL     1      21.166  -0.110  52.459  1.00  0.00     0.043 A 
HETATM   21  C9  UNL     1      20.572  -0.776  53.512  1.00  0.00     0.116 A 
HETATM   22  F1  UNL     1      19.239  -1.043  53.423  1.00  0.00    -0.206 F 
HETATM   23  C10 UNL     1      21.272  -1.172  54.630  1.00  0.00     0.043 A 
HETATM   24  C11 UNL     1      22.613  -0.887  54.687  1.00  0.00     0.017 A 
ENDBRANCH   4  18
TORSDOF 5
ENDMDL
MODEL 4
REMARK VINA RESULT:      -7.6      3.166      6.103
REMARK  5 active torsions:
REMARK  status: ('A' for Active; 'I' for Inactive)
REMARK    1  A    between atoms: C2_2  and  C3_3 
REMARK    2  A    between atoms: C3_3  and  N1_4 
REMARK    3  A    between atoms: C5_7  and  C6_8 
REMARK    4  A    between atoms: C12_15  and  C13_16 
REMARK    5  A    between atoms: C16_20  and  N4_21 
ROOT
HETATM    1  N1  UNL     1      21.602   1.549  52.812  1.00  0.00    -0.334 N 
HETATM    2  C4  UNL     1      21.714   0.397  53.510  1.00  0.00     0.211 A 
HETATM    3  N2  UNL     1      23.029   0.104  53.701  1.00  0.00    -0.241 NA
HETATM    4  C5  UNL     1      23.766   1.089  53.112  1.00  0.00     0.097 A 
HETATM    5  C12 UNL     1      22.866   1.986  52.561  1.00  0.00     0.095 A 
ENDROOT
BRANCH   5   6
HETATM    6  C13 UNL     1      23.359   3.161  51.855  1.00  0.00     0.106 A 
HETATM    7  C14 UNL     1      23.662   2.941  50.513  1.00  0.00     0.054 A 
HETATM    8  C15 UNL     1      24.136   3.938  49.710  1.00  0.00     0.139 A 
HETATM    9  N3  UNL     1      24.304   5.162  50.256  1.00  0.00    -0.075 NA
HETATM   10  C16 UNL     1      24.003   5.364  51.569  1.00  0.00     0.720 A 
HETATM   11  N5  UNL     1      23.529   4.379  52.383  1.00  0.00    -0.061 NA
BRANCH  10  12
HETATM   12  N4  UNL     1      24.203   6.676  52.079  1.00  0.00    -0.231 N 
HETATM   13  H13 UNL     1      23.755   7.589  51.825  1.00  0.00     0.174 HD
HETATM   14  H14 UNL     1      24.919   6.783  52.846  1.00  0.00     0.174 HD
ENDBRANCH  10  12
ENDBRANCH   5   6
BRANCH   1  15
HETATM   15  C3  UNL     1      20.433   2.259  52.370  1.00  0.00     0.156 C 
BRANCH  15  16
HETATM   16  C2  UNL     1      19.978   1.749  51.052  1.00  0.00    -0.017 C 
HETATM   17  C1  UNL     1      19.554   0.595  50.531  1.00  0.00     0.008 C 
ENDBRANCH  15  16
ENDBRANCH   1  15
BRANCH   4  18
HETATM   18  C6  UNL     1      25.222   1.037  53.159  1.00  0.00    -0.005 A 
HETATM   19  C7  UNL     1      26.018   2.009  53.729  1.00  0.00     0.017 A 
HETATM   20  C8  UNL     1      27.390   1.847  53.712  1.00  0.00     0.043 A 
HETATM   21  C9  UNL     1      27.923   0.718  53.125  1.00  0.00     0.116 A 
HETATM   22  F1  UNL     1      29.279   0.583  53.123  1.00  0.00    -0.206 F 
HETATM   23  C10 UNL     1      27.142  -0.262  52.553  1.00  0.00     0.043 A 
HETATM   24  C11 UNL     1      25.780  -0.095  52.573  1.00  0.00     0.017 A 
ENDBRANCH   4  18
TORSDOF 5
ENDMDL
MODEL 5
REMARK VINA RESULT:      -7.4      2.976      5.174
REMARK  5 active torsions:
REMARK  status: ('A' for Active; 'I' for Inactive)
REMARK    1  A    between atoms: C2_2  and  C3_3 
REMARK    2  A    between atoms: C3_3  and  N1_4 
REMARK    3  A    between atoms: C5_7  and  C6_8 
REMARK    4  A    between atoms: C12_15  and  C13_16 
REMARK    5  A    between atoms: C16_20  and  N4_21 
ROOT
HETATM    1  N1  UNL     1      24.364   2.029  51.587  1.00  0.00    -0.334 N 
HETATM    2  C4  UNL     1      25.328   2.556  50.802  1.00  0.00     0.211 A 
HETATM    3  N2  UNL     1      26.526   1.984  51.102  1.00  0.00    -0.241 NA
HETATM    4  C5  UNL     1      26.317   1.077  52.100  1.00  0.00     0.097 A 
HETATM    5  C12 UNL     1      24.964   1.113  52.394  1.00  0.00     0.095 A 
ENDROOT
BRANCH   5   6
HETATM    6  C13 UNL     1      24.428   0.242  53.432  1.00  0.00     0.106 A 
HETATM    7  C14 UNL     1      23.140  -0.227  53.180  1.00  0.00     0.054 A 
HETATM    8  C15 UNL     1      22.493  -1.053  54.053  1.00  0.00     0.139 A 
HETATM    9  N3  UNL     1      23.141  -1.410  55.183  1.00  0.00    -0.075 NA
HETATM   10  C16 UNL     1      24.400  -0.945  55.417  1.00  0.00     0.720 A 
HETATM   11  N5  UNL     1      25.059  -0.120  54.555  1.00  0.00    -0.061 NA
BRANCH  10  12
HETATM   12  N4  UNL     1      25.024  -1.360  56.625  1.00  0.00    -0.231 N 
HETATM   13  H13 UNL     1      25.627  -2.191  56.837  1.00  0.00     0.174 HD
HETATM   14  H14 UNL     1      24.875  -0.749  57.472  1.00  0.00     0.174 HD
ENDBRANCH  10  12
ENDBRANCH   5   6
BRANCH   1  15
HETATM   15  C3  UNL     1      22.955   2.308  51.643  1.00  0.00     0.156 C 
BRANCH  15  16
HETATM   16  C2  UNL     1      22.702   3.584  52.360  1.00  0.00    -0.017 C 
HETATM   17  C1  UNL     1      23.393   4.665  52.727  1.00  0.00     0.008 C 
ENDBRANCH  15  16
ENDBRANCH   1  15
BRANCH   4  18
HETATM   18  C6  UNL     1      27.434   0.304  52.628  1.00  0.00    -0.005 A 
HETATM   19  C7  UNL     1      27.538  -1.069  52.549  1.00  0.00     0.017 A 
HETATM   20  C8  UNL     1      28.648  -1.690  53.089  1.00  0.00     0.043 A 
HETATM   21  C9  UNL     1      29.619  -0.917  53.692  1.00  0.00     0.116 A 
HETATM   22  F1  UNL     1      30.703  -1.555  54.216  1.00  0.00    -0.206 F 
HETATM   23  C10 UNL     1      29.531   0.455  53.778  1.00  0.00     0.043 A 
HETATM   24  C11 UNL     1      28.425   1.065  53.240  1.00  0.00     0.017 A 
ENDBRANCH   4  18
TORSDOF 5
ENDMDL
MODEL 6
REMARK VINA RESULT:      -7.1      3.100      5.543
REMARK  5 active torsions:
REMARK  status: ('A' for Active; 'I' for Inactive)
REMARK    1  A    between atoms: C2_2  and  C3_3 
REMARK    2  A    between atoms: C3_3  and  N1_4 
REMARK    3  A    between atoms: C5_7  and  C6_8 
REMARK    4  A    between atoms: C12_15  and  C13_16 
REMARK    5  A    between atoms: C16_20  and  N4_21 
ROOT
HETATM    1  N1  UNL     1      21.608   1.830  50.863  1.00  0.00    -0.334 N 
HETATM    2  C4  UNL     1      21.342   0.640  51.444  1.00  0.00     0.211 A 
HETATM    3  N2  UNL     1      22.393   0.266  52.224  1.00  0.00    -0.241 NA
HETATM    4  C5  UNL     1      23.345   1.240  52.136  1.00  0.00     0.097 A 
HETATM    5  C12 UNL     1      22.844   2.211  51.284  1.00  0.00     0.095 A 
ENDROOT
BRANCH   5   6
HETATM    6  C13 UNL     1      23.643   3.393  50.990  1.00  0.00     0.106 A 
HETATM    7  C14 UNL     1      24.568   3.220  49.962  1.00  0.00     0.054 A 
HETATM    8  C15 UNL     1      25.396   4.230  49.562  1.00  0.00     0.139 A 
HETATM    9  N3  UNL     1      25.293   5.418  50.196  1.00  0.00    -0.075 NA
HETATM   10  C16 UNL     1      24.385   5.574  51.199  1.00  0.00     0.720 A 
HETATM   11  N5  UNL     1      23.552   4.576  51.609  1.00  0.00    -0.061 NA
BRANCH  10  12
HETATM   12  N4  UNL     1      24.329   6.850  51.823  1.00  0.00    -0.231 N 
HETATM   13  H13 UNL     1      23.554   7.330  52.340  1.00  0.00     0.174 HD
HETATM   14  H14 UNL     1      25.202   7.441  51.775  1.00  0.00     0.174 HD
ENDBRANCH  10  12
ENDBRANCH   5   6
BRANCH   1  15
HETATM   15  C3  UNL     1      20.816   2.624  49.964  1.00  0.00     0.156 C 
BRANCH  15  16
HETATM   16  C2  UNL     1      21.022   2.187  48.560  1.00  0.00    -0.017 C 
HETATM   17  C1  UNL     1      22.031   1.769  47.792  1.00  0.00     0.008 C 
ENDBRANCH  15  16
ENDBRANCH   1  15
BRANCH   4  18
HETATM   18  C6  UNL     1      24.593   1.107  52.876  1.00  0.00    -0.005 A 
HETATM   19  C7  UNL     1      25.279   2.162  53.444  1.00  0.00     0.017 A 
HETATM   20  C8  UNL     1      26.455   1.909  54.122  1.00  0.00     0.043 A 
HETATM   21  C9  UNL     1      26.910   0.610  54.212  1.00  0.00     0.116 A 
HETATM   22  F1  UNL     1      28.073   0.389  54.887  1.00  0.00    -0.206 F 
HETATM   23  C10 UNL     1      26.238  -0.454  53.651  1.00  0.00     0.043 A 
HETATM   24  C11 UNL     1      25.069  -0.196  52.978  1.00  0.00     0.017 A 
ENDBRANCH   4  18
TORSDOF 5
ENDMDL
MODEL 7
REMARK VINA RESULT:      -7.0      2.775      4.552
REMARK  5 active torsions:
REMARK  status: ('A' for Active; 'I' for Inactive)
REMARK    1  A    between atoms: C2_2  and  C3_3 
REMARK    2  A    between atoms: C3_3  and  N1_4 
REMARK    3  A    between atoms: C5_7  and  C6_8 
REMARK    4  A    between atoms: C12_15  and  C13_16 
REMARK    5  A    between atoms: C16_20  and  N4_21 
ROOT
HETATM    1  N1  UNL     1      26.559  -0.002  52.436  1.00  0.00    -0.334 N 
HETATM    2  C4  UNL     1      26.981   0.917  51.541  1.00  0.00     0.211 A 
HETATM    3  N2  UNL     1      25.964   1.774  51.250  1.00  0.00    -0.241 NA
HETATM    4  C5  UNL     1      24.875   1.391  51.976  1.00  0.00     0.097 A 
HETATM    5  C12 UNL     1      25.257   0.282  52.713  1.00  0.00     0.095 A 
ENDROOT
BRANCH   5   6
HETATM    6  C13 UNL     1      24.296  -0.363  53.599  1.00  0.00     0.106 A 
HETATM    7  C14 UNL     1      24.804  -0.697  54.852  1.00  0.00     0.054 A 
HETATM    8  C15 UNL     1      24.035  -1.308  55.800  1.00  0.00     0.139 A 
HETATM    9  N3  UNL     1      22.749  -1.583  55.489  1.00  0.00    -0.075 NA
HETATM   10  C16 UNL     1      22.265  -1.250  54.260  1.00  0.00     0.720 A 
HETATM   11  N5  UNL     1      23.021  -0.640  53.303  1.00  0.00    -0.061 NA
BRANCH  10  12
HETATM   12  N4  UNL     1      20.904  -1.567  53.998  1.00  0.00    -0.231 N 
HETATM   13  H13 UNL     1      20.097  -0.959  53.720  1.00  0.00     0.174 HD
HETATM   14  H14 UNL     1      20.626  -2.581  54.090  1.00  0.00     0.174 HD
ENDBRANCH  10  12
ENDBRANCH   5   6
BRANCH   1  15
HETATM   15  C3  UNL     1      27.260  -1.101  53.041  1.00  0.00     0.156 C 
BRANCH  15  16
HETATM   16  C2  UNL     1      28.522  -0.635  53.669  1.00  0.00    -0.017 C 
HETATM   17  C1  UNL     1      29.835  -0.762  53.464  1.00  0.00     0.008 C 
ENDBRANCH  15  16
ENDBRANCH   1  15
BRANCH   4  18
HETATM   18  C6  UNL     1      23.627   2.135  51.866  1.00  0.00    -0.005 A 
HETATM   19  C7  UNL     1      22.538   1.725  51.124  1.00  0.00     0.017 A 
HETATM   20  C8  UNL     1      21.408   2.518  51.098  1.00  0.00     0.043 A 
HETATM   21  C9  UNL     1      21.401   3.698  51.813  1.00  0.00     0.116 A 
HETATM   22  F1  UNL     1      20.274   4.461  51.769  1.00  0.00    -0.206 F 
HETATM   23  C10 UNL     1      22.480   4.121  52.559  1.00  0.00     0.043 A 
HETATM   24  C11 UNL     1      23.600   3.328  52.581  1.00  0.00     0.017 A 
ENDBRANCH   4  18
TORSDOF 5
ENDMDL
MODEL 8
REMARK VINA RESULT:      -6.8      3.460      7.484
REMARK  5 active torsions:
REMARK  status: ('A' for Active; 'I' for Inactive)
REMARK    1  A    between atoms: C2_2  and  C3_3 
REMARK    2  A    between atoms: C3_3  and  N1_4 
REMARK    3  A    between atoms: C5_7  and  C6_8 
REMARK    4  A    between atoms: C12_15  and  C13_16 
REMARK    5  A    between atoms: C16_20  and  N4_21 
ROOT
HETATM    1  N1  UNL     1      23.410   1.007  52.201  1.00  0.00    -0.334 N 
HETATM    2  C4  UNL     1      24.642   0.959  52.751  1.00  0.00     0.211 A 
HETATM    3  N2  UNL     1      25.440   1.896  52.170  1.00  0.00    -0.241 NA
HETATM    4  C5  UNL     1      24.698   2.551  51.231  1.00  0.00     0.097 A 
HETATM    5  C12 UNL     1      23.432   1.989  51.260  1.00  0.00     0.095 A 
ENDROOT
BRANCH   5   6
HETATM    6  C13 UNL     1      22.401   2.485  50.357  1.00  0.00     0.106 A 
HETATM    7  C14 UNL     1      22.346   1.827  49.130  1.00  0.00     0.054 A 
HETATM    8  C15 UNL     1      21.437   2.170  48.171  1.00  0.00     0.139 A 
HETATM    9  N3  UNL     1      20.580   3.177  48.445  1.00  0.00    -0.075 NA
HETATM   10  C16 UNL     1      20.644   3.812  49.649  1.00  0.00     0.720 A 
HETATM   11  N5  UNL     1      21.546   3.481  50.616  1.00  0.00    -0.061 NA
BRANCH  10  12
HETATM   12  N4  UNL     1      19.713   4.863  49.872  1.00  0.00    -0.231 N 
HETATM   13  H13 UNL     1      18.986   4.991  50.616  1.00  0.00     0.174 HD
HETATM   14  H14 UNL     1      19.731   5.667  49.189  1.00  0.00     0.174 HD
ENDBRANCH  10  12
ENDBRANCH   5   6
BRANCH   1  15
HETATM   15  C3  UNL     1      22.236   0.225  52.479  1.00  0.00     0.156 C 
BRANCH  15  16
HETATM   16  C2  UNL     1      22.228  -0.222  53.895  1.00  0.00    -0.017 C 
HETATM   17  C1  UNL     1      21.784  -1.264  54.601  1.00  0.00     0.008 C 
ENDBRANCH  15  16
ENDBRANCH   1  15
BRANCH   4  18
HETATM   18  C6  UNL     1      25.298   3.620  50.442  1.00  0.00    -0.005 A 
HETATM   19  C7  UNL     1      24.793   4.901  50.353  1.00  0.00     0.017 A 
HETATM   20  C8  UNL     1      25.453   5.828  49.571  1.00  0.00     0.043 A 
HETATM   21  C9  UNL     1      26.598   5.447  48.903  1.00  0.00     0.116 A 
HETATM   22  F1  UNL     1      27.229   6.382  48.139  1.00  0.00    -0.206 F 
HETATM   23  C10 UNL     1      27.115   4.173  48.982  1.00  0.00     0.043 A 
HETATM   24  C11 UNL     1      26.455   3.255  49.760  1.00  0.00     0.017 A 
ENDBRANCH   4  18
TORSDOF 5
ENDMDL
MODEL 9
REMARK VINA RESULT:      -6.8      3.466      5.407
REMARK  5 active torsions:
REMARK  status: ('A' for Active; 'I' for Inactive)
REMARK    1  A    between atoms: C2_2  and  C3_3 
REMARK    2  A    between atoms: C3_3  and  N1_4 
REMARK    3  A    between atoms: C5_7  and  C6_8 
REMARK    4  A    between atoms: C12_15  and  C13_16 
REMARK    5  A    between atoms: C16_20  and  N4_21 
ROOT
HETATM    1  N1  UNL     1      22.644   4.569  52.084  1.00  0.00    -0.334 N 
HETATM    2  C4  UNL     1      23.393   4.838  53.176  1.00  0.00     0.211 A 
HETATM    3  N2  UNL     1      24.238   3.798  53.419  1.00  0.00    -0.241 NA
HETATM    4  C5  UNL     1      24.019   2.851  52.463  1.00  0.00     0.097 A 
HETATM    5  C12 UNL     1      23.023   3.342  51.635  1.00  0.00     0.095 A 
ENDROOT
BRANCH   5   6
HETATM    6  C13 UNL     1      22.567   2.545  50.504  1.00  0.00     0.106 A 
HETATM    7  C14 UNL     1      21.680   1.524  50.840  1.00  0.00     0.054 A 
HETATM    8  C15 UNL     1      21.158   0.685  49.899  1.00  0.00     0.139 A 
HETATM    9  N3  UNL     1      21.527   0.873  48.613  1.00  0.00    -0.075 NA
HETATM   10  C16 UNL     1      22.395   1.875  48.297  1.00  0.00     0.720 A 
HETATM   11  N5  UNL     1      22.924   2.720  49.226  1.00  0.00    -0.061 NA
BRANCH  10  12
HETATM   12  N4  UNL     1      22.741   2.016  46.925  1.00  0.00    -0.231 N 
HETATM   13  H13 UNL     1      23.302   2.749  46.429  1.00  0.00     0.174 HD
HETATM   14  H14 UNL     1      22.388   1.271  46.266  1.00  0.00     0.174 HD
ENDBRANCH  10  12
ENDBRANCH   5   6
BRANCH   1  15
HETATM   15  C3  UNL     1      21.624   5.351  51.441  1.00  0.00     0.156 C 
BRANCH  15  16
HETATM   16  C2  UNL     1      22.207   6.570  50.828  1.00  0.00    -0.017 C 
HETATM   17  C1  UNL     1      21.774   7.726  50.319  1.00  0.00     0.008 C 
ENDBRANCH  15  16
ENDBRANCH   1  15
BRANCH   4  18
HETATM   18  C6  UNL     1      24.790   1.614  52.472  1.00  0.00    -0.005 A 
HETATM   19  C7  UNL     1      25.960   1.420  51.767  1.00  0.00     0.017 A 
HETATM   20  C8  UNL     1      26.602   0.200  51.857  1.00  0.00     0.043 A 
HETATM   21  C9  UNL     1      26.054  -0.788  52.648  1.00  0.00     0.116 A 
HETATM   22  F1  UNL     1      26.708  -1.981  52.718  1.00  0.00    -0.206 F 
HETATM   23  C10 UNL     1      24.888  -0.610  53.358  1.00  0.00     0.043 A 
HETATM   24  C11 UNL     1      24.254   0.604  53.265  1.00  0.00     0.017 A 
ENDBRANCH   4  18
TORSDOF 5
ENDMDL
