MODEL 1
REMARK VINA RESULT:      -7.3      0.000      0.000
REMARK  7 active torsions:
REMARK  status: ('A' for Active; 'I' for Inactive)
REMARK    1  A    between atoms: C2_3  and  C3_5 
REMARK    2  A    between atoms: C4_6  and  C5_7 
REMARK    3  A    between atoms: C11_16  and  N5_17 
REMARK       I    between atoms: N5_17  and  C12_18 
REMARK    4  A    between atoms: C12_18  and  C13_20 
REMARK    5  A    between atoms: C13_20  and  P1_21 
REMARK    6  A    between atoms: P1_21  and  C14_22 
REMARK    7  A    between atoms: C14_22  and  N6_23 
ROOT
HETATM    1  C5  UNL     1      23.005   0.177  53.466  1.00  0.00    -0.001 A 
HETATM    2  C6  UNL     1      23.421  -0.668  54.464  1.00  0.00     0.073 A 
HETATM    3  C7  UNL     1      24.735  -0.769  54.977  1.00  0.00     0.102 C 
HETATM    4  N2  UNL     1      25.798  -0.866  55.406  1.00  0.00    -0.191 NA
HETATM    5  C8  UNL     1      22.474  -1.492  55.019  1.00  0.00     0.141 A 
HETATM    6  N3  UNL     1      21.230  -1.445  54.585  1.00  0.00    -0.257 NA
HETATM    7  C9  UNL     1      20.843  -0.620  53.615  1.00  0.00     0.085 A 
HETATM    8  C10 UNL     1      19.515  -0.659  53.243  1.00  0.00     0.151 A 
HETATM    9  N4  UNL     1      19.038   0.146  52.267  1.00  0.00    -0.241 NA
HETATM   10  C11 UNL     1      19.876   1.001  51.647  1.00  0.00     0.130 A 
HETATM   11  C17 UNL     1      21.197   1.020  52.038  1.00  0.00     0.065 A 
HETATM   12  C18 UNL     1      21.714   0.228  53.012  1.00  0.00     0.009 A 
ENDROOT
BRANCH   1  13
HETATM   13  C4  UNL     1      23.943   1.058  52.850  1.00  0.00     0.017 C 
HETATM   14  C3  UNL     1      24.846   1.394  51.990  1.00  0.00     0.040 C 
BRANCH  14  15
HETATM   15  C2  UNL     1      25.793   2.267  51.357  1.00  0.00     0.096 C 
HETATM   16  N1  UNL     1      27.019   2.551  51.592  1.00  0.00    -0.287 NA
HETATM   17  C1  UNL     1      27.703   1.936  52.686  1.00  0.00     0.179 C 
HETATM   18 BR1  UNL     1      25.327   3.307  49.836  1.00  0.00    -0.030 Br
ENDBRANCH  14  15
ENDBRANCH   1  13
BRANCH  10  19
HETATM   19  N5  UNL     1      19.416   1.865  50.614  1.00  0.00    -0.311 N 
HETATM   20  C12 UNL     1      19.065   3.150  51.129  1.00  0.00     0.227 C 
HETATM   21  O1  UNL     1      19.179   3.409  52.375  1.00  0.00    -0.273 OA
HETATM   22  H8  UNL     1      19.250   1.861  49.581  1.00  0.00     0.170 HD
BRANCH  20  23
HETATM   23  C13 UNL     1      18.549   4.376  50.517  1.00  0.00     0.136 C 
BRANCH  23  24
HETATM   24  P1  UNL     1      19.891   5.314  49.630  1.00  0.00    -0.090 P 
HETATM   25  H11 UNL     1      19.721   5.228  48.192  1.00  0.00     0.059 HD
BRANCH  24  26
HETATM   26  C14 UNL     1      21.556   4.716  50.171  1.00  0.00     0.302 C 
BRANCH  26  27
HETATM   27  N6  UNL     1      22.083   5.419  51.310  1.00  0.00     0.083 N 
HETATM   28  C15 UNL     1      23.075   6.395  50.915  1.00  0.00     0.309 C 
HETATM   29  C16 UNL     1      22.556   4.537  52.351  1.00  0.00     0.309 C 
ENDBRANCH  26  27
ENDBRANCH  24  26
ENDBRANCH  23  24
ENDBRANCH  20  23
ENDBRANCH  10  19
TORSDOF 7
ENDMDL
MODEL 2
REMARK VINA RESULT:      -7.2      3.893      5.368
REMARK  7 active torsions:
REMARK  status: ('A' for Active; 'I' for Inactive)
REMARK    1  A    between atoms: C2_3  and  C3_5 
REMARK    2  A    between atoms: C4_6  and  C5_7 
REMARK    3  A    between atoms: C11_16  and  N5_17 
REMARK       I    between atoms: N5_17  and  C12_18 
REMARK    4  A    between atoms: C12_18  and  C13_20 
REMARK    5  A    between atoms: C13_20  and  P1_21 
REMARK    6  A    between atoms: P1_21  and  C14_22 
REMARK    7  A    between atoms: C14_22  and  N6_23 
ROOT
HETATM    1  C5  UNL     1      23.079   1.022  53.267  1.00  0.00    -0.001 A 
HETATM    2  C6  UNL     1      21.964   0.328  53.664  1.00  0.00     0.073 A 
HETATM    3  C7  UNL     1      21.951  -0.899  54.367  1.00  0.00     0.102 C 
HETATM    4  N2  UNL     1      21.921  -1.896  54.938  1.00  0.00    -0.191 NA
HETATM    5  C8  UNL     1      20.745   0.876  53.351  1.00  0.00     0.141 A 
HETATM    6  N3  UNL     1      20.690   2.020  52.696  1.00  0.00    -0.257 NA
HETATM    7  C9  UNL     1      21.782   2.679  52.318  1.00  0.00     0.085 A 
HETATM    8  C10 UNL     1      21.601   3.866  51.638  1.00  0.00     0.151 A 
HETATM    9  N4  UNL     1      22.657   4.599  51.219  1.00  0.00    -0.241 NA
HETATM   10  C11 UNL     1      23.907   4.162  51.469  1.00  0.00     0.130 A 
HETATM   11  C17 UNL     1      24.060   2.974  52.150  1.00  0.00     0.065 A 
HETATM   12  C18 UNL     1      23.026   2.209  52.587  1.00  0.00     0.009 A 
ENDROOT
BRANCH   1  13
HETATM   13  C4  UNL     1      24.376   0.504  53.564  1.00  0.00     0.017 C 
HETATM   14  C3  UNL     1      25.545   0.036  53.278  1.00  0.00     0.040 C 
BRANCH  14  15
HETATM   15  C2  UNL     1      26.852  -0.486  53.557  1.00  0.00     0.096 C 
HETATM   16  N1  UNL     1      27.482  -1.532  53.171  1.00  0.00    -0.287 NA
HETATM   17  C1  UNL     1      26.861  -2.453  52.271  1.00  0.00     0.179 C 
HETATM   18 BR1  UNL     1      28.056   0.415  54.720  1.00  0.00    -0.030 Br
ENDBRANCH  14  15
ENDBRANCH   1  13
BRANCH  10  19
HETATM   19  N5  UNL     1      25.046   4.902  51.045  1.00  0.00    -0.311 N 
HETATM   20  C12 UNL     1      25.631   4.331  49.874  1.00  0.00     0.227 C 
HETATM   21  O1  UNL     1      25.133   3.284  49.338  1.00  0.00    -0.273 OA
HETATM   22  H8  UNL     1      25.601   5.746  51.319  1.00  0.00     0.170 HD
BRANCH  20  23
HETATM   23  C13 UNL     1      26.787   4.685  49.047  1.00  0.00     0.136 C 
BRANCH  23  24
HETATM   24  P1  UNL     1      26.790   6.496  48.616  1.00  0.00    -0.090 P 
HETATM   25  H11 UNL     1      25.751   6.802  47.650  1.00  0.00     0.059 HD
BRANCH  24  26
HETATM   26  C14 UNL     1      28.465   7.012  48.024  1.00  0.00     0.302 C 
BRANCH  26  27
HETATM   27  N6  UNL     1      29.004   8.146  48.724  1.00  0.00     0.083 N 
HETATM   28  C15 UNL     1      28.504   9.390  48.179  1.00  0.00     0.309 C 
HETATM   29  C16 UNL     1      30.444   8.121  48.817  1.00  0.00     0.309 C 
ENDBRANCH  26  27
ENDBRANCH  24  26
ENDBRANCH  23  24
ENDBRANCH  20  23
ENDBRANCH  10  19
TORSDOF 7
ENDMDL
MODEL 3
REMARK VINA RESULT:      -7.1      1.972      3.251
REMARK  7 active torsions:
REMARK  status: ('A' for Active; 'I' for Inactive)
REMARK    1  A    between atoms: C2_3  and  C3_5 
REMARK    2  A    between atoms: C4_6  and  C5_7 
REMARK    3  A    between atoms: C11_16  and  N5_17 
REMARK       I    between atoms: N5_17  and  C12_18 
REMARK    4  A    between atoms: C12_18  and  C13_20 
REMARK    5  A    between atoms: C13_20  and  P1_21 
REMARK    6  A    between atoms: P1_21  and  C14_22 
REMARK    7  A    between atoms: C14_22  and  N6_23 
ROOT
HETATM    1  C5  UNL     1      22.811  -0.045  53.202  1.00  0.00    -0.001 A 
HETATM    2  C6  UNL     1      23.328  -0.750  54.259  1.00  0.00     0.073 A 
HETATM    3  C7  UNL     1      24.690  -0.810  54.635  1.00  0.00     0.102 C 
HETATM    4  N2  UNL     1      25.793  -0.870  54.956  1.00  0.00    -0.191 NA
HETATM    5  C8  UNL     1      22.442  -1.464  55.025  1.00  0.00     0.141 A 
HETATM    6  N3  UNL     1      21.157  -1.449  54.726  1.00  0.00    -0.257 NA
HETATM    7  C9  UNL     1      20.672  -0.760  53.696  1.00  0.00     0.085 A 
HETATM    8  C10 UNL     1      19.311  -0.819  53.480  1.00  0.00     0.151 A 
HETATM    9  N4  UNL     1      18.736  -0.149  52.456  1.00  0.00    -0.241 NA
HETATM   10  C11 UNL     1      19.507   0.590  51.633  1.00  0.00     0.130 A 
HETATM   11  C17 UNL     1      20.864   0.632  51.872  1.00  0.00     0.065 A 
HETATM   12  C18 UNL     1      21.478  -0.027  52.888  1.00  0.00     0.009 A 
ENDROOT
BRANCH   1  13
HETATM   13  C4  UNL     1      23.682   0.718  52.368  1.00  0.00     0.017 C 
HETATM   14  C3  UNL     1      24.472   1.700  52.084  1.00  0.00     0.040 C 
BRANCH  14  15
HETATM   15  C2  UNL     1      25.350   2.480  51.261  1.00  0.00     0.096 C 
HETATM   16  N1  UNL     1      26.606   2.730  51.304  1.00  0.00    -0.287 NA
HETATM   17  C1  UNL     1      27.413   2.174  52.344  1.00  0.00     0.179 C 
HETATM   18 BR1  UNL     1      24.712   3.417  49.735  1.00  0.00    -0.030 Br
ENDBRANCH  14  15
ENDBRANCH   1  13
BRANCH  10  19
HETATM   19  N5  UNL     1      18.943   1.310  50.544  1.00  0.00    -0.311 N 
HETATM   20  C12 UNL     1      18.632   2.654  50.914  1.00  0.00     0.227 C 
HETATM   21  O1  UNL     1      18.862   3.076  52.097  1.00  0.00    -0.273 OA
HETATM   22  H8  UNL     1      18.678   1.169  49.541  1.00  0.00     0.170 HD
BRANCH  20  23
HETATM   23  C13 UNL     1      18.049   3.790  50.196  1.00  0.00     0.136 C 
BRANCH  23  24
HETATM   24  P1  UNL     1      16.213   3.909  50.480  1.00  0.00    -0.090 P 
HETATM   25  H11 UNL     1      15.878   5.112  51.218  1.00  0.00     0.059 HD
BRANCH  24  26
HETATM   26  C14 UNL     1      15.594   2.381  51.319  1.00  0.00     0.302 C 
BRANCH  26  27
HETATM   27  N6  UNL     1      15.177   2.595  52.679  1.00  0.00     0.083 N 
HETATM   28  C15 UNL     1      13.942   1.901  52.968  1.00  0.00     0.309 C 
HETATM   29  C16 UNL     1      15.125   3.992  53.042  1.00  0.00     0.309 C 
ENDBRANCH  26  27
ENDBRANCH  24  26
ENDBRANCH  23  24
ENDBRANCH  20  23
ENDBRANCH  10  19
TORSDOF 7
ENDMDL
MODEL 4
REMARK VINA RESULT:      -7.0      1.292      1.756
REMARK  7 active torsions:
REMARK  status: ('A' for Active; 'I' for Inactive)
REMARK    1  A    between atoms: C2_3  and  C3_5 
REMARK    2  A    between atoms: C4_6  and  C5_7 
REMARK    3  A    between atoms: C11_16  and  N5_17 
REMARK       I    between atoms: N5_17  and  C12_18 
REMARK    4  A    between atoms: C12_18  and  C13_20 
REMARK    5  A    between atoms: C13_20  and  P1_21 
REMARK    6  A    between atoms: P1_21  and  C14_22 
REMARK    7  A    between atoms: C14_22  and  N6_23 
ROOT
HETATM    1  C5  UNL     1      23.050   0.006  53.319  1.00  0.00    -0.001 A 
HETATM    2  C6  UNL     1      23.537  -0.706  54.386  1.00  0.00     0.073 A 
HETATM    3  C7  UNL     1      24.885  -0.756  54.810  1.00  0.00     0.102 C 
HETATM    4  N2  UNL     1      25.976  -0.808  55.169  1.00  0.00    -0.191 NA
HETATM    5  C8  UNL     1      22.632  -1.441  55.111  1.00  0.00     0.141 A 
HETATM    6  N3  UNL     1      21.359  -1.437  54.766  1.00  0.00    -0.257 NA
HETATM    7  C9  UNL     1      20.903  -0.740  53.728  1.00  0.00     0.085 A 
HETATM    8  C10 UNL     1      19.552  -0.812  53.462  1.00  0.00     0.151 A 
HETATM    9  N4  UNL     1      19.005  -0.135  52.427  1.00  0.00    -0.241 NA
HETATM   10  C11 UNL     1      19.796   0.623  51.641  1.00  0.00     0.130 A 
HETATM   11  C17 UNL     1      21.143   0.677  51.929  1.00  0.00     0.065 A 
HETATM   12  C18 UNL     1      21.729   0.013  52.958  1.00  0.00     0.009 A 
ENDROOT
BRANCH   1  13
HETATM   13  C4  UNL     1      23.941   0.789  52.527  1.00  0.00     0.017 C 
HETATM   14  C3  UNL     1      24.981   1.523  52.312  1.00  0.00     0.040 C 
BRANCH  14  15
HETATM   15  C2  UNL     1      25.888   2.314  51.531  1.00  0.00     0.096 C 
HETATM   16  N1  UNL     1      27.130   2.605  51.651  1.00  0.00    -0.287 NA
HETATM   17  C1  UNL     1      27.883   2.095  52.754  1.00  0.00     0.179 C 
HETATM   18 BR1  UNL     1      25.325   3.202  49.947  1.00  0.00    -0.030 Br
ENDBRANCH  14  15
ENDBRANCH   1  13
BRANCH  10  19
HETATM   19  N5  UNL     1      19.263   1.351  50.542  1.00  0.00    -0.311 N 
HETATM   20  C12 UNL     1      18.963   2.699  50.906  1.00  0.00     0.227 C 
HETATM   21  O1  UNL     1      19.176   3.118  52.094  1.00  0.00    -0.273 OA
HETATM   22  H8  UNL     1      19.016   1.214  49.534  1.00  0.00     0.170 HD
BRANCH  20  23
HETATM   23  C13 UNL     1      18.410   3.843  50.178  1.00  0.00     0.136 C 
BRANCH  23  24
HETATM   24  P1  UNL     1      19.734   5.071  49.727  1.00  0.00    -0.090 P 
HETATM   25  H11 UNL     1      19.231   6.058  48.790  1.00  0.00     0.059 HD
BRANCH  24  26
HETATM   26  C14 UNL     1      21.227   4.193  49.077  1.00  0.00     0.302 C 
BRANCH  26  27
HETATM   27  N6  UNL     1      20.929   3.203  48.077  1.00  0.00     0.083 N 
HETATM   28  C15 UNL     1      22.018   2.264  47.921  1.00  0.00     0.309 C 
HETATM   29  C16 UNL     1      20.508   3.778  46.821  1.00  0.00     0.309 C 
ENDBRANCH  26  27
ENDBRANCH  24  26
ENDBRANCH  23  24
ENDBRANCH  20  23
ENDBRANCH  10  19
TORSDOF 7
ENDMDL
MODEL 5
REMARK VINA RESULT:      -7.0      1.617      1.855
REMARK  7 active torsions:
REMARK  status: ('A' for Active; 'I' for Inactive)
REMARK    1  A    between atoms: C2_3  and  C3_5 
REMARK    2  A    between atoms: C4_6  and  C5_7 
REMARK    3  A    between atoms: C11_16  and  N5_17 
REMARK       I    between atoms: N5_17  and  C12_18 
REMARK    4  A    between atoms: C12_18  and  C13_20 
REMARK    5  A    between atoms: C13_20  and  P1_21 
REMARK    6  A    between atoms: P1_21  and  C14_22 
REMARK    7  A    between atoms: C14_22  and  N6_23 
ROOT
HETATM    1  C5  UNL     1      23.293   0.150  53.091  1.00  0.00    -0.001 A 
HETATM    2  C6  UNL     1      23.233  -0.677  54.183  1.00  0.00     0.073 A 
HETATM    3  C7  UNL     1      24.321  -1.054  55.005  1.00  0.00     0.102 C 
HETATM    4  N2  UNL     1      25.193  -1.371  55.684  1.00  0.00    -0.191 NA
HETATM    5  C8  UNL     1      22.002  -1.190  54.512  1.00  0.00     0.141 A 
HETATM    6  N3  UNL     1      20.948  -0.876  53.785  1.00  0.00    -0.257 NA
HETATM    7  C9  UNL     1      21.023  -0.072  52.728  1.00  0.00     0.085 A 
HETATM    8  C10 UNL     1      19.853   0.185  52.043  1.00  0.00     0.151 A 
HETATM    9  N4  UNL     1      19.840   0.992  50.958  1.00  0.00    -0.241 NA
HETATM   10  C11 UNL     1      20.992   1.555  50.538  1.00  0.00     0.130 A 
HETATM   11  C17 UNL     1      22.146   1.282  51.241  1.00  0.00     0.065 A 
HETATM   12  C18 UNL     1      22.199   0.477  52.334  1.00  0.00     0.009 A 
ENDROOT
BRANCH   1  13
HETATM   13  C4  UNL     1      24.543   0.714  52.699  1.00  0.00     0.017 C 
HETATM   14  C3  UNL     1      25.490   1.592  52.717  1.00  0.00     0.040 C 
BRANCH  14  15
HETATM   15  C2  UNL     1      26.745   2.174  52.335  1.00  0.00     0.096 C 
HETATM   16  N1  UNL     1      27.148   2.784  51.284  1.00  0.00    -0.287 NA
HETATM   17  C1  UNL     1      26.255   2.992  50.187  1.00  0.00     0.179 C 
HETATM   18 BR1  UNL     1      28.252   2.138  53.493  1.00  0.00    -0.030 Br
ENDBRANCH  14  15
ENDBRANCH   1  13
BRANCH  10  19
HETATM   19  N5  UNL     1      21.023   2.409  49.402  1.00  0.00    -0.311 N 
HETATM   20  C12 UNL     1      20.738   3.762  49.759  1.00  0.00     0.227 C 
HETATM   21  O1  UNL     1      20.495   4.080  50.972  1.00  0.00    -0.273 OA
HETATM   22  H8  UNL     1      21.191   2.364  48.370  1.00  0.00     0.170 HD
BRANCH  20  23
HETATM   23  C13 UNL     1      20.643   5.009  48.998  1.00  0.00     0.136 C 
BRANCH  23  24
HETATM   24  P1  UNL     1      22.279   5.897  48.934  1.00  0.00    -0.090 P 
HETATM   25  H11 UNL     1      23.359   4.974  48.639  1.00  0.00     0.059 HD
BRANCH  24  26
HETATM   26  C14 UNL     1      22.565   6.826  50.508  1.00  0.00     0.302 C 
BRANCH  26  27
HETATM   27  N6  UNL     1      23.752   6.421  51.212  1.00  0.00     0.083 N 
HETATM   28  C15 UNL     1      24.930   6.552  50.382  1.00  0.00     0.309 C 
HETATM   29  C16 UNL     1      23.638   5.111  51.808  1.00  0.00     0.309 C 
ENDBRANCH  26  27
ENDBRANCH  24  26
ENDBRANCH  23  24
ENDBRANCH  20  23
ENDBRANCH  10  19
TORSDOF 7
ENDMDL
MODEL 6
REMARK VINA RESULT:      -7.0      2.979      4.579
REMARK  7 active torsions:
REMARK  status: ('A' for Active; 'I' for Inactive)
REMARK    1  A    between atoms: C2_3  and  C3_5 
REMARK    2  A    between atoms: C4_6  and  C5_7 
REMARK    3  A    between atoms: C11_16  and  N5_17 
REMARK       I    between atoms: N5_17  and  C12_18 
REMARK    4  A    between atoms: C12_18  and  C13_20 
REMARK    5  A    between atoms: C13_20  and  P1_21 
REMARK    6  A    between atoms: P1_21  and  C14_22 
REMARK    7  A    between atoms: C14_22  and  N6_23 
ROOT
HETATM    1  C5  UNL     1      22.813   1.012  53.185  1.00  0.00    -0.001 A 
HETATM    2  C6  UNL     1      21.665   0.354  53.549  1.00  0.00     0.073 A 
HETATM    3  C7  UNL     1      21.592  -0.918  54.162  1.00  0.00     0.102 C 
HETATM    4  N2  UNL     1      21.513  -1.951  54.661  1.00  0.00    -0.191 NA
HETATM    5  C8  UNL     1      20.475   0.988  53.294  1.00  0.00     0.141 A 
HETATM    6  N3  UNL     1      20.475   2.178  52.723  1.00  0.00    -0.257 NA
HETATM    7  C9  UNL     1      21.598   2.802  52.377  1.00  0.00     0.085 A 
HETATM    8  C10 UNL     1      21.475   4.043  51.787  1.00  0.00     0.151 A 
HETATM    9  N4  UNL     1      22.565   4.747  51.404  1.00  0.00    -0.241 NA
HETATM   10  C11 UNL     1      23.792   4.225  51.603  1.00  0.00     0.130 A 
HETATM   11  C17 UNL     1      23.886   2.984  52.195  1.00  0.00     0.065 A 
HETATM   12  C18 UNL     1      22.817   2.247  52.592  1.00  0.00     0.009 A 
ENDROOT
BRANCH   1  13
HETATM   13  C4  UNL     1      24.081   0.405  53.424  1.00  0.00     0.017 C 
HETATM   14  C3  UNL     1      25.150  -0.244  53.100  1.00  0.00     0.040 C 
BRANCH  14  15
HETATM   15  C2  UNL     1      26.427  -0.860  53.321  1.00  0.00     0.096 C 
HETATM   16  N1  UNL     1      27.391  -0.620  54.129  1.00  0.00    -0.287 NA
HETATM   17  C1  UNL     1      27.298   0.463  55.057  1.00  0.00     0.179 C 
HETATM   18 BR1  UNL     1      26.996  -2.362  52.305  1.00  0.00    -0.030 Br
ENDBRANCH  14  15
ENDBRANCH   1  13
BRANCH  10  19
HETATM   19  N5  UNL     1      24.964   4.931  51.215  1.00  0.00    -0.311 N 
HETATM   20  C12 UNL     1      25.360   4.593  49.885  1.00  0.00     0.227 C 
HETATM   21  O1  UNL     1      24.688   3.751  49.197  1.00  0.00    -0.273 OA
HETATM   22  H8  UNL     1      25.642   5.631  51.598  1.00  0.00     0.170 HD
BRANCH  20  23
HETATM   23  C13 UNL     1      26.463   5.017  49.021  1.00  0.00     0.136 C 
BRANCH  23  24
HETATM   24  P1  UNL     1      26.315   6.813  48.554  1.00  0.00    -0.090 P 
HETATM   25  H11 UNL     1      26.710   7.671  49.656  1.00  0.00     0.059 HD
BRANCH  24  26
HETATM   26  C14 UNL     1      24.601   7.182  47.964  1.00  0.00     0.302 C 
BRANCH  26  27
HETATM   27  N6  UNL     1      23.661   7.421  49.026  1.00  0.00     0.083 N 
HETATM   28  C15 UNL     1      22.396   7.901  48.513  1.00  0.00     0.309 C 
HETATM   29  C16 UNL     1      24.191   8.262  50.073  1.00  0.00     0.309 C 
ENDBRANCH  26  27
ENDBRANCH  24  26
ENDBRANCH  23  24
ENDBRANCH  20  23
ENDBRANCH  10  19
TORSDOF 7
ENDMDL
MODEL 7
REMARK VINA RESULT:      -6.9      2.199      5.099
REMARK  7 active torsions:
REMARK  status: ('A' for Active; 'I' for Inactive)
REMARK    1  A    between atoms: C2_3  and  C3_5 
REMARK    2  A    between atoms: C4_6  and  C5_7 
REMARK    3  A    between atoms: C11_16  and  N5_17 
REMARK       I    between atoms: N5_17  and  C12_18 
REMARK    4  A    between atoms: C12_18  and  C13_20 
REMARK    5  A    between atoms: C13_20  and  P1_21 
REMARK    6  A    between atoms: P1_21  and  C14_22 
REMARK    7  A    between atoms: C14_22  and  N6_23 
ROOT
HETATM    1  C5  UNL     1      23.760   0.542  52.917  1.00  0.00    -0.001 A 
HETATM    2  C6  UNL     1      24.042  -0.286  53.974  1.00  0.00     0.073 A 
HETATM    3  C7  UNL     1      23.109  -1.063  54.698  1.00  0.00     0.102 C 
HETATM    4  N2  UNL     1      22.364  -1.702  55.298  1.00  0.00    -0.191 NA
HETATM    5  C8  UNL     1      25.355  -0.369  54.368  1.00  0.00     0.141 A 
HETATM    6  N3  UNL     1      26.274   0.332  53.733  1.00  0.00    -0.257 NA
HETATM    7  C9  UNL     1      25.983   1.130  52.709  1.00  0.00     0.085 A 
HETATM    8  C10 UNL     1      27.027   1.814  52.123  1.00  0.00     0.151 A 
HETATM    9  N4  UNL     1      26.819   2.646  51.077  1.00  0.00    -0.241 NA
HETATM   10  C11 UNL     1      25.568   2.810  50.601  1.00  0.00     0.130 A 
HETATM   11  C17 UNL     1      24.543   2.115  51.205  1.00  0.00     0.065 A 
HETATM   12  C18 UNL     1      24.712   1.271  52.256  1.00  0.00     0.009 A 
ENDROOT
BRANCH   1  13
HETATM   13  C4  UNL     1      22.414   0.671  52.461  1.00  0.00     0.017 C 
HETATM   14  C3  UNL     1      21.335   0.282  51.866  1.00  0.00     0.040 C 
BRANCH  14  15
HETATM   15  C2  UNL     1      19.983   0.394  51.400  1.00  0.00     0.096 C 
HETATM   16  N1  UNL     1      18.860  -0.027  51.849  1.00  0.00    -0.287 NA
HETATM   17  C1  UNL     1      18.809  -0.779  53.064  1.00  0.00     0.179 C 
HETATM   18 BR1  UNL     1      19.557   1.323  49.797  1.00  0.00    -0.030 Br
ENDBRANCH  14  15
ENDBRANCH   1  13
BRANCH  10  19
HETATM   19  N5  UNL     1      25.305   3.676  49.503  1.00  0.00    -0.311 N 
HETATM   20  C12 UNL     1      24.766   4.923  49.942  1.00  0.00     0.227 C 
HETATM   21  O1  UNL     1      24.575   5.152  51.184  1.00  0.00    -0.273 OA
HETATM   22  H8  UNL     1      25.381   3.692  48.460  1.00  0.00     0.170 HD
BRANCH  20  23
HETATM   23  C13 UNL     1      24.330   6.136  49.246  1.00  0.00     0.136 C 
BRANCH  23  24
HETATM   24  P1  UNL     1      22.763   5.845  48.283  1.00  0.00    -0.090 P 
HETATM   25  H11 UNL     1      21.999   7.071  48.150  1.00  0.00     0.059 HD
BRANCH  24  26
HETATM   26  C14 UNL     1      21.774   4.489  49.062  1.00  0.00     0.302 C 
BRANCH  26  27
HETATM   27  N6  UNL     1      20.845   4.949  50.059  1.00  0.00     0.083 N 
HETATM   28  C15 UNL     1      20.722   6.390  50.042  1.00  0.00     0.309 C 
HETATM   29  C16 UNL     1      21.128   4.433  51.378  1.00  0.00     0.309 C 
ENDBRANCH  26  27
ENDBRANCH  24  26
ENDBRANCH  23  24
ENDBRANCH  20  23
ENDBRANCH  10  19
TORSDOF 7
ENDMDL
MODEL 8
REMARK VINA RESULT:      -6.8      3.143      5.606
REMARK  7 active torsions:
REMARK  status: ('A' for Active; 'I' for Inactive)
REMARK    1  A    between atoms: C2_3  and  C3_5 
REMARK    2  A    between atoms: C4_6  and  C5_7 
REMARK    3  A    between atoms: C11_16  and  N5_17 
REMARK       I    between atoms: N5_17  and  C12_18 
REMARK    4  A    between atoms: C12_18  and  C13_20 
REMARK    5  A    between atoms: C13_20  and  P1_21 
REMARK    6  A    between atoms: P1_21  and  C14_22 
REMARK    7  A    between atoms: C14_22  and  N6_23 
ROOT
HETATM    1  C5  UNL     1      23.414   0.466  52.907  1.00  0.00    -0.001 A 
HETATM    2  C6  UNL     1      23.790  -0.373  53.925  1.00  0.00     0.073 A 
HETATM    3  C7  UNL     1      22.929  -1.196  54.689  1.00  0.00     0.102 C 
HETATM    4  N2  UNL     1      22.245  -1.871  55.320  1.00  0.00    -0.191 NA
HETATM    5  C8  UNL     1      25.127  -0.420  54.234  1.00  0.00     0.141 A 
HETATM    6  N3  UNL     1      25.981   0.323  53.558  1.00  0.00    -0.257 NA
HETATM    7  C9  UNL     1      25.600   1.132  52.573  1.00  0.00     0.085 A 
HETATM    8  C10 UNL     1      26.582   1.862  51.937  1.00  0.00     0.151 A 
HETATM    9  N4  UNL     1      26.282   2.707  50.925  1.00  0.00    -0.241 NA
HETATM   10  C11 UNL     1      24.999   2.838  50.532  1.00  0.00     0.130 A 
HETATM   11  C17 UNL     1      24.037   2.097  51.183  1.00  0.00     0.065 A 
HETATM   12  C18 UNL     1      24.299   1.239  52.203  1.00  0.00     0.009 A 
ENDROOT
BRANCH   1  13
HETATM   13  C4  UNL     1      22.039   0.558  52.539  1.00  0.00     0.017 C 
HETATM   14  C3  UNL     1      20.981   0.244  51.868  1.00  0.00     0.040 C 
BRANCH  14  15
HETATM   15  C2  UNL     1      19.600   0.324  51.485  1.00  0.00     0.096 C 
HETATM   16  N1  UNL     1      18.521  -0.153  51.983  1.00  0.00    -0.287 NA
HETATM   17  C1  UNL     1      18.566  -0.948  53.169  1.00  0.00     0.179 C 
HETATM   18 BR1  UNL     1      19.049   1.292  49.945  1.00  0.00    -0.030 Br
ENDBRANCH  14  15
ENDBRANCH   1  13
BRANCH  10  19
HETATM   19  N5  UNL     1      24.639   3.716  49.472  1.00  0.00    -0.311 N 
HETATM   20  C12 UNL     1      24.214   4.986  49.970  1.00  0.00     0.227 C 
HETATM   21  O1  UNL     1      24.189   5.221  51.225  1.00  0.00    -0.273 OA
HETATM   22  H8  UNL     1      24.585   3.731  48.427  1.00  0.00     0.170 HD
BRANCH  20  23
HETATM   23  C13 UNL     1      23.748   6.217  49.329  1.00  0.00     0.136 C 
BRANCH  23  24
HETATM   24  P1  UNL     1      24.860   7.657  49.725  1.00  0.00    -0.090 P 
HETATM   25  H11 UNL     1      24.384   8.872  49.090  1.00  0.00     0.059 HD
BRANCH  24  26
HETATM   26  C14 UNL     1      26.607   7.265  49.257  1.00  0.00     0.302 C 
BRANCH  26  27
HETATM   27  N6  UNL     1      27.429   8.429  49.060  1.00  0.00     0.083 N 
HETATM   28  C15 UNL     1      28.756   8.068  48.610  1.00  0.00     0.309 C 
HETATM   29  C16 UNL     1      27.452   9.306  50.206  1.00  0.00     0.309 C 
ENDBRANCH  26  27
ENDBRANCH  24  26
ENDBRANCH  23  24
ENDBRANCH  20  23
ENDBRANCH  10  19
TORSDOF 7
ENDMDL
MODEL 9
REMARK VINA RESULT:      -6.8      1.815      3.167
REMARK  7 active torsions:
REMARK  status: ('A' for Active; 'I' for Inactive)
REMARK    1  A    between atoms: C2_3  and  C3_5 
REMARK    2  A    between atoms: C4_6  and  C5_7 
REMARK    3  A    between atoms: C11_16  and  N5_17 
REMARK       I    between atoms: N5_17  and  C12_18 
REMARK    4  A    between atoms: C12_18  and  C13_20 
REMARK    5  A    between atoms: C13_20  and  P1_21 
REMARK    6  A    between atoms: P1_21  and  C14_22 
REMARK    7  A    between atoms: C14_22  and  N6_23 
ROOT
HETATM    1  C5  UNL     1      25.084   1.532  52.849  1.00  0.00    -0.001 A 
HETATM    2  C6  UNL     1      26.150   1.170  53.634  1.00  0.00     0.073 A 
HETATM    3  C7  UNL     1      27.401   1.828  53.697  1.00  0.00     0.102 C 
HETATM    4  N2  UNL     1      28.423   2.349  53.761  1.00  0.00    -0.191 NA
HETATM    5  C8  UNL     1      25.989   0.066  54.434  1.00  0.00     0.141 A 
HETATM    6  N3  UNL     1      24.846  -0.591  54.421  1.00  0.00    -0.257 NA
HETATM    7  C9  UNL     1      23.822  -0.227  53.654  1.00  0.00     0.085 A 
HETATM    8  C10 UNL     1      22.676  -0.990  53.724  1.00  0.00     0.151 A 
HETATM    9  N4  UNL     1      21.588  -0.690  52.978  1.00  0.00    -0.241 NA
HETATM   10  C11 UNL     1      21.626   0.375  52.151  1.00  0.00     0.130 A 
HETATM   11  C17 UNL     1      22.784   1.121  52.101  1.00  0.00     0.065 A 
HETATM   12  C18 UNL     1      23.896   0.851  52.833  1.00  0.00     0.009 A 
ENDROOT
BRANCH   1  13
HETATM   13  C4  UNL     1      25.189   2.670  51.996  1.00  0.00     0.017 C 
HETATM   14  C3  UNL     1      25.639   3.344  50.990  1.00  0.00     0.040 C 
BRANCH  14  15
HETATM   15  C2  UNL     1      25.758   4.479  50.121  1.00  0.00     0.096 C 
HETATM   16  N1  UNL     1      25.051   5.533  49.950  1.00  0.00    -0.287 NA
HETATM   17  C1  UNL     1      23.871   5.742  50.728  1.00  0.00     0.179 C 
HETATM   18 BR1  UNL     1      27.196   4.642  48.888  1.00  0.00    -0.030 Br
ENDBRANCH  14  15
ENDBRANCH   1  13
BRANCH  10  19
HETATM   19  N5  UNL     1      20.506   0.725  51.349  1.00  0.00    -0.311 N 
HETATM   20  C12 UNL     1      19.788   1.825  51.910  1.00  0.00     0.227 C 
HETATM   21  O1  UNL     1      20.171   2.368  53.001  1.00  0.00    -0.273 OA
HETATM   22  H8  UNL     1      20.030   0.432  50.464  1.00  0.00     0.170 HD
BRANCH  20  23
HETATM   23  C13 UNL     1      18.591   2.563  51.502  1.00  0.00     0.136 C 
BRANCH  23  24
HETATM   24  P1  UNL     1      18.968   3.781  50.145  1.00  0.00    -0.090 P 
HETATM   25  H11 UNL     1      18.194   3.488  48.954  1.00  0.00     0.059 HD
BRANCH  24  26
HETATM   26  C14 UNL     1      20.786   3.815  49.803  1.00  0.00     0.302 C 
BRANCH  26  27
HETATM   27  N6  UNL     1      21.201   2.892  48.781  1.00  0.00     0.083 N 
HETATM   28  C15 UNL     1      22.630   2.951  48.564  1.00  0.00     0.309 C 
HETATM   29  C16 UNL     1      20.449   3.029  47.556  1.00  0.00     0.309 C 
ENDBRANCH  26  27
ENDBRANCH  24  26
ENDBRANCH  23  24
ENDBRANCH  20  23
ENDBRANCH  10  19
TORSDOF 7
ENDMDL
