MODEL 1
REMARK VINA RESULT:      -8.0      0.000      0.000
REMARK  7 active torsions:
REMARK  status: ('A' for Active; 'I' for Inactive)
REMARK    1  A    between atoms: O1_2  and  C2_3 
REMARK    2  A    between atoms: C5_6  and  N1_7 
REMARK    3  A    between atoms: N1_7  and  C6_8 
REMARK    4  A    between atoms: N1_7  and  C12_15 
REMARK    5  A    between atoms: C6_8  and  C7_9 
REMARK    6  A    between atoms: C12_15  and  N2_17 
REMARK    7  A    between atoms: N2_17  and  C13_18 
ROOT
HETATM    1  N1  UNL     1      24.267   2.196  52.311  1.00  0.00    -0.324 N 
ENDROOT
BRANCH   1   2
HETATM    2  C5  UNL     1      25.549   1.593  52.168  1.00  0.00     0.014 C 
HETATM    3  C4  UNL     1      26.394   0.665  51.390  1.00  0.00     0.086 C 
HETATM    4  C3  UNL     1      27.017  -0.353  52.317  1.00  0.00     0.012 C 
HETATM    5  C2  UNL     1      27.717   0.129  53.316  1.00  0.00     0.045 C 
HETATM    6  C20 UNL     1      27.736   1.616  53.304  1.00  0.00     0.093 C 
HETATM    7  C19 UNL     1      26.304   2.079  53.181  1.00  0.00     0.005 C 
BRANCH   5   8
HETATM    8  O1  UNL     1      28.363  -0.636  54.270  1.00  0.00    -0.360 OA
HETATM    9  C1  UNL     1      29.694  -1.085  53.995  1.00  0.00     0.209 C 
ENDBRANCH   5   8
ENDBRANCH   1   2
BRANCH   1  10
HETATM   10  C6  UNL     1      23.552   1.323  53.211  1.00  0.00     0.167 C 
BRANCH  10  11
HETATM   11  C7  UNL     1      22.260   0.873  52.657  1.00  0.00    -0.040 A 
HETATM   12  C8  UNL     1      21.977   0.638  51.411  1.00  0.00     0.006 A 
HETATM   13  C9  UNL     1      20.591   0.223  51.450  1.00  0.00    -0.002 A 
HETATM   14  C10 UNL     1      20.036   0.202  52.641  1.00  0.00    -0.002 A 
HETATM   15  C11 UNL     1      21.104   0.655  53.593  1.00  0.00     0.135 A 
HETATM   16 CL1  UNL     1      21.518  -0.566  54.807  1.00  0.00    -0.116 Cl
ENDBRANCH  10  11
ENDBRANCH   1  10
BRANCH   1  17
HETATM   17  C12 UNL     1      23.973   3.456  51.644  1.00  0.00     0.179 C 
HETATM   18  S1  UNL     1      23.399   4.589  52.642  1.00  0.00    -0.040 SA
BRANCH  17  19
HETATM   19  N2  UNL     1      24.250   3.458  50.230  1.00  0.00    -0.333 N 
HETATM   20  H13 UNL     1      23.776   2.810  49.610  1.00  0.00     0.168 HD
BRANCH  19  21
HETATM   21  C13 UNL     1      25.197   4.354  49.621  1.00  0.00     0.034 A 
HETATM   22  C14 UNL     1      25.036   5.647  49.225  1.00  0.00     0.029 A 
HETATM   23  C15 UNL     1      26.018   6.416  48.667  1.00  0.00     0.002 A 
HETATM   24  C16 UNL     1      27.270   5.891  48.471  1.00  0.00     0.000 A 
HETATM   25  C17 UNL     1      27.512   4.596  48.843  1.00  0.00     0.002 A 
HETATM   26  C18 UNL     1      26.495   3.878  49.394  1.00  0.00     0.029 A 
ENDBRANCH  19  21
ENDBRANCH  17  19
ENDBRANCH   1  17
TORSDOF 7
ENDMDL
MODEL 2
REMARK VINA RESULT:      -7.7      2.731      6.212
REMARK  7 active torsions:
REMARK  status: ('A' for Active; 'I' for Inactive)
REMARK    1  A    between atoms: O1_2  and  C2_3 
REMARK    2  A    between atoms: C5_6  and  N1_7 
REMARK    3  A    between atoms: N1_7  and  C6_8 
REMARK    4  A    between atoms: N1_7  and  C12_15 
REMARK    5  A    between atoms: C6_8  and  C7_9 
REMARK    6  A    between atoms: C12_15  and  N2_17 
REMARK    7  A    between atoms: N2_17  and  C13_18 
ROOT
HETATM    1  N1  UNL     1      23.590   2.996  51.459  1.00  0.00    -0.324 N 
ENDROOT
BRANCH   1   2
HETATM    2  C5  UNL     1      22.305   2.392  51.587  1.00  0.00     0.014 C 
HETATM    3  C4  UNL     1      20.883   2.584  51.934  1.00  0.00     0.086 C 
HETATM    4  C3  UNL     1      20.471   1.561  52.967  1.00  0.00     0.012 C 
HETATM    5  C2  UNL     1      20.667   0.305  52.645  1.00  0.00     0.045 C 
HETATM    6  C20 UNL     1      21.271   0.175  51.293  1.00  0.00     0.093 C 
HETATM    7  C19 UNL     1      22.471   1.092  51.250  1.00  0.00     0.005 C 
BRANCH   5   8
HETATM    8  O1  UNL     1      20.356  -0.775  53.451  1.00  0.00    -0.360 OA
HETATM    9  C1  UNL     1      21.387  -1.327  54.276  1.00  0.00     0.209 C 
ENDBRANCH   5   8
ENDBRANCH   1   2
BRANCH   1  10
HETATM   10  C6  UNL     1      23.950   2.793  50.076  1.00  0.00     0.167 C 
BRANCH  10  11
HETATM   11  C7  UNL     1      25.071   3.657  49.652  1.00  0.00    -0.040 A 
HETATM   12  C8  UNL     1      26.304   3.303  49.448  1.00  0.00     0.006 A 
HETATM   13  C9  UNL     1      26.949   4.535  49.047  1.00  0.00    -0.002 A 
HETATM   14  C10 UNL     1      26.173   5.595  49.003  1.00  0.00    -0.002 A 
HETATM   15  C11 UNL     1      24.814   5.121  49.424  1.00  0.00     0.135 A 
HETATM   16 CL1  UNL     1      23.582   5.341  48.171  1.00  0.00    -0.116 Cl
ENDBRANCH  10  11
ENDBRANCH   1  10
BRANCH   1  17
HETATM   17  C12 UNL     1      24.198   3.669  52.597  1.00  0.00     0.179 C 
HETATM   18  S1  UNL     1      23.405   5.001  53.051  1.00  0.00    -0.040 SA
BRANCH  17  19
HETATM   19  N2  UNL     1      25.382   3.024  53.104  1.00  0.00    -0.333 N 
HETATM   20  H13 UNL     1      26.140   3.570  53.499  1.00  0.00     0.168 HD
BRANCH  19  21
HETATM   21  C13 UNL     1      25.565   1.597  53.080  1.00  0.00     0.034 A 
HETATM   22  C14 UNL     1      24.902   0.626  53.767  1.00  0.00     0.029 A 
HETATM   23  C15 UNL     1      25.150  -0.713  53.653  1.00  0.00     0.002 A 
HETATM   24  C16 UNL     1      26.128  -1.158  52.802  1.00  0.00     0.000 A 
HETATM   25  C17 UNL     1      26.841  -0.244  52.075  1.00  0.00     0.002 A 
HETATM   26  C18 UNL     1      26.550   1.078  52.229  1.00  0.00     0.029 A 
ENDBRANCH  19  21
ENDBRANCH  17  19
ENDBRANCH   1  17
TORSDOF 7
ENDMDL
MODEL 3
REMARK VINA RESULT:      -7.4      2.462      5.034
REMARK  7 active torsions:
REMARK  status: ('A' for Active; 'I' for Inactive)
REMARK    1  A    between atoms: O1_2  and  C2_3 
REMARK    2  A    between atoms: C5_6  and  N1_7 
REMARK    3  A    between atoms: N1_7  and  C6_8 
REMARK    4  A    between atoms: N1_7  and  C12_15 
REMARK    5  A    between atoms: C6_8  and  C7_9 
REMARK    6  A    between atoms: C12_15  and  N2_17 
REMARK    7  A    between atoms: N2_17  and  C13_18 
ROOT
HETATM    1  N1  UNL     1      23.174   2.275  52.051  1.00  0.00    -0.324 N 
ENDROOT
BRANCH   1   2
HETATM    2  C5  UNL     1      22.220   1.271  51.718  1.00  0.00     0.014 C 
HETATM    3  C4  UNL     1      21.596   0.472  50.645  1.00  0.00     0.086 C 
HETATM    4  C3  UNL     1      20.093   0.600  50.724  1.00  0.00     0.012 C 
HETATM    5  C2  UNL     1      19.546   0.277  51.871  1.00  0.00     0.045 C 
HETATM    6  C20 UNL     1      20.567  -0.155  52.862  1.00  0.00     0.093 C 
HETATM    7  C19 UNL     1      21.642   0.907  52.887  1.00  0.00     0.005 C 
BRANCH   5   8
HETATM    8  O1  UNL     1      18.191   0.327  52.142  1.00  0.00    -0.360 OA
HETATM    9  C1  UNL     1      17.538  -0.873  52.570  1.00  0.00     0.209 C 
ENDBRANCH   5   8
ENDBRANCH   1   2
BRANCH   1  10
HETATM   10  C6  UNL     1      23.902   1.728  53.170  1.00  0.00     0.167 C 
BRANCH  10  11
HETATM   11  C7  UNL     1      25.061   0.915  52.749  1.00  0.00    -0.040 A 
HETATM   12  C8  UNL     1      26.104   1.315  52.086  1.00  0.00     0.006 A 
HETATM   13  C9  UNL     1      26.907   0.117  51.961  1.00  0.00    -0.002 A 
HETATM   14  C10 UNL     1      26.402  -0.966  52.508  1.00  0.00    -0.002 A 
HETATM   15  C11 UNL     1      25.084  -0.549  53.090  1.00  0.00     0.135 A 
HETATM   16 CL1  UNL     1      24.998  -0.771  54.845  1.00  0.00    -0.116 Cl
ENDBRANCH  10  11
ENDBRANCH   1  10
BRANCH   1  17
HETATM   17  C12 UNL     1      23.260   3.494  51.259  1.00  0.00     0.179 C 
HETATM   18  S1  UNL     1      22.630   4.783  52.001  1.00  0.00    -0.040 SA
BRANCH  17  19
HETATM   19  N2  UNL     1      23.889   3.324  49.975  1.00  0.00    -0.333 N 
HETATM   20  H13 UNL     1      23.623   2.557  49.366  1.00  0.00     0.168 HD
BRANCH  19  21
HETATM   21  C13 UNL     1      24.913   4.207  49.484  1.00  0.00     0.034 A 
HETATM   22  C14 UNL     1      24.815   5.496  49.055  1.00  0.00     0.029 A 
HETATM   23  C15 UNL     1      25.867   6.253  48.621  1.00  0.00     0.002 A 
HETATM   24  C16 UNL     1      27.129   5.718  48.594  1.00  0.00     0.000 A 
HETATM   25  C17 UNL     1      27.312   4.427  49.010  1.00  0.00     0.002 A 
HETATM   26  C18 UNL     1      26.227   3.721  49.432  1.00  0.00     0.029 A 
ENDBRANCH  19  21
ENDBRANCH  17  19
ENDBRANCH   1  17
TORSDOF 7
ENDMDL
MODEL 4
REMARK VINA RESULT:      -7.4      2.506      6.099
REMARK  7 active torsions:
REMARK  status: ('A' for Active; 'I' for Inactive)
REMARK    1  A    between atoms: O1_2  and  C2_3 
REMARK    2  A    between atoms: C5_6  and  N1_7 
REMARK    3  A    between atoms: N1_7  and  C6_8 
REMARK    4  A    between atoms: N1_7  and  C12_15 
REMARK    5  A    between atoms: C6_8  and  C7_9 
REMARK    6  A    between atoms: C12_15  and  N2_17 
REMARK    7  A    between atoms: N2_17  and  C13_18 
ROOT
HETATM    1  N1  UNL     1      24.652   2.399  51.246  1.00  0.00    -0.324 N 
ENDROOT
BRANCH   1   2
HETATM    2  C5  UNL     1      25.475   2.001  52.339  1.00  0.00     0.014 C 
HETATM    3  C4  UNL     1      26.023   2.359  53.662  1.00  0.00     0.086 C 
HETATM    4  C3  UNL     1      27.527   2.209  53.646  1.00  0.00     0.012 C 
HETATM    5  C2  UNL     1      27.985   1.031  53.297  1.00  0.00     0.045 C 
HETATM    6  C20 UNL     1      26.882   0.084  52.987  1.00  0.00     0.093 C 
HETATM    7  C19 UNL     1      25.958   0.779  52.014  1.00  0.00     0.005 C 
BRANCH   5   8
HETATM    8  O1  UNL     1      29.325   0.695  53.222  1.00  0.00    -0.360 OA
HETATM    9  C1  UNL     1      29.713  -0.640  53.564  1.00  0.00     0.209 C 
ENDBRANCH   5   8
ENDBRANCH   1   2
BRANCH   1  10
HETATM   10  C6  UNL     1      25.568   2.978  50.293  1.00  0.00     0.167 C 
BRANCH  10  11
HETATM   11  C7  UNL     1      25.388   4.437  50.150  1.00  0.00    -0.040 A 
HETATM   12  C8  UNL     1      24.806   5.244  50.984  1.00  0.00     0.006 A 
HETATM   13  C9  UNL     1      24.926   6.537  50.345  1.00  0.00    -0.002 A 
HETATM   14  C10 UNL     1      25.542   6.544  49.184  1.00  0.00    -0.002 A 
HETATM   15  C11 UNL     1      25.911   5.115  48.913  1.00  0.00     0.135 A 
HETATM   16 CL1  UNL     1      27.658   4.864  48.768  1.00  0.00    -0.116 Cl
ENDBRANCH  10  11
ENDBRANCH   1  10
BRANCH   1  17
HETATM   17  C12 UNL     1      23.221   2.130  51.273  1.00  0.00     0.179 C 
HETATM   18  S1  UNL     1      22.574   1.972  49.802  1.00  0.00    -0.040 SA
BRANCH  17  19
HETATM   19  N2  UNL     1      22.657   2.052  52.595  1.00  0.00    -0.333 N 
HETATM   20  H13 UNL     1      22.612   2.874  53.188  1.00  0.00     0.168 HD
BRANCH  19  21
HETATM   21  C13 UNL     1      22.136   0.832  53.151  1.00  0.00     0.034 A 
HETATM   22  C14 UNL     1      22.786  -0.169  53.809  1.00  0.00     0.029 A 
HETATM   23  C15 UNL     1      22.183  -1.287  54.313  1.00  0.00     0.002 A 
HETATM   24  C16 UNL     1      20.830  -1.458  54.170  1.00  0.00     0.000 A 
HETATM   25  C17 UNL     1      20.104  -0.497  53.520  1.00  0.00     0.002 A 
HETATM   26  C18 UNL     1      20.759   0.596  53.039  1.00  0.00     0.029 A 
ENDBRANCH  19  21
ENDBRANCH  17  19
ENDBRANCH   1  17
TORSDOF 7
ENDMDL
MODEL 5
REMARK VINA RESULT:      -7.3      1.706      2.181
REMARK  7 active torsions:
REMARK  status: ('A' for Active; 'I' for Inactive)
REMARK    1  A    between atoms: O1_2  and  C2_3 
REMARK    2  A    between atoms: C5_6  and  N1_7 
REMARK    3  A    between atoms: N1_7  and  C6_8 
REMARK    4  A    between atoms: N1_7  and  C12_15 
REMARK    5  A    between atoms: C6_8  and  C7_9 
REMARK    6  A    between atoms: C12_15  and  N2_17 
REMARK    7  A    between atoms: N2_17  and  C13_18 
ROOT
HETATM    1  N1  UNL     1      24.022   2.534  52.213  1.00  0.00    -0.324 N 
ENDROOT
BRANCH   1   2
HETATM    2  C5  UNL     1      25.360   2.045  52.162  1.00  0.00     0.014 C 
HETATM    3  C4  UNL     1      26.406   1.406  51.340  1.00  0.00     0.086 C 
HETATM    4  C3  UNL     1      26.948   0.194  52.061  1.00  0.00     0.012 C 
HETATM    5  C2  UNL     1      27.418   0.402  53.267  1.00  0.00     0.045 C 
HETATM    6  C20 UNL     1      27.305   1.831  53.659  1.00  0.00     0.093 C 
HETATM    7  C19 UNL     1      25.880   2.255  53.394  1.00  0.00     0.005 C 
BRANCH   5   8
HETATM    8  O1  UNL     1      27.956  -0.576  54.085  1.00  0.00    -0.360 OA
HETATM    9  C1  UNL     1      29.296  -1.010  53.836  1.00  0.00     0.209 C 
ENDBRANCH   5   8
ENDBRANCH   1   2
BRANCH   1  10
HETATM   10  C6  UNL     1      23.314   1.572  53.022  1.00  0.00     0.167 C 
BRANCH  10  11
HETATM   11  C7  UNL     1      22.064   1.109  52.387  1.00  0.00    -0.040 A 
HETATM   12  C8  UNL     1      21.919   0.636  51.186  1.00  0.00     0.006 A 
HETATM   13  C9  UNL     1      20.504   0.342  51.105  1.00  0.00    -0.002 A 
HETATM   14  C10 UNL     1      19.804   0.614  52.183  1.00  0.00    -0.002 A 
HETATM   15  C11 UNL     1      20.781   1.181  53.170  1.00  0.00     0.135 A 
HETATM   16 CL1  UNL     1      20.911   0.219  54.651  1.00  0.00    -0.116 Cl
ENDBRANCH  10  11
ENDBRANCH   1  10
BRANCH   1  17
HETATM   17  C12 UNL     1      23.677   3.790  51.562  1.00  0.00     0.179 C 
HETATM   18  S1  UNL     1      22.729   4.737  52.463  1.00  0.00    -0.040 SA
BRANCH  17  19
HETATM   19  N2  UNL     1      24.245   3.952  50.249  1.00  0.00    -0.333 N 
HETATM   20  H13 UNL     1      25.243   4.092  50.130  1.00  0.00     0.168 HD
BRANCH  19  21
HETATM   21  C13 UNL     1      23.453   3.932  49.048  1.00  0.00     0.034 A 
HETATM   22  C14 UNL     1      23.067   4.963  48.246  1.00  0.00     0.029 A 
HETATM   23  C15 UNL     1      22.322   4.824  47.109  1.00  0.00     0.002 A 
HETATM   24  C16 UNL     1      21.908   3.580  46.709  1.00  0.00     0.000 A 
HETATM   25  C17 UNL     1      22.255   2.491  47.461  1.00  0.00     0.002 A 
HETATM   26  C18 UNL     1      22.999   2.690  48.584  1.00  0.00     0.029 A 
ENDBRANCH  19  21
ENDBRANCH  17  19
ENDBRANCH   1  17
TORSDOF 7
ENDMDL
MODEL 6
REMARK VINA RESULT:      -7.3      2.507      5.527
REMARK  7 active torsions:
REMARK  status: ('A' for Active; 'I' for Inactive)
REMARK    1  A    between atoms: O1_2  and  C2_3 
REMARK    2  A    between atoms: C5_6  and  N1_7 
REMARK    3  A    between atoms: N1_7  and  C6_8 
REMARK    4  A    between atoms: N1_7  and  C12_15 
REMARK    5  A    between atoms: C6_8  and  C7_9 
REMARK    6  A    between atoms: C12_15  and  N2_17 
REMARK    7  A    between atoms: N2_17  and  C13_18 
ROOT
HETATM    1  N1  UNL     1      23.278   2.992  51.484  1.00  0.00    -0.324 N 
ENDROOT
BRANCH   1   2
HETATM    2  C5  UNL     1      24.623   2.650  51.806  1.00  0.00     0.014 C 
HETATM    3  C4  UNL     1      25.965   2.315  51.290  1.00  0.00     0.086 C 
HETATM    4  C3  UNL     1      26.439   1.022  51.912  1.00  0.00     0.012 C 
HETATM    5  C2  UNL     1      26.463   0.986  53.222  1.00  0.00     0.045 C 
HETATM    6  C20 UNL     1      26.002   2.270  53.813  1.00  0.00     0.093 C 
HETATM    7  C19 UNL     1      24.685   2.615  53.158  1.00  0.00     0.005 C 
BRANCH   5   8
HETATM    8  O1  UNL     1      26.864  -0.102  53.976  1.00  0.00    -0.360 OA
HETATM    9  C1  UNL     1      28.146  -0.055  54.610  1.00  0.00     0.209 C 
ENDBRANCH   5   8
ENDBRANCH   1   2
BRANCH   1  10
HETATM   10  C6  UNL     1      22.976   4.118  52.335  1.00  0.00     0.167 C 
BRANCH  10  11
HETATM   11  C7  UNL     1      22.974   5.399  51.600  1.00  0.00    -0.040 A 
HETATM   12  C8  UNL     1      24.001   6.030  51.116  1.00  0.00     0.006 A 
HETATM   13  C9  UNL     1      23.419   7.204  50.502  1.00  0.00    -0.002 A 
HETATM   14  C10 UNL     1      22.112   7.307  50.594  1.00  0.00    -0.002 A 
HETATM   15  C11 UNL     1      21.665   6.099  51.364  1.00  0.00     0.135 A 
HETATM   16 CL1  UNL     1      20.567   5.056  50.446  1.00  0.00    -0.116 Cl
ENDBRANCH  10  11
ENDBRANCH   1  10
BRANCH   1  17
HETATM   17  C12 UNL     1      22.566   2.262  50.445  1.00  0.00     0.179 C 
HETATM   18  S1  UNL     1      23.054   2.637  48.952  1.00  0.00    -0.040 SA
BRANCH  17  19
HETATM   19  N2  UNL     1      21.569   1.348  50.939  1.00  0.00    -0.333 N 
HETATM   20  H13 UNL     1      20.721   1.173  50.413  1.00  0.00     0.168 HD
BRANCH  19  21
HETATM   21  C13 UNL     1      21.708   0.642  52.186  1.00  0.00     0.034 A 
HETATM   22  C14 UNL     1      22.614  -0.308  52.549  1.00  0.00     0.029 A 
HETATM   23  C15 UNL     1      22.663  -0.905  53.777  1.00  0.00     0.002 A 
HETATM   24  C16 UNL     1      21.755  -0.558  54.743  1.00  0.00     0.000 A 
HETATM   25  C17 UNL     1      20.810   0.389  54.457  1.00  0.00     0.002 A 
HETATM   26  C18 UNL     1      20.810   0.951  53.216  1.00  0.00     0.029 A 
ENDBRANCH  19  21
ENDBRANCH  17  19
ENDBRANCH   1  17
TORSDOF 7
ENDMDL
MODEL 7
REMARK VINA RESULT:      -7.3      2.983      4.847
REMARK  7 active torsions:
REMARK  status: ('A' for Active; 'I' for Inactive)
REMARK    1  A    between atoms: O1_2  and  C2_3 
REMARK    2  A    between atoms: C5_6  and  N1_7 
REMARK    3  A    between atoms: N1_7  and  C6_8 
REMARK    4  A    between atoms: N1_7  and  C12_15 
REMARK    5  A    between atoms: C6_8  and  C7_9 
REMARK    6  A    between atoms: C12_15  and  N2_17 
REMARK    7  A    between atoms: N2_17  and  C13_18 
ROOT
HETATM    1  N1  UNL     1      23.882   0.377  52.686  1.00  0.00    -0.324 N 
ENDROOT
BRANCH   1   2
HETATM    2  C5  UNL     1      24.991  -0.129  53.423  1.00  0.00     0.014 C 
HETATM    3  C4  UNL     1      25.567  -0.390  54.757  1.00  0.00     0.086 C 
HETATM    4  C3  UNL     1      26.945   0.224  54.844  1.00  0.00     0.012 C 
HETATM    5  C2  UNL     1      27.803  -0.151  53.926  1.00  0.00     0.045 C 
HETATM    6  C20 UNL     1      27.200  -1.128  52.981  1.00  0.00     0.093 C 
HETATM    7  C19 UNL     1      25.895  -0.537  52.502  1.00  0.00     0.005 C 
BRANCH   5   8
HETATM    8  O1  UNL     1      29.109   0.296  53.835  1.00  0.00    -0.360 OA
HETATM    9  C1  UNL     1      30.139  -0.662  53.571  1.00  0.00     0.209 C 
ENDBRANCH   5   8
ENDBRANCH   1   2
BRANCH   1  10
HETATM   10  C6  UNL     1      24.465   1.292  51.734  1.00  0.00     0.167 C 
BRANCH  10  11
HETATM   11  C7  UNL     1      24.039   2.688  51.956  1.00  0.00    -0.040 A 
HETATM   12  C8  UNL     1      23.956   3.315  53.090  1.00  0.00     0.006 A 
HETATM   13  C9  UNL     1      23.498   4.636  52.715  1.00  0.00    -0.002 A 
HETATM   14  C10 UNL     1      23.303   4.827  51.430  1.00  0.00    -0.002 A 
HETATM   15  C11 UNL     1      23.633   3.521  50.771  1.00  0.00     0.135 A 
HETATM   16 CL1  UNL     1      24.972   3.642  49.618  1.00  0.00    -0.116 Cl
ENDBRANCH  10  11
ENDBRANCH   1  10
BRANCH   1  17
HETATM   17  C12 UNL     1      22.537  -0.106  52.963  1.00  0.00     0.179 C 
HETATM   18  S1  UNL     1      22.315  -0.529  54.506  1.00  0.00    -0.040 SA
BRANCH  17  19
HETATM   19  N2  UNL     1      21.662  -0.113  51.819  1.00  0.00    -0.333 N 
HETATM   20  H13 UNL     1      21.483  -0.972  51.310  1.00  0.00     0.168 HD
BRANCH  19  21
HETATM   21  C13 UNL     1      21.003   1.070  51.333  1.00  0.00     0.034 A 
HETATM   22  C14 UNL     1      20.755   1.460  50.052  1.00  0.00     0.029 A 
HETATM   23  C15 UNL     1      20.101   2.608  49.702  1.00  0.00     0.002 A 
HETATM   24  C16 UNL     1      19.645   3.459  50.676  1.00  0.00     0.000 A 
HETATM   25  C17 UNL     1      19.854   3.138  51.990  1.00  0.00     0.002 A 
HETATM   26  C18 UNL     1      20.513   1.981  52.278  1.00  0.00     0.029 A 
ENDBRANCH  19  21
ENDBRANCH  17  19
ENDBRANCH   1  17
TORSDOF 7
ENDMDL
MODEL 8
REMARK VINA RESULT:      -7.1      2.374      3.101
REMARK  7 active torsions:
REMARK  status: ('A' for Active; 'I' for Inactive)
REMARK    1  A    between atoms: O1_2  and  C2_3 
REMARK    2  A    between atoms: C5_6  and  N1_7 
REMARK    3  A    between atoms: N1_7  and  C6_8 
REMARK    4  A    between atoms: N1_7  and  C12_15 
REMARK    5  A    between atoms: C6_8  and  C7_9 
REMARK    6  A    between atoms: C12_15  and  N2_17 
REMARK    7  A    between atoms: N2_17  and  C13_18 
ROOT
HETATM    1  N1  UNL     1      24.549   3.247  51.676  1.00  0.00    -0.324 N 
ENDROOT
BRANCH   1   2
HETATM    2  C5  UNL     1      25.503   2.272  52.087  1.00  0.00     0.014 C 
HETATM    3  C4  UNL     1      26.492   1.261  51.663  1.00  0.00     0.086 C 
HETATM    4  C3  UNL     1      26.196  -0.055  52.343  1.00  0.00     0.012 C 
HETATM    5  C2  UNL     1      26.144  -0.029  53.653  1.00  0.00     0.045 C 
HETATM    6  C20 UNL     1      26.398   1.336  54.184  1.00  0.00     0.093 C 
HETATM    7  C19 UNL     1      25.483   2.281  53.441  1.00  0.00     0.005 C 
BRANCH   5   8
HETATM    8  O1  UNL     1      25.888  -1.126  54.456  1.00  0.00    -0.360 OA
HETATM    9  C1  UNL     1      24.790  -1.058  55.372  1.00  0.00     0.209 C 
ENDBRANCH   5   8
ENDBRANCH   1   2
BRANCH   1  10
HETATM   10  C6  UNL     1      23.297   2.784  52.224  1.00  0.00     0.167 C 
BRANCH  10  11
HETATM   11  C7  UNL     1      22.524   1.973  51.262  1.00  0.00    -0.040 A 
HETATM   12  C8  UNL     1      22.527   2.071  49.967  1.00  0.00     0.006 A 
HETATM   13  C9  UNL     1      21.605   1.038  49.546  1.00  0.00    -0.002 A 
HETATM   14  C10 UNL     1      21.055   0.338  50.512  1.00  0.00    -0.002 A 
HETATM   15  C11 UNL     1      21.605   0.904  51.787  1.00  0.00     0.135 A 
HETATM   16 CL1  UNL     1      22.519  -0.279  52.736  1.00  0.00    -0.116 Cl
ENDBRANCH  10  11
ENDBRANCH   1  10
BRANCH   1  17
HETATM   17  C12 UNL     1      24.976   4.414  50.917  1.00  0.00     0.179 C 
HETATM   18  S1  UNL     1      25.786   4.039  49.571  1.00  0.00    -0.040 SA
BRANCH  17  19
HETATM   19  N2  UNL     1      24.597   5.673  51.503  1.00  0.00    -0.333 N 
HETATM   20  H13 UNL     1      25.003   5.980  52.380  1.00  0.00     0.168 HD
BRANCH  19  21
HETATM   21  C13 UNL     1      23.635   6.557  50.899  1.00  0.00     0.034 A 
HETATM   22  C14 UNL     1      23.834   7.719  50.215  1.00  0.00     0.029 A 
HETATM   23  C15 UNL     1      22.839   8.476  49.665  1.00  0.00     0.002 A 
HETATM   24  C16 UNL     1      21.532   8.081  49.786  1.00  0.00     0.000 A 
HETATM   25  C17 UNL     1      21.248   6.924  50.460  1.00  0.00     0.002 A 
HETATM   26  C18 UNL     1      22.281   6.210  50.987  1.00  0.00     0.029 A 
ENDBRANCH  19  21
ENDBRANCH  17  19
ENDBRANCH   1  17
TORSDOF 7
ENDMDL
MODEL 9
REMARK VINA RESULT:      -7.1      2.415      6.197
REMARK  7 active torsions:
REMARK  status: ('A' for Active; 'I' for Inactive)
REMARK    1  A    between atoms: O1_2  and  C2_3 
REMARK    2  A    between atoms: C5_6  and  N1_7 
REMARK    3  A    between atoms: N1_7  and  C6_8 
REMARK    4  A    between atoms: N1_7  and  C12_15 
REMARK    5  A    between atoms: C6_8  and  C7_9 
REMARK    6  A    between atoms: C12_15  and  N2_17 
REMARK    7  A    between atoms: N2_17  and  C13_18 
ROOT
HETATM    1  N1  UNL     1      22.915   2.260  51.063  1.00  0.00    -0.324 N 
ENDROOT
BRANCH   1   2
HETATM    2  C5  UNL     1      23.725   2.081  52.221  1.00  0.00     0.014 C 
HETATM    3  C4  UNL     1      24.544   2.731  53.264  1.00  0.00     0.086 C 
HETATM    4  C3  UNL     1      25.909   2.084  53.314  1.00  0.00     0.012 C 
HETATM    5  C2  UNL     1      25.925   0.787  53.504  1.00  0.00     0.045 C 
HETATM    6  C20 UNL     1      24.551   0.234  53.629  1.00  0.00     0.093 C 
HETATM    7  C19 UNL     1      23.755   0.747  52.452  1.00  0.00     0.005 C 
BRANCH   5   8
HETATM    8  O1  UNL     1      27.070   0.014  53.580  1.00  0.00    -0.360 OA
HETATM    9  C1  UNL     1      28.016   0.299  54.615  1.00  0.00     0.209 C 
ENDBRANCH   5   8
ENDBRANCH   1   2
BRANCH   1  10
HETATM   10  C6  UNL     1      23.826   2.110  49.955  1.00  0.00     0.167 C 
BRANCH  10  11
HETATM   11  C7  UNL     1      24.617   3.331  49.704  1.00  0.00    -0.040 A 
HETATM   12  C8  UNL     1      25.911   3.440  49.682  1.00  0.00     0.006 A 
HETATM   13  C9  UNL     1      26.129   4.840  49.386  1.00  0.00    -0.002 A 
HETATM   14  C10 UNL     1      25.044   5.566  49.234  1.00  0.00    -0.002 A 
HETATM   15  C11 UNL     1      23.895   4.625  49.448  1.00  0.00     0.135 A 
HETATM   16 CL1  UNL     1      22.847   4.474  48.029  1.00  0.00    -0.116 Cl
ENDBRANCH  10  11
ENDBRANCH   1  10
BRANCH   1  17
HETATM   17  C12 UNL     1      21.482   2.480  51.201  1.00  0.00     0.179 C 
HETATM   18  S1  UNL     1      21.117   3.829  52.009  1.00  0.00    -0.040 SA
BRANCH  17  19
HETATM   19  N2  UNL     1      20.665   1.462  50.591  1.00  0.00    -0.333 N 
HETATM   20  H13 UNL     1      20.714   1.288  49.593  1.00  0.00     0.168 HD
BRANCH  19  21
HETATM   21  C13 UNL     1      19.744   0.648  51.339  1.00  0.00     0.034 A 
HETATM   22  C14 UNL     1      18.461   0.298  51.047  1.00  0.00     0.029 A 
HETATM   23  C15 UNL     1      17.677  -0.502  51.830  1.00  0.00     0.002 A 
HETATM   24  C16 UNL     1      18.173  -1.009  53.003  1.00  0.00     0.000 A 
HETATM   25  C17 UNL     1      19.456  -0.704  53.369  1.00  0.00     0.002 A 
HETATM   26  C18 UNL     1      20.190   0.098  52.549  1.00  0.00     0.029 A 
ENDBRANCH  19  21
ENDBRANCH  17  19
ENDBRANCH   1  17
TORSDOF 7
ENDMDL
