MODEL 1
REMARK VINA RESULT:      -7.1      0.000      0.000
REMARK  0 active torsions:
REMARK  status: ('A' for Active; 'I' for Inactive)
ROOT
HETATM    1  C1  UNL     1      26.296   4.636  49.276  1.00  0.00     0.311 C 
HETATM    2  N1  UNL     1      25.575   4.362  50.484  1.00  0.00     0.098 N 
HETATM    3  C2  UNL     1      24.438   5.313  50.523  1.00  0.00     0.329 C 
HETATM    4  C3  UNL     1      23.372   4.608  51.357  1.00  0.00     0.034 C 
HETATM    5  C4  UNL     1      23.380   4.358  52.724  1.00  0.00     0.027 C 
HETATM    6  C5  UNL     1      24.541   3.405  53.106  1.00  0.00     0.009 C 
HETATM    7  C6  UNL     1      24.961   2.630  52.051  1.00  0.00    -0.019 C 
HETATM    8  C7  UNL     1      25.122   2.997  50.592  1.00  0.00     0.256 C 
HETATM    9  C8  UNL     1      23.937   2.760  49.756  1.00  0.00     0.069 C 
HETATM   10  C9  UNL     1      22.567   2.671  50.267  1.00  0.00     0.108 C 
HETATM   11  C10 UNL     1      22.220   1.332  50.829  1.00  0.00     0.015 C 
HETATM   12  C11 UNL     1      22.660   0.813  51.995  1.00  0.00     0.082 C 
HETATM   13  N2  UNL     1      23.720   0.858  52.984  1.00  0.00    -0.386 N 
HETATM   14  C12 UNL     1      25.085   1.417  52.890  1.00  0.00     0.059 C 
HETATM   15  C13 UNL     1      25.697   1.554  54.225  1.00  0.00     0.062 C 
HETATM   16  C14 UNL     1      26.432   0.248  54.627  1.00  0.00     0.170 C 
HETATM   17  O1  UNL     1      27.531   0.040  53.813  1.00  0.00    -0.391 OA
HETATM   18  C15 UNL     1      27.349   0.429  52.492  1.00  0.00     0.170 C 
HETATM   19  C16 UNL     1      25.882   0.406  52.122  1.00  0.00     0.062 C 
HETATM   20  N3  UNL     1      22.142   3.807  51.151  1.00  0.00    -0.384 N 
HETATM   21  H14 UNL     1      23.426   0.417  53.884  1.00  0.00     0.160 HD
HETATM   22  H23 UNL     1      21.489   4.374  51.730  1.00  0.00     0.160 HD
ENDROOT
TORSDOF 0
ENDMDL
MODEL 2
REMARK VINA RESULT:      -6.9      1.622      3.087
REMARK  0 active torsions:
REMARK  status: ('A' for Active; 'I' for Inactive)
ROOT
HETATM    1  C1  UNL     1      21.177   1.054  48.862  1.00  0.00     0.311 C 
HETATM    2  N1  UNL     1      22.367   1.758  49.236  1.00  0.00     0.098 N 
HETATM    3  C2  UNL     1      22.448   2.949  48.357  1.00  0.00     0.329 C 
HETATM    4  C3  UNL     1      23.243   3.972  49.163  1.00  0.00     0.034 C 
HETATM    5  C4  UNL     1      24.597   3.950  49.479  1.00  0.00     0.027 C 
HETATM    6  C5  UNL     1      24.936   2.734  50.379  1.00  0.00     0.009 C 
HETATM    7  C6  UNL     1      23.846   2.269  51.076  1.00  0.00    -0.019 C 
HETATM    8  C7  UNL     1      22.407   2.130  50.629  1.00  0.00     0.256 C 
HETATM    9  C8  UNL     1      21.557   3.298  50.895  1.00  0.00     0.069 C 
HETATM   10  C9  UNL     1      22.058   4.661  51.089  1.00  0.00     0.108 C 
HETATM   11  C10 UNL     1      22.553   4.929  52.472  1.00  0.00     0.015 C 
HETATM   12  C11 UNL     1      23.694   4.458  53.021  1.00  0.00     0.082 C 
HETATM   13  N2  UNL     1      24.688   3.404  52.961  1.00  0.00    -0.386 N 
HETATM   14  C12 UNL     1      24.625   2.074  52.318  1.00  0.00     0.059 C 
HETATM   15  C13 UNL     1      25.967   1.472  52.211  1.00  0.00     0.062 C 
HETATM   16  C14 UNL     1      26.307   0.661  53.489  1.00  0.00     0.170 C 
HETATM   17  O1  UNL     1      25.488  -0.448  53.593  1.00  0.00    -0.391 OA
HETATM   18  C15 UNL     1      24.187  -0.244  53.151  1.00  0.00     0.170 C 
HETATM   19  C16 UNL     1      23.812   1.218  53.242  1.00  0.00     0.062 C 
HETATM   20  N3  UNL     1      22.995   5.153  50.024  1.00  0.00    -0.384 N 
HETATM   21  H14 UNL     1      25.563   3.671  53.463  1.00  0.00     0.160 HD
HETATM   22  H23 UNL     1      23.599   5.838  49.526  1.00  0.00     0.160 HD
ENDROOT
TORSDOF 0
ENDMDL
MODEL 3
REMARK VINA RESULT:      -6.7      1.909      2.483
REMARK  0 active torsions:
REMARK  status: ('A' for Active; 'I' for Inactive)
ROOT
HETATM    1  C1  UNL     1      22.643   3.261  47.984  1.00  0.00     0.311 C 
HETATM    2  N1  UNL     1      22.445   3.330  49.401  1.00  0.00     0.098 N 
HETATM    3  C2  UNL     1      21.026   3.703  49.613  1.00  0.00     0.329 C 
HETATM    4  C3  UNL     1      20.673   3.123  50.980  1.00  0.00     0.034 C 
HETATM    5  C4  UNL     1      21.108   3.550  52.230  1.00  0.00     0.027 C 
HETATM    6  C5  UNL     1      22.642   3.377  52.370  1.00  0.00     0.009 C 
HETATM    7  C6  UNL     1      23.149   2.419  51.524  1.00  0.00    -0.019 C 
HETATM    8  C7  UNL     1      22.775   2.107  50.092  1.00  0.00     0.256 C 
HETATM    9  C8  UNL     1      21.719   1.099  49.929  1.00  0.00     0.069 C 
HETATM   10  C9  UNL     1      20.731   0.760  50.957  1.00  0.00     0.108 C 
HETATM   11  C10 UNL     1      21.238  -0.194  51.987  1.00  0.00     0.015 C 
HETATM   12  C11 UNL     1      22.125   0.080  52.967  1.00  0.00     0.082 C 
HETATM   13  N2  UNL     1      23.207   0.957  53.371  1.00  0.00    -0.386 N 
HETATM   14  C12 UNL     1      24.047   1.866  52.562  1.00  0.00     0.059 C 
HETATM   15  C13 UNL     1      24.785   2.812  53.420  1.00  0.00     0.062 C 
HETATM   16  C14 UNL     1      26.144   2.206  53.859  1.00  0.00     0.170 C 
HETATM   17  O1  UNL     1      26.987   2.066  52.772  1.00  0.00    -0.391 OA
HETATM   18  C15 UNL     1      26.348   1.710  51.592  1.00  0.00     0.170 C 
HETATM   19  C16 UNL     1      25.051   0.986  51.881  1.00  0.00     0.062 C 
HETATM   20  N3  UNL     1      20.001   1.931  51.548  1.00  0.00    -0.384 N 
HETATM   21  H14 UNL     1      23.383   0.904  54.399  1.00  0.00     0.160 HD
HETATM   22  H23 UNL     1      19.299   2.417  52.143  1.00  0.00     0.160 HD
ENDROOT
TORSDOF 0
ENDMDL
MODEL 4
REMARK VINA RESULT:      -6.6      1.632      2.199
REMARK  0 active torsions:
REMARK  status: ('A' for Active; 'I' for Inactive)
ROOT
HETATM    1  C1  UNL     1      25.733   7.382  50.209  1.00  0.00     0.311 C 
HETATM    2  N1  UNL     1      24.783   6.508  50.831  1.00  0.00     0.098 N 
HETATM    3  C2  UNL     1      23.457   7.159  50.695  1.00  0.00     0.329 C 
HETATM    4  C3  UNL     1      22.457   6.006  50.712  1.00  0.00     0.034 C 
HETATM    5  C4  UNL     1      22.097   5.200  51.785  1.00  0.00     0.027 C 
HETATM    6  C5  UNL     1      23.308   4.371  52.286  1.00  0.00     0.009 C 
HETATM    7  C6  UNL     1      24.270   4.199  51.318  1.00  0.00    -0.019 C 
HETATM    8  C7  UNL     1      24.773   5.176  50.278  1.00  0.00     0.256 C 
HETATM    9  C8  UNL     1      24.064   5.136  48.992  1.00  0.00     0.069 C 
HETATM   10  C9  UNL     1      22.704   4.622  48.811  1.00  0.00     0.108 C 
HETATM   11  C10 UNL     1      22.632   3.135  48.695  1.00  0.00     0.015 C 
HETATM   12  C11 UNL     1      22.809   2.244  49.694  1.00  0.00     0.082 C 
HETATM   13  N2  UNL     1      23.417   2.027  50.993  1.00  0.00    -0.386 N 
HETATM   14  C12 UNL     1      24.489   2.780  51.678  1.00  0.00     0.059 C 
HETATM   15  C13 UNL     1      24.556   2.427  53.108  1.00  0.00     0.062 C 
HETATM   16  C14 UNL     1      25.491   1.209  53.328  1.00  0.00     0.170 C 
HETATM   17  O1  UNL     1      26.802   1.545  53.039  1.00  0.00    -0.391 OA
HETATM   18  C15 UNL     1      26.948   2.427  51.977  1.00  0.00     0.170 C 
HETATM   19  C16 UNL     1      25.767   2.335  51.035  1.00  0.00     0.062 C 
HETATM   20  N3  UNL     1      21.679   5.188  49.751  1.00  0.00    -0.384 N 
HETATM   21  H14 UNL     1      23.001   1.203  51.480  1.00  0.00     0.160 HD
HETATM   22  H23 UNL     1      20.730   5.342  50.149  1.00  0.00     0.160 HD
ENDROOT
TORSDOF 0
ENDMDL
MODEL 5
REMARK VINA RESULT:      -6.4      7.882      9.850
REMARK  0 active torsions:
REMARK  status: ('A' for Active; 'I' for Inactive)
ROOT
HETATM    1  C1  UNL     1      31.808  10.550  45.862  1.00  0.00     0.311 C 
HETATM    2  N1  UNL     1      31.993   9.618  46.934  1.00  0.00     0.098 N 
HETATM    3  C2  UNL     1      31.360  10.219  48.133  1.00  0.00     0.329 C 
HETATM    4  C3  UNL     1      30.965   9.027  49.001  1.00  0.00     0.034 C 
HETATM    5  C4  UNL     1      31.798   8.169  49.709  1.00  0.00     0.027 C 
HETATM    6  C5  UNL     1      32.718   7.373  48.749  1.00  0.00     0.009 C 
HETATM    7  C6  UNL     1      32.202   7.274  47.479  1.00  0.00    -0.019 C 
HETATM    8  C7  UNL     1      31.458   8.306  46.660  1.00  0.00     0.256 C 
HETATM    9  C8  UNL     1      29.997   8.283  46.808  1.00  0.00     0.069 C 
HETATM   10  C9  UNL     1      29.289   7.722  47.962  1.00  0.00     0.108 C 
HETATM   11  C10 UNL     1      29.129   6.239  47.907  1.00  0.00     0.015 C 
HETATM   12  C11 UNL     1      30.102   5.320  48.089  1.00  0.00     0.082 C 
HETATM   13  N2  UNL     1      31.531   5.082  48.026  1.00  0.00    -0.386 N 
HETATM   14  C12 UNL     1      32.594   5.853  47.346  1.00  0.00     0.059 C 
HETATM   15  C13 UNL     1      33.930   5.452  47.824  1.00  0.00     0.062 C 
HETATM   16  C14 UNL     1      34.477   4.265  46.988  1.00  0.00     0.170 C 
HETATM   17  O1  UNL     1      34.730   4.663  45.688  1.00  0.00    -0.391 OA
HETATM   18  C15 UNL     1      33.825   5.588  45.184  1.00  0.00     0.170 C 
HETATM   19  C16 UNL     1      32.495   5.482  45.897  1.00  0.00     0.062 C 
HETATM   20  N3  UNL     1      29.763   8.213  49.299  1.00  0.00    -0.384 N 
HETATM   21  H14 UNL     1      31.803   4.225  48.557  1.00  0.00     0.160 HD
HETATM   22  H23 UNL     1      29.760   8.314  50.335  1.00  0.00     0.160 HD
ENDROOT
TORSDOF 0
ENDMDL
MODEL 6
REMARK VINA RESULT:      -6.3      7.231     10.239
REMARK  0 active torsions:
REMARK  status: ('A' for Active; 'I' for Inactive)
ROOT
HETATM    1  C1  UNL     1      32.829   6.200  43.742  1.00  0.00     0.311 C 
HETATM    2  N1  UNL     1      32.492   5.676  45.031  1.00  0.00     0.098 N 
HETATM    3  C2  UNL     1      33.626   4.815  45.448  1.00  0.00     0.329 C 
HETATM    4  C3  UNL     1      33.590   4.837  46.973  1.00  0.00     0.034 C 
HETATM    5  C4  UNL     1      32.658   4.244  47.817  1.00  0.00     0.027 C 
HETATM    6  C5  UNL     1      31.252   4.863  47.613  1.00  0.00     0.009 C 
HETATM    7  C6  UNL     1      31.302   6.131  47.083  1.00  0.00    -0.019 C 
HETATM    8  C7  UNL     1      32.217   6.693  46.017  1.00  0.00     0.256 C 
HETATM    9  C8  UNL     1      33.456   7.302  46.518  1.00  0.00     0.069 C 
HETATM   10  C9  UNL     1      34.066   6.995  47.814  1.00  0.00     0.108 C 
HETATM   11  C10 UNL     1      33.451   7.733  48.957  1.00  0.00     0.015 C 
HETATM   12  C11 UNL     1      32.237   7.501  49.502  1.00  0.00     0.082 C 
HETATM   13  N2  UNL     1      30.917   6.951  49.259  1.00  0.00    -0.386 N 
HETATM   14  C12 UNL     1      30.240   6.633  47.983  1.00  0.00     0.059 C 
HETATM   15  C13 UNL     1      29.057   5.781  48.207  1.00  0.00     0.062 C 
HETATM   16  C14 UNL     1      27.800   6.649  48.474  1.00  0.00     0.170 C 
HETATM   17  O1  UNL     1      27.449   7.358  47.339  1.00  0.00    -0.391 OA
HETATM   18  C15 UNL     1      28.526   7.801  46.583  1.00  0.00     0.170 C 
HETATM   19  C16 UNL     1      29.762   7.947  47.443  1.00  0.00     0.062 C 
HETATM   20  N3  UNL     1      34.263   5.534  48.096  1.00  0.00    -0.384 N 
HETATM   21  H14 UNL     1      30.406   6.767  50.150  1.00  0.00     0.160 HD
HETATM   22  H23 UNL     1      34.583   4.698  48.627  1.00  0.00     0.160 HD
ENDROOT
TORSDOF 0
ENDMDL
MODEL 7
REMARK VINA RESULT:      -6.2      2.635      4.629
REMARK  0 active torsions:
REMARK  status: ('A' for Active; 'I' for Inactive)
ROOT
HETATM    1  C1  UNL     1      21.086   1.877  48.181  1.00  0.00     0.311 C 
HETATM    2  N1  UNL     1      21.175   2.674  49.368  1.00  0.00     0.098 N 
HETATM    3  C2  UNL     1      20.139   2.167  50.298  1.00  0.00     0.329 C 
HETATM    4  C3  UNL     1      20.667   2.506  51.689  1.00  0.00     0.034 C 
HETATM    5  C4  UNL     1      20.775   3.758  52.284  1.00  0.00     0.027 C 
HETATM    6  C5  UNL     1      21.772   4.655  51.507  1.00  0.00     0.009 C 
HETATM    7  C6  UNL     1      22.683   3.929  50.777  1.00  0.00    -0.019 C 
HETATM    8  C7  UNL     1      22.482   2.660  49.979  1.00  0.00     0.256 C 
HETATM    9  C8  UNL     1      22.710   1.414  50.723  1.00  0.00     0.069 C 
HETATM   10  C9  UNL     1      22.637   1.294  52.182  1.00  0.00     0.108 C 
HETATM   11  C10 UNL     1      23.879   1.733  52.884  1.00  0.00     0.015 C 
HETATM   12  C11 UNL     1      24.308   3.005  53.035  1.00  0.00     0.082 C 
HETATM   13  N2  UNL     1      24.245   4.347  52.490  1.00  0.00    -0.386 N 
HETATM   14  C12 UNL     1      23.808   4.812  51.157  1.00  0.00     0.059 C 
HETATM   15  C13 UNL     1      23.583   6.269  51.149  1.00  0.00     0.062 C 
HETATM   16  C14 UNL     1      24.895   7.024  50.806  1.00  0.00     0.170 C 
HETATM   17  O1  UNL     1      25.273   6.772  49.500  1.00  0.00    -0.391 OA
HETATM   18  C15 UNL     1      25.009   5.479  49.065  1.00  0.00     0.170 C 
HETATM   19  C16 UNL     1      24.953   4.520  50.234  1.00  0.00     0.062 C 
HETATM   20  N3  UNL     1      21.385   1.842  52.804  1.00  0.00    -0.384 N 
HETATM   21  H14 UNL     1      24.567   5.060  53.183  1.00  0.00     0.160 HD
HETATM   22  H23 UNL     1      20.712   2.052  53.569  1.00  0.00     0.160 HD
ENDROOT
TORSDOF 0
ENDMDL
MODEL 8
REMARK VINA RESULT:      -6.0      3.794      5.748
REMARK  0 active torsions:
REMARK  status: ('A' for Active; 'I' for Inactive)
ROOT
HETATM    1  C1  UNL     1      20.801   6.305  48.509  1.00  0.00     0.311 C 
HETATM    2  N1  UNL     1      21.847   6.261  49.486  1.00  0.00     0.098 N 
HETATM    3  C2  UNL     1      21.365   5.391  50.586  1.00  0.00     0.329 C 
HETATM    4  C3  UNL     1      22.633   4.822  51.216  1.00  0.00     0.034 C 
HETATM    5  C4  UNL     1      23.582   5.489  51.982  1.00  0.00     0.027 C 
HETATM    6  C5  UNL     1      24.292   6.589  51.153  1.00  0.00     0.009 C 
HETATM    7  C6  UNL     1      24.240   6.350  49.800  1.00  0.00    -0.019 C 
HETATM    8  C7  UNL     1      23.109   5.794  48.963  1.00  0.00     0.256 C 
HETATM    9  C8  UNL     1      23.113   4.334  48.801  1.00  0.00     0.069 C 
HETATM   10  C9  UNL     1      23.778   3.401  49.713  1.00  0.00     0.108 C 
HETATM   11  C10 UNL     1      25.242   3.255  49.463  1.00  0.00     0.015 C 
HETATM   12  C11 UNL     1      26.198   4.167  49.740  1.00  0.00     0.082 C 
HETATM   13  N2  UNL     1      26.462   5.578  49.950  1.00  0.00    -0.386 N 
HETATM   14  C12 UNL     1      25.647   6.760  49.595  1.00  0.00     0.059 C 
HETATM   15  C13 UNL     1      26.130   7.966  50.293  1.00  0.00     0.062 C 
HETATM   16  C14 UNL     1      27.232   8.676  49.464  1.00  0.00     0.170 C 
HETATM   17  O1  UNL     1      26.702   9.196  48.296  1.00  0.00    -0.391 OA
HETATM   18  C15 UNL     1      25.706   8.417  47.721  1.00  0.00     0.170 C 
HETATM   19  C16 UNL     1      25.858   6.967  48.125  1.00  0.00     0.062 C 
HETATM   20  N3  UNL     1      23.446   3.584  51.166  1.00  0.00    -0.384 N 
HETATM   21  H14 UNL     1      27.377   5.732  50.428  1.00  0.00     0.160 HD
HETATM   22  H23 UNL     1      23.457   3.365  52.183  1.00  0.00     0.160 HD
ENDROOT
TORSDOF 0
ENDMDL
MODEL 9
REMARK VINA RESULT:      -6.0      8.366     10.026
REMARK  0 active torsions:
REMARK  status: ('A' for Active; 'I' for Inactive)
ROOT
HETATM    1  C1  UNL     1      30.039  11.507  44.566  1.00  0.00     0.311 C 
HETATM    2  N1  UNL     1      30.247  11.449  45.982  1.00  0.00     0.098 N 
HETATM    3  C2  UNL     1      29.958  12.805  46.509  1.00  0.00     0.329 C 
HETATM    4  C3  UNL     1      29.522  12.574  47.953  1.00  0.00     0.034 C 
HETATM    5  C4  UNL     1      30.305  12.179  49.032  1.00  0.00     0.027 C 
HETATM    6  C5  UNL     1      30.881  10.758  48.807  1.00  0.00     0.009 C 
HETATM    7  C6  UNL     1      30.135  10.016  47.923  1.00  0.00    -0.019 C 
HETATM    8  C7  UNL     1      29.449  10.447  46.645  1.00  0.00     0.256 C 
HETATM    9  C8  UNL     1      28.058  10.891  46.804  1.00  0.00     0.069 C 
HETATM   10  C9  UNL     1      27.483  11.382  48.059  1.00  0.00     0.108 C 
HETATM   11  C10 UNL     1      27.057  10.297  48.991  1.00  0.00     0.015 C 
HETATM   12  C11 UNL     1      27.869   9.491  49.708  1.00  0.00     0.082 C 
HETATM   13  N2  UNL     1      29.199   8.917  49.785  1.00  0.00    -0.386 N 
HETATM   14  C12 UNL     1      30.240   8.789  48.743  1.00  0.00     0.059 C 
HETATM   15  C13 UNL     1      31.548   8.459  49.338  1.00  0.00     0.062 C 
HETATM   16  C14 UNL     1      31.718   6.922  49.471  1.00  0.00     0.170 C 
HETATM   17  O1  UNL     1      31.798   6.333  48.222  1.00  0.00    -0.391 OA
HETATM   18  C15 UNL     1      30.995   6.924  47.255  1.00  0.00     0.170 C 
HETATM   19  C16 UNL     1      29.817   7.629  47.893  1.00  0.00     0.062 C 
HETATM   20  N3  UNL     1      28.269  12.465  48.738  1.00  0.00    -0.384 N 
HETATM   21  H14 UNL     1      29.406   8.553  50.741  1.00  0.00     0.160 HD
HETATM   22  H23 UNL     1      28.472  13.192  49.455  1.00  0.00     0.160 HD
ENDROOT
TORSDOF 0
ENDMDL
