MODEL 1
REMARK VINA RESULT:      -8.5      0.000      0.000
REMARK  4 active torsions:
REMARK  status: ('A' for Active; 'I' for Inactive)
REMARK    1  A    between atoms: C7_7  and  C8_8 
REMARK    2  A    between atoms: C10_12  and  N3_13 
REMARK    3  A    between atoms: N3_13  and  C11_14 
REMARK    4  A    between atoms: C11_14  and  C13_16 
ROOT
HETATM    1  C8  UNL     1      27.395   0.792  52.722  1.00  0.00     0.203 A 
HETATM    2  N1  UNL     1      28.652   1.353  53.134  1.00  0.00    -0.266 NA
HETATM    3  C9  UNL     1      28.963   0.837  54.262  1.00  0.00     0.230 A 
HETATM    4  N2  UNL     1      27.983  -0.091  54.708  1.00  0.00    -0.227 NA
HETATM    5  C10 UNL     1      27.047  -0.139  53.821  1.00  0.00     0.130 A 
ENDROOT
BRANCH   1   6
HETATM    6  C7  UNL     1      26.349   1.859  52.651  1.00  0.00     0.037 C 
HETATM    7  C6  UNL     1      25.929   2.622  51.684  1.00  0.00     0.026 C 
HETATM    8  C5  UNL     1      26.526   2.499  50.365  1.00  0.00     0.029 C 
HETATM    9  N4  UNL     1      24.896   3.516  52.070  1.00  0.00    -0.386 N 
HETATM   10  C4  UNL     1      26.564   3.469  49.438  1.00  0.00     0.002 C 
HETATM   11  C3  UNL     1      26.052   4.834  49.484  1.00  0.00     0.004 C 
HETATM   12  C2  UNL     1      25.060   5.188  50.290  1.00  0.00    -0.066 C 
HETATM   13  C1  UNL     1      24.779   6.654  50.090  1.00  0.00     0.045 C 
HETATM   14  C19 UNL     1      24.202   4.508  51.295  1.00  0.00     0.153 C 
HETATM   15  H20 UNL     1      24.591   3.436  53.086  1.00  0.00     0.160 HD
ENDBRANCH   1   6
BRANCH   5  16
HETATM   16  N3  UNL     1      25.903  -0.970  53.947  1.00  0.00    -0.368 N 
HETATM   17  H10 UNL     1      25.892  -1.885  53.407  1.00  0.00     0.161 HD
BRANCH  16  18
HETATM   18  C11 UNL     1      24.826  -0.520  54.801  1.00  0.00     0.112 C 
HETATM   19  C12 UNL     1      24.836  -1.390  56.042  1.00  0.00     0.037 C 
BRANCH  18  20
HETATM   20  C13 UNL     1      23.514  -0.522  54.150  1.00  0.00    -0.036 A 
HETATM   21  C14 UNL     1      22.498  -1.180  54.829  1.00  0.00     0.009 A 
HETATM   22  C15 UNL     1      21.233  -1.232  54.292  1.00  0.00     0.001 A 
HETATM   23  C16 UNL     1      20.928  -0.637  53.065  1.00  0.00     0.000 A 
HETATM   24  C17 UNL     1      21.927   0.013  52.392  1.00  0.00     0.001 A 
HETATM   25  C18 UNL     1      23.195   0.065  52.932  1.00  0.00     0.009 A 
ENDBRANCH  18  20
ENDBRANCH  16  18
ENDBRANCH   5  16
TORSDOF 4
ENDMDL
MODEL 2
REMARK VINA RESULT:      -8.5      1.624      5.133
REMARK  4 active torsions:
REMARK  status: ('A' for Active; 'I' for Inactive)
REMARK    1  A    between atoms: C7_7  and  C8_8 
REMARK    2  A    between atoms: C10_12  and  N3_13 
REMARK    3  A    between atoms: N3_13  and  C11_14 
REMARK    4  A    between atoms: C11_14  and  C13_16 
ROOT
HETATM    1  C8  UNL     1      25.544   3.228  51.212  1.00  0.00     0.203 A 
HETATM    2  N1  UNL     1      25.885   3.561  49.855  1.00  0.00    -0.266 NA
HETATM    3  C9  UNL     1      24.800   3.823  49.231  1.00  0.00     0.230 A 
HETATM    4  N2  UNL     1      23.660   3.699  50.072  1.00  0.00    -0.227 NA
HETATM    5  C10 UNL     1      24.068   3.349  51.245  1.00  0.00     0.130 A 
ENDROOT
BRANCH   1   6
HETATM    6  C7  UNL     1      25.913   1.809  51.506  1.00  0.00     0.037 C 
HETATM    7  C6  UNL     1      26.711   1.266  52.379  1.00  0.00     0.026 C 
HETATM    8  C5  UNL     1      27.443   2.113  53.304  1.00  0.00     0.029 C 
HETATM    9  N4  UNL     1      26.762  -0.151  52.302  1.00  0.00    -0.386 N 
HETATM   10  C4  UNL     1      28.600   1.791  53.902  1.00  0.00     0.002 C 
HETATM   11  C3  UNL     1      29.404   0.578  53.801  1.00  0.00     0.004 C 
HETATM   12  C2  UNL     1      28.880  -0.588  53.449  1.00  0.00    -0.066 C 
HETATM   13  C1  UNL     1      29.973  -1.624  53.443  1.00  0.00     0.045 C 
HETATM   14  C19 UNL     1      27.530  -1.087  53.077  1.00  0.00     0.153 C 
HETATM   15  H20 UNL     1      26.135  -0.582  51.557  1.00  0.00     0.160 HD
ENDBRANCH   1   6
BRANCH   5  16
HETATM   16  N3  UNL     1      23.188   3.135  52.339  1.00  0.00    -0.368 N 
HETATM   17  H10 UNL     1      23.360   3.686  53.230  1.00  0.00     0.161 HD
BRANCH  16  18
HETATM   18  C11 UNL     1      22.113   2.182  52.169  1.00  0.00     0.112 C 
HETATM   19  C12 UNL     1      20.808   2.934  52.341  1.00  0.00     0.037 C 
BRANCH  18  20
HETATM   20  C13 UNL     1      22.197   1.031  53.070  1.00  0.00    -0.036 A 
HETATM   21  C14 UNL     1      21.032   0.704  53.751  1.00  0.00     0.009 A 
HETATM   22  C15 UNL     1      21.018  -0.364  54.619  1.00  0.00     0.001 A 
HETATM   23  C16 UNL     1      22.155  -1.145  54.843  1.00  0.00     0.000 A 
HETATM   24  C17 UNL     1      23.306  -0.826  54.174  1.00  0.00     0.001 A 
HETATM   25  C18 UNL     1      23.317   0.244  53.305  1.00  0.00     0.009 A 
ENDBRANCH  18  20
ENDBRANCH  16  18
ENDBRANCH   5  16
TORSDOF 4
ENDMDL
MODEL 3
REMARK VINA RESULT:      -8.3      1.637      2.428
REMARK  4 active torsions:
REMARK  status: ('A' for Active; 'I' for Inactive)
REMARK    1  A    between atoms: C7_7  and  C8_8 
REMARK    2  A    between atoms: C10_12  and  N3_13 
REMARK    3  A    between atoms: N3_13  and  C11_14 
REMARK    4  A    between atoms: C11_14  and  C13_16 
ROOT
HETATM    1  C8  UNL     1      25.934   0.973  53.319  1.00  0.00     0.203 A 
HETATM    2  N1  UNL     1      27.014   1.029  54.267  1.00  0.00    -0.266 NA
HETATM    3  C9  UNL     1      26.806   0.130  55.152  1.00  0.00     0.230 A 
HETATM    4  N2  UNL     1      25.610  -0.596  54.901  1.00  0.00    -0.227 NA
HETATM    5  C10 UNL     1      25.074  -0.122  53.827  1.00  0.00     0.130 A 
ENDROOT
BRANCH   1   6
HETATM    6  C7  UNL     1      25.152   2.247  53.349  1.00  0.00     0.037 C 
HETATM    7  C6  UNL     1      24.481   2.895  52.441  1.00  0.00     0.026 C 
HETATM    8  C5  UNL     1      24.411   2.365  51.090  1.00  0.00     0.029 C 
HETATM    9  N4  UNL     1      23.881   4.090  52.918  1.00  0.00    -0.386 N 
HETATM   10  C4  UNL     1      24.197   3.092  49.982  1.00  0.00     0.002 C 
HETATM   11  C3  UNL     1      23.986   4.527  49.826  1.00  0.00     0.004 C 
HETATM   12  C2  UNL     1      23.518   5.282  50.811  1.00  0.00    -0.066 C 
HETATM   13  C1  UNL     1      23.421   6.703  50.321  1.00  0.00     0.045 C 
HETATM   14  C19 UNL     1      23.090   5.064  52.217  1.00  0.00     0.153 C 
HETATM   15  H20 UNL     1      24.044   4.291  53.950  1.00  0.00     0.160 HD
ENDBRANCH   1   6
BRANCH   5  16
HETATM   16  N3  UNL     1      23.861  -0.619  53.282  1.00  0.00    -0.368 N 
HETATM   17  H10 UNL     1      23.924  -1.315  52.483  1.00  0.00     0.161 HD
BRANCH  16  18
HETATM   18  C11 UNL     1      22.618  -0.145  53.850  1.00  0.00     0.112 C 
HETATM   19  C12 UNL     1      21.900  -1.346  54.435  1.00  0.00     0.037 C 
BRANCH  18  20
HETATM   20  C13 UNL     1      21.772   0.580  52.900  1.00  0.00    -0.036 A 
HETATM   21  C14 UNL     1      21.703   0.052  51.618  1.00  0.00     0.009 A 
HETATM   22  C15 UNL     1      20.932   0.669  50.660  1.00  0.00     0.001 A 
HETATM   23  C16 UNL     1      20.202   1.827  50.936  1.00  0.00     0.000 A 
HETATM   24  C17 UNL     1      20.267   2.352  52.199  1.00  0.00     0.001 A 
HETATM   25  C18 UNL     1      21.040   1.732  53.157  1.00  0.00     0.009 A 
ENDBRANCH  18  20
ENDBRANCH  16  18
ENDBRANCH   5  16
TORSDOF 4
ENDMDL
MODEL 4
REMARK VINA RESULT:      -8.2      2.767      5.191
REMARK  4 active torsions:
REMARK  status: ('A' for Active; 'I' for Inactive)
REMARK    1  A    between atoms: C7_7  and  C8_8 
REMARK    2  A    between atoms: C10_12  and  N3_13 
REMARK    3  A    between atoms: N3_13  and  C11_14 
REMARK    4  A    between atoms: C11_14  and  C13_16 
ROOT
HETATM    1  C8  UNL     1      22.220   0.887  53.269  1.00  0.00     0.203 A 
HETATM    2  N1  UNL     1      21.118   0.478  54.097  1.00  0.00    -0.266 NA
HETATM    3  C9  UNL     1      21.483  -0.559  54.751  1.00  0.00     0.230 A 
HETATM    4  N2  UNL     1      22.817  -0.940  54.442  1.00  0.00    -0.227 NA
HETATM    5  C10 UNL     1      23.277  -0.106  53.571  1.00  0.00     0.130 A 
ENDROOT
BRANCH   1   6
HETATM    6  C7  UNL     1      21.853   0.768  51.824  1.00  0.00     0.037 C 
HETATM    7  C6  UNL     1      22.336   1.307  50.742  1.00  0.00     0.026 C 
HETATM    8  C5  UNL     1      23.457   2.226  50.839  1.00  0.00     0.029 C 
HETATM    9  N4  UNL     1      21.666   0.907  49.556  1.00  0.00    -0.386 N 
HETATM   10  C4  UNL     1      23.751   3.189  49.952  1.00  0.00     0.002 C 
HETATM   11  C3  UNL     1      23.073   3.567  48.717  1.00  0.00     0.004 C 
HETATM   12  C2  UNL     1      22.315   2.715  48.039  1.00  0.00    -0.066 C 
HETATM   13  C1  UNL     1      21.770   3.419  46.825  1.00  0.00     0.045 C 
HETATM   14  C19 UNL     1      21.899   1.297  48.192  1.00  0.00     0.153 C 
HETATM   15  H20 UNL     1      20.874   0.211  49.702  1.00  0.00     0.160 HD
ENDBRANCH   1   6
BRANCH   5  16
HETATM   16  N3  UNL     1      24.590  -0.190  53.037  1.00  0.00    -0.368 N 
HETATM   17  H10 UNL     1      24.701  -0.568  52.051  1.00  0.00     0.161 HD
BRANCH  16  18
HETATM   18  C11 UNL     1      25.691   0.243  53.869  1.00  0.00     0.112 C 
HETATM   19  C12 UNL     1      25.876   1.730  53.640  1.00  0.00     0.037 C 
BRANCH  18  20
HETATM   20  C13 UNL     1      26.933  -0.498  53.640  1.00  0.00    -0.036 A 
HETATM   21  C14 UNL     1      28.085   0.064  54.171  1.00  0.00     0.009 A 
HETATM   22  C15 UNL     1      29.298  -0.564  54.003  1.00  0.00     0.001 A 
HETATM   23  C16 UNL     1      29.413  -1.769  53.306  1.00  0.00     0.000 A 
HETATM   24  C17 UNL     1      28.279  -2.327  52.780  1.00  0.00     0.001 A 
HETATM   25  C18 UNL     1      27.065  -1.697  52.949  1.00  0.00     0.009 A 
ENDBRANCH  18  20
ENDBRANCH  16  18
ENDBRANCH   5  16
TORSDOF 4
ENDMDL
MODEL 5
REMARK VINA RESULT:      -8.1      2.563      8.101
REMARK  4 active torsions:
REMARK  status: ('A' for Active; 'I' for Inactive)
REMARK    1  A    between atoms: C7_7  and  C8_8 
REMARK    2  A    between atoms: C10_12  and  N3_13 
REMARK    3  A    between atoms: N3_13  and  C11_14 
REMARK    4  A    between atoms: C11_14  and  C13_16 
ROOT
HETATM    1  C8  UNL     1      23.239   4.192  50.682  1.00  0.00     0.203 A 
HETATM    2  N1  UNL     1      21.968   4.771  51.021  1.00  0.00    -0.266 NA
HETATM    3  C9  UNL     1      22.152   6.016  51.250  1.00  0.00     0.230 A 
HETATM    4  N2  UNL     1      23.514   6.388  51.093  1.00  0.00    -0.227 NA
HETATM    5  C10 UNL     1      24.180   5.335  50.759  1.00  0.00     0.130 A 
ENDROOT
BRANCH   1   6
HETATM    6  C7  UNL     1      23.636   3.177  51.706  1.00  0.00     0.037 C 
HETATM    7  C6  UNL     1      23.270   1.946  51.920  1.00  0.00     0.026 C 
HETATM    8  C5  UNL     1      22.283   1.332  51.048  1.00  0.00     0.029 C 
HETATM    9  N4  UNL     1      23.917   1.343  53.031  1.00  0.00    -0.386 N 
HETATM   10  C4  UNL     1      21.478   0.313  51.386  1.00  0.00     0.002 C 
HETATM   11  C3  UNL     1      21.369  -0.422  52.641  1.00  0.00     0.004 C 
HETATM   12  C2  UNL     1      22.373  -0.496  53.505  1.00  0.00    -0.066 C 
HETATM   13  C1  UNL     1      21.931  -1.323  54.684  1.00  0.00     0.045 C 
HETATM   14  C19 UNL     1      23.763   0.022  53.577  1.00  0.00     0.153 C 
HETATM   15  H20 UNL     1      24.621   1.964  53.531  1.00  0.00     0.160 HD
ENDBRANCH   1   6
BRANCH   5  16
HETATM   16  N3  UNL     1      25.579   5.345  50.520  1.00  0.00    -0.368 N 
HETATM   17  H10 UNL     1      26.210   5.727  51.285  1.00  0.00     0.161 HD
BRANCH  16  18
HETATM   18  C11 UNL     1      26.056   4.835  49.254  1.00  0.00     0.112 C 
HETATM   19  C12 UNL     1      26.630   3.455  49.508  1.00  0.00     0.037 C 
BRANCH  18  20
HETATM   20  C13 UNL     1      27.026   5.710  48.591  1.00  0.00    -0.036 A 
HETATM   21  C14 UNL     1      28.323   5.225  48.502  1.00  0.00     0.009 A 
HETATM   22  C15 UNL     1      29.300   5.980  47.895  1.00  0.00     0.001 A 
HETATM   23  C16 UNL     1      29.028   7.239  47.356  1.00  0.00     0.000 A 
HETATM   24  C17 UNL     1      27.750   7.722  47.441  1.00  0.00     0.001 A 
HETATM   25  C18 UNL     1      26.772   6.964  48.050  1.00  0.00     0.009 A 
ENDBRANCH  18  20
ENDBRANCH  16  18
ENDBRANCH   5  16
TORSDOF 4
ENDMDL
MODEL 6
REMARK VINA RESULT:      -8.0      2.281      5.656
REMARK  4 active torsions:
REMARK  status: ('A' for Active; 'I' for Inactive)
REMARK    1  A    between atoms: C7_7  and  C8_8 
REMARK    2  A    between atoms: C10_12  and  N3_13 
REMARK    3  A    between atoms: N3_13  and  C11_14 
REMARK    4  A    between atoms: C11_14  and  C13_16 
ROOT
HETATM    1  C8  UNL     1      23.074  -0.822  53.335  1.00  0.00     0.203 A 
HETATM    2  N1  UNL     1      22.669  -1.133  54.679  1.00  0.00    -0.266 NA
HETATM    3  C9  UNL     1      21.415  -0.904  54.774  1.00  0.00     0.230 A 
HETATM    4  N2  UNL     1      20.867  -0.433  53.550  1.00  0.00    -0.227 NA
HETATM    5  C10 UNL     1      21.821  -0.374  52.683  1.00  0.00     0.130 A 
ENDROOT
BRANCH   1   6
HETATM    6  C7  UNL     1      24.044   0.316  53.336  1.00  0.00     0.037 C 
HETATM    7  C6  UNL     1      25.324   0.388  53.108  1.00  0.00     0.026 C 
HETATM    8  C5  UNL     1      26.060  -0.820  52.776  1.00  0.00     0.029 C 
HETATM    9  N4  UNL     1      25.852   1.701  53.222  1.00  0.00    -0.386 N 
HETATM   10  C4  UNL     1      27.373  -1.009  52.977  1.00  0.00     0.002 C 
HETATM   11  C3  UNL     1      28.373  -0.115  53.550  1.00  0.00     0.004 C 
HETATM   12  C2  UNL     1      28.227   1.204  53.545  1.00  0.00    -0.066 C 
HETATM   13  C1  UNL     1      29.429   1.823  54.209  1.00  0.00     0.045 C 
HETATM   14  C19 UNL     1      27.203   2.165  53.061  1.00  0.00     0.153 C 
HETATM   15  H20 UNL     1      25.137   2.451  53.463  1.00  0.00     0.160 HD
ENDBRANCH   1   6
BRANCH   5  16
HETATM   16  N3  UNL     1      21.626   0.058  51.345  1.00  0.00    -0.368 N 
HETATM   17  H10 UNL     1      21.817  -0.638  50.566  1.00  0.00     0.161 HD
BRANCH  16  18
HETATM   18  C11 UNL     1      21.179   1.416  51.128  1.00  0.00     0.112 C 
HETATM   19  C12 UNL     1      20.449   1.448  49.800  1.00  0.00     0.037 C 
BRANCH  18  20
HETATM   20  C13 UNL     1      22.255   2.408  51.177  1.00  0.00    -0.036 A 
HETATM   21  C14 UNL     1      23.238   2.289  50.205  1.00  0.00     0.009 A 
HETATM   22  C15 UNL     1      24.288   3.177  50.174  1.00  0.00     0.001 A 
HETATM   23  C16 UNL     1      24.403   4.214  51.103  1.00  0.00     0.000 A 
HETATM   24  C17 UNL     1      23.435   4.336  52.064  1.00  0.00     0.001 A 
HETATM   25  C18 UNL     1      22.384   3.445  52.093  1.00  0.00     0.009 A 
ENDBRANCH  18  20
ENDBRANCH  16  18
ENDBRANCH   5  16
TORSDOF 4
ENDMDL
MODEL 7
REMARK VINA RESULT:      -7.8      2.841      7.135
REMARK  4 active torsions:
REMARK  status: ('A' for Active; 'I' for Inactive)
REMARK    1  A    between atoms: C7_7  and  C8_8 
REMARK    2  A    between atoms: C10_12  and  N3_13 
REMARK    3  A    between atoms: N3_13  and  C11_14 
REMARK    4  A    between atoms: C11_14  and  C13_16 
ROOT
HETATM    1  C8  UNL     1      23.323   3.081  51.637  1.00  0.00     0.203 A 
HETATM    2  N1  UNL     1      22.203   2.426  52.258  1.00  0.00    -0.266 NA
HETATM    3  C9  UNL     1      21.273   3.291  52.403  1.00  0.00     0.230 A 
HETATM    4  N2  UNL     1      21.656   4.569  51.914  1.00  0.00    -0.227 NA
HETATM    5  C10 UNL     1      22.859   4.477  51.457  1.00  0.00     0.130 A 
ENDROOT
BRANCH   1   6
HETATM    6  C7  UNL     1      24.498   3.085  52.562  1.00  0.00     0.037 C 
HETATM    7  C6  UNL     1      25.595   2.386  52.600  1.00  0.00     0.026 C 
HETATM    8  C5  UNL     1      25.831   1.369  51.590  1.00  0.00     0.029 C 
HETATM    9  N4  UNL     1      26.454   2.729  53.678  1.00  0.00    -0.386 N 
HETATM   10  C4  UNL     1      26.616   0.291  51.743  1.00  0.00     0.002 C 
HETATM   11  C3  UNL     1      27.407  -0.140  52.890  1.00  0.00     0.004 C 
HETATM   12  C2  UNL     1      27.834   0.712  53.813  1.00  0.00    -0.066 C 
HETATM   13  C1  UNL     1      28.613  -0.054  54.849  1.00  0.00     0.045 C 
HETATM   14  C19 UNL     1      27.726   2.175  54.052  1.00  0.00     0.153 C 
HETATM   15  H20 UNL     1      26.099   3.517  54.300  1.00  0.00     0.160 HD
ENDBRANCH   1   6
BRANCH   5  16
HETATM   16  N3  UNL     1      23.557   5.574  50.889  1.00  0.00    -0.368 N 
HETATM   17  H10 UNL     1      23.869   6.355  51.539  1.00  0.00     0.161 HD
BRANCH  16  18
HETATM   18  C11 UNL     1      23.801   5.560  49.463  1.00  0.00     0.112 C 
HETATM   19  C12 UNL     1      23.065   4.365  48.889  1.00  0.00     0.037 C 
BRANCH  18  20
HETATM   20  C13 UNL     1      25.221   5.543  49.106  1.00  0.00    -0.036 A 
HETATM   21  C14 UNL     1      25.897   4.356  49.351  1.00  0.00     0.009 A 
HETATM   22  C15 UNL     1      27.234   4.249  49.047  1.00  0.00     0.001 A 
HETATM   23  C16 UNL     1      27.950   5.312  48.489  1.00  0.00     0.000 A 
HETATM   24  C17 UNL     1      27.287   6.485  48.246  1.00  0.00     0.001 A 
HETATM   25  C18 UNL     1      25.947   6.590  48.552  1.00  0.00     0.009 A 
ENDBRANCH  18  20
ENDBRANCH  16  18
ENDBRANCH   5  16
TORSDOF 4
ENDMDL
MODEL 8
REMARK VINA RESULT:      -7.7      2.321      5.254
REMARK  4 active torsions:
REMARK  status: ('A' for Active; 'I' for Inactive)
REMARK    1  A    between atoms: C7_7  and  C8_8 
REMARK    2  A    between atoms: C10_12  and  N3_13 
REMARK    3  A    between atoms: N3_13  and  C11_14 
REMARK    4  A    between atoms: C11_14  and  C13_16 
ROOT
HETATM    1  C8  UNL     1      23.841   3.554  50.287  1.00  0.00     0.203 A 
HETATM    2  N1  UNL     1      22.858   3.256  49.281  1.00  0.00    -0.266 NA
HETATM    3  C9  UNL     1      22.395   2.088  49.517  1.00  0.00     0.230 A 
HETATM    4  N2  UNL     1      22.996   1.501  50.664  1.00  0.00    -0.227 NA
HETATM    5  C10 UNL     1      23.852   2.341  51.139  1.00  0.00     0.130 A 
ENDROOT
BRANCH   1   6
HETATM    6  C7  UNL     1      25.190   3.711  49.663  1.00  0.00     0.037 C 
HETATM    7  C6  UNL     1      25.993   4.728  49.537  1.00  0.00     0.026 C 
HETATM    8  C5  UNL     1      25.600   6.020  50.072  1.00  0.00     0.029 C 
HETATM    9  N4  UNL     1      27.202   4.421  48.857  1.00  0.00    -0.386 N 
HETATM   10  C4  UNL     1      26.045   7.209  49.635  1.00  0.00     0.002 C 
HETATM   11  C3  UNL     1      26.988   7.524  48.568  1.00  0.00     0.004 C 
HETATM   12  C2  UNL     1      27.906   6.658  48.158  1.00  0.00    -0.066 C 
HETATM   13  C1  UNL     1      28.708   7.295  47.053  1.00  0.00     0.045 C 
HETATM   14  C19 UNL     1      28.308   5.274  48.518  1.00  0.00     0.153 C 
HETATM   15  H20 UNL     1      27.300   3.405  48.557  1.00  0.00     0.160 HD
ENDBRANCH   1   6
BRANCH   5  16
HETATM   16  N3  UNL     1      24.638   2.078  52.292  1.00  0.00    -0.368 N 
HETATM   17  H10 UNL     1      24.760   2.862  52.999  1.00  0.00     0.161 HD
BRANCH  16  18
HETATM   18  C11 UNL     1      25.220   0.762  52.430  1.00  0.00     0.112 C 
HETATM   19  C12 UNL     1      24.345  -0.024  53.386  1.00  0.00     0.037 C 
BRANCH  18  20
HETATM   20  C13 UNL     1      26.618   0.777  52.867  1.00  0.00    -0.036 A 
HETATM   21  C14 UNL     1      27.164   2.027  53.121  1.00  0.00     0.009 A 
HETATM   22  C15 UNL     1      28.471   2.136  53.536  1.00  0.00     0.001 A 
HETATM   23  C16 UNL     1      29.284   1.014  53.713  1.00  0.00     0.000 A 
HETATM   24  C17 UNL     1      28.750  -0.221  53.463  1.00  0.00     0.001 A 
HETATM   25  C18 UNL     1      27.440  -0.329  53.048  1.00  0.00     0.009 A 
ENDBRANCH  18  20
ENDBRANCH  16  18
ENDBRANCH   5  16
TORSDOF 4
ENDMDL
MODEL 9
REMARK VINA RESULT:      -7.6      2.494      6.951
REMARK  4 active torsions:
REMARK  status: ('A' for Active; 'I' for Inactive)
REMARK    1  A    between atoms: C7_7  and  C8_8 
REMARK    2  A    between atoms: C10_12  and  N3_13 
REMARK    3  A    between atoms: N3_13  and  C11_14 
REMARK    4  A    between atoms: C11_14  and  C13_16 
ROOT
HETATM    1  C8  UNL     1      25.277   2.600  52.496  1.00  0.00     0.203 A 
HETATM    2  N1  UNL     1      25.903   2.118  53.697  1.00  0.00    -0.266 NA
HETATM    3  C9  UNL     1      27.136   1.898  53.436  1.00  0.00     0.230 A 
HETATM    4  N2  UNL     1      27.453   2.199  52.084  1.00  0.00    -0.227 NA
HETATM    5  C10 UNL     1      26.378   2.615  51.504  1.00  0.00     0.130 A 
ENDROOT
BRANCH   1   6
HETATM    6  C7  UNL     1      24.231   1.636  52.033  1.00  0.00     0.037 C 
HETATM    7  C6  UNL     1      22.960   1.762  51.786  1.00  0.00     0.026 C 
HETATM    8  C5  UNL     1      22.322   3.055  51.960  1.00  0.00     0.029 C 
HETATM    9  N4  UNL     1      22.339   0.558  51.360  1.00  0.00    -0.386 N 
HETATM   10  C4  UNL     1      21.017   3.249  52.211  1.00  0.00     0.002 C 
HETATM   11  C3  UNL     1      19.937   2.282  52.369  1.00  0.00     0.004 C 
HETATM   12  C2  UNL     1      19.993   1.068  51.837  1.00  0.00    -0.066 C 
HETATM   13  C1  UNL     1      18.727   0.332  52.188  1.00  0.00     0.045 C 
HETATM   14  C19 UNL     1      20.966   0.303  51.016  1.00  0.00     0.153 C 
HETATM   15  H20 UNL     1      22.991  -0.280  51.284  1.00  0.00     0.160 HD
ENDBRANCH   1   6
BRANCH   5  16
HETATM   16  N3  UNL     1      26.334   3.005  50.140  1.00  0.00    -0.368 N 
HETATM   17  H10 UNL     1      26.800   2.369  49.427  1.00  0.00     0.161 HD
BRANCH  16  18
HETATM   18  C11 UNL     1      25.660   4.240  49.808  1.00  0.00     0.112 C 
HETATM   19  C12 UNL     1      24.409   3.880  49.031  1.00  0.00     0.037 C 
BRANCH  18  20
HETATM   20  C13 UNL     1      26.497   5.192  49.075  1.00  0.00    -0.036 A 
HETATM   21  C14 UNL     1      27.795   4.782  48.807  1.00  0.00     0.009 A 
HETATM   22  C15 UNL     1      28.652   5.613  48.122  1.00  0.00     0.001 A 
HETATM   23  C16 UNL     1      28.255   6.876  47.678  1.00  0.00     0.000 A 
HETATM   24  C17 UNL     1      26.975   7.285  47.940  1.00  0.00     0.001 A 
HETATM   25  C18 UNL     1      26.118   6.451  48.626  1.00  0.00     0.009 A 
ENDBRANCH  18  20
ENDBRANCH  16  18
ENDBRANCH   5  16
TORSDOF 4
ENDMDL
