MODEL 1
REMARK VINA RESULT:      -8.9      0.000      0.000
REMARK  3 active torsions:
REMARK  status: ('A' for Active; 'I' for Inactive)
REMARK    1  A    between atoms: N1_2  and  C2_4 
REMARK    2  A    between atoms: C5_7  and  C6_8 
REMARK       I    between atoms: C6_8  and  N2_10 
REMARK    3  A    between atoms: N2_10  and  C7_11 
ROOT
HETATM    1  C6  UNL     1      24.324   0.232  53.528  1.00  0.00     0.256 C 
HETATM    2  O1  UNL     1      24.581  -0.195  54.671  1.00  0.00    -0.267 OA
HETATM    3  N2  UNL     1      25.360   0.784  52.722  1.00  0.00    -0.322 N 
HETATM    4  H6  UNL     1      25.144   1.142  51.767  1.00  0.00     0.169 HD
ENDROOT
BRANCH   3   5
HETATM    5  C7  UNL     1      26.717   0.906  53.101  1.00  0.00     0.046 A 
HETATM    6  C8  UNL     1      27.352   2.072  53.480  1.00  0.00     0.030 A 
HETATM    7  C9  UNL     1      28.668   2.153  53.840  1.00  0.00     0.003 A 
HETATM    8  C10 UNL     1      29.415   1.013  53.828  1.00  0.00     0.012 A 
HETATM    9  C11 UNL     1      28.845  -0.199  53.457  1.00  0.00    -0.024 A 
HETATM   10  C12 UNL     1      29.624  -1.339  53.453  1.00  0.00     0.012 A 
HETATM   11  C16 UNL     1      27.508  -0.245  53.098  1.00  0.00     0.001 A 
HETATM   12  C13 UNL     1      29.043  -2.532  53.082  1.00  0.00     0.001 A 
HETATM   13  C14 UNL     1      27.703  -2.623  52.714  1.00  0.00     0.001 A 
HETATM   14  C15 UNL     1      26.976  -1.450  52.738  1.00  0.00     0.014 A 
ENDBRANCH   3   5
BRANCH   1  15
HETATM   15  C5  UNL     1      22.937   0.135  53.079  1.00  0.00     0.032 A 
HETATM   16  C4  UNL     1      22.005  -0.390  53.921  1.00  0.00     0.019 A 
HETATM   17  C3  UNL     1      20.668  -0.518  53.573  1.00  0.00     0.031 A 
HETATM   18  C2  UNL     1      20.220  -0.113  52.339  1.00  0.00     0.045 A 
HETATM   19  C18 UNL     1      21.164   0.416  51.493  1.00  0.00     0.031 A 
HETATM   20  C17 UNL     1      22.493   0.544  51.838  1.00  0.00     0.019 A 
BRANCH  18  21
HETATM   21  N1  UNL     1      18.877  -0.221  51.938  1.00  0.00    -0.295 N 
HETATM   22  C1  UNL     1      18.361   0.535  50.813  1.00  0.00     0.171 C 
HETATM   23 CL1  UNL     1      17.792  -1.266  52.787  1.00  0.00     0.013 Cl
ENDBRANCH  18  21
ENDBRANCH   1  15
TORSDOF 3
ENDMDL
MODEL 2
REMARK VINA RESULT:      -8.7      5.858      8.066
REMARK  3 active torsions:
REMARK  status: ('A' for Active; 'I' for Inactive)
REMARK    1  A    between atoms: N1_2  and  C2_4 
REMARK    2  A    between atoms: C5_7  and  C6_8 
REMARK       I    between atoms: C6_8  and  N2_10 
REMARK    3  A    between atoms: N2_10  and  C7_11 
ROOT
HETATM    1  C6  UNL     1      25.409   3.925  49.843  1.00  0.00     0.256 C 
HETATM    2  O1  UNL     1      24.618   3.339  49.079  1.00  0.00    -0.267 OA
HETATM    3  N2  UNL     1      25.429   3.607  51.231  1.00  0.00    -0.322 N 
HETATM    4  H6  UNL     1      26.092   4.098  51.869  1.00  0.00     0.169 HD
ENDROOT
BRANCH   3   5
HETATM    5  C7  UNL     1      24.604   2.650  51.866  1.00  0.00     0.046 A 
HETATM    6  C8  UNL     1      23.262   2.800  52.155  1.00  0.00     0.030 A 
HETATM    7  C9  UNL     1      22.494   1.853  52.770  1.00  0.00     0.003 A 
HETATM    8  C10 UNL     1      23.080   0.675  53.129  1.00  0.00     0.012 A 
HETATM    9  C11 UNL     1      24.427   0.452  52.871  1.00  0.00    -0.024 A 
HETATM   10  C12 UNL     1      24.996  -0.750  53.245  1.00  0.00     0.012 A 
HETATM   11  C16 UNL     1      25.176   1.435  52.245  1.00  0.00     0.001 A 
HETATM   12  C13 UNL     1      26.334  -0.954  52.981  1.00  0.00     0.001 A 
HETATM   13  C14 UNL     1      27.123   0.006  52.354  1.00  0.00     0.001 A 
HETATM   14  C15 UNL     1      26.497   1.186  52.005  1.00  0.00     0.014 A 
ENDBRANCH   3   5
BRANCH   1  15
HETATM   15  C5  UNL     1      26.290   4.926  49.246  1.00  0.00     0.032 A 
HETATM   16  C4  UNL     1      27.534   4.553  48.838  1.00  0.00     0.019 A 
HETATM   17  C3  UNL     1      28.431   5.441  48.262  1.00  0.00     0.031 A 
HETATM   18  C2  UNL     1      28.095   6.760  48.075  1.00  0.00     0.045 A 
HETATM   19  C18 UNL     1      26.839   7.131  48.488  1.00  0.00     0.031 A 
HETATM   20  C17 UNL     1      25.946   6.249  49.061  1.00  0.00     0.019 A 
BRANCH  18  21
HETATM   21  N1  UNL     1      28.967   7.699  47.496  1.00  0.00    -0.295 N 
HETATM   22  C1  UNL     1      29.906   8.455  48.301  1.00  0.00     0.171 C 
HETATM   23 CL1  UNL     1      28.939   7.980  45.790  1.00  0.00     0.013 Cl
ENDBRANCH  18  21
ENDBRANCH   1  15
TORSDOF 3
ENDMDL
MODEL 3
REMARK VINA RESULT:      -8.4      5.823      7.587
REMARK  3 active torsions:
REMARK  status: ('A' for Active; 'I' for Inactive)
REMARK    1  A    between atoms: N1_2  and  C2_4 
REMARK    2  A    between atoms: C5_7  and  C6_8 
REMARK       I    between atoms: C6_8  and  N2_10 
REMARK    3  A    between atoms: N2_10  and  C7_11 
ROOT
HETATM    1  C6  UNL     1      26.416   3.395  50.054  1.00  0.00     0.256 C 
HETATM    2  O1  UNL     1      26.640   2.322  49.461  1.00  0.00    -0.267 OA
HETATM    3  N2  UNL     1      25.927   3.383  51.391  1.00  0.00    -0.322 N 
HETATM    4  H6  UNL     1      25.740   4.282  51.887  1.00  0.00     0.169 HD
ENDROOT
BRANCH   3   5
HETATM    5  C7  UNL     1      25.654   2.225  52.155  1.00  0.00     0.046 A 
HETATM    6  C8  UNL     1      24.465   1.523  52.167  1.00  0.00     0.030 A 
HETATM    7  C9  UNL     1      24.236   0.405  52.919  1.00  0.00     0.003 A 
HETATM    8  C10 UNL     1      25.241  -0.058  53.716  1.00  0.00     0.012 A 
HETATM    9  C11 UNL     1      26.466   0.596  53.757  1.00  0.00    -0.024 A 
HETATM   10  C12 UNL     1      27.467   0.107  54.573  1.00  0.00     0.012 A 
HETATM   11  C16 UNL     1      26.664   1.727  52.981  1.00  0.00     0.001 A 
HETATM   12  C13 UNL     1      28.676   0.769  54.600  1.00  0.00     0.001 A 
HETATM   13  C14 UNL     1      28.917   1.908  53.837  1.00  0.00     0.001 A 
HETATM   14  C15 UNL     1      27.878   2.349  53.042  1.00  0.00     0.014 A 
ENDBRANCH   3   5
BRANCH   1  15
HETATM   15  C5  UNL     1      26.679   4.629  49.317  1.00  0.00     0.032 A 
HETATM   16  C4  UNL     1      25.675   5.536  49.168  1.00  0.00     0.019 A 
HETATM   17  C3  UNL     1      25.840   6.732  48.483  1.00  0.00     0.031 A 
HETATM   18  C2  UNL     1      27.048   7.056  47.916  1.00  0.00     0.045 A 
HETATM   19  C18 UNL     1      28.058   6.138  48.069  1.00  0.00     0.031 A 
HETATM   20  C17 UNL     1      27.895   4.949  48.750  1.00  0.00     0.019 A 
BRANCH  18  21
HETATM   21  N1  UNL     1      27.268   8.254  47.213  1.00  0.00    -0.295 N 
HETATM   22  C1  UNL     1      26.591   9.482  47.582  1.00  0.00     0.171 C 
HETATM   23 CL1  UNL     1      28.361   8.293  45.874  1.00  0.00     0.013 Cl
ENDBRANCH  18  21
ENDBRANCH   1  15
TORSDOF 3
ENDMDL
MODEL 4
REMARK VINA RESULT:      -8.4      5.034      7.663
REMARK  3 active torsions:
REMARK  status: ('A' for Active; 'I' for Inactive)
REMARK    1  A    between atoms: N1_2  and  C2_4 
REMARK    2  A    between atoms: C5_7  and  C6_8 
REMARK       I    between atoms: C6_8  and  N2_10 
REMARK    3  A    between atoms: N2_10  and  C7_11 
ROOT
HETATM    1  C6  UNL     1      24.295   3.498  50.884  1.00  0.00     0.256 C 
HETATM    2  O1  UNL     1      23.596   4.162  51.674  1.00  0.00    -0.267 OA
HETATM    3  N2  UNL     1      24.084   2.096  50.749  1.00  0.00    -0.322 N 
HETATM    4  H6  UNL     1      24.669   1.541  50.088  1.00  0.00     0.169 HD
ENDROOT
BRANCH   3   5
HETATM    5  C7  UNL     1      23.118   1.340  51.453  1.00  0.00     0.046 A 
HETATM    6  C8  UNL     1      21.772   1.265  51.156  1.00  0.00     0.030 A 
HETATM    7  C9  UNL     1      20.865   0.523  51.859  1.00  0.00     0.003 A 
HETATM    8  C10 UNL     1      21.307  -0.196  52.930  1.00  0.00     0.012 A 
HETATM    9  C11 UNL     1      22.649  -0.170  53.290  1.00  0.00    -0.024 A 
HETATM   10  C12 UNL     1      23.071  -0.908  54.379  1.00  0.00     0.012 A 
HETATM   11  C16 UNL     1      23.541   0.593  52.555  1.00  0.00     0.001 A 
HETATM   12  C13 UNL     1      24.405  -0.870  54.722  1.00  0.00     0.001 A 
HETATM   13  C14 UNL     1      25.335  -0.117  54.011  1.00  0.00     0.001 A 
HETATM   14  C15 UNL     1      24.853   0.599  52.933  1.00  0.00     0.014 A 
ENDBRANCH   3   5
BRANCH   1  15
HETATM   15  C5  UNL     1      25.312   4.223  50.126  1.00  0.00     0.032 A 
HETATM   16  C4  UNL     1      25.163   5.562  49.934  1.00  0.00     0.019 A 
HETATM   17  C3  UNL     1      26.081   6.325  49.227  1.00  0.00     0.031 A 
HETATM   18  C2  UNL     1      27.202   5.749  48.680  1.00  0.00     0.045 A 
HETATM   19  C18 UNL     1      27.348   4.397  48.877  1.00  0.00     0.031 A 
HETATM   20  C17 UNL     1      26.436   3.638  49.579  1.00  0.00     0.019 A 
BRANCH  18  21
HETATM   21  N1  UNL     1      28.163   6.477  47.956  1.00  0.00    -0.295 N 
HETATM   22  C1  UNL     1      29.563   6.098  47.965  1.00  0.00     0.171 C 
HETATM   23 CL1  UNL     1      27.695   7.859  47.028  1.00  0.00     0.013 Cl
ENDBRANCH  18  21
ENDBRANCH   1  15
TORSDOF 3
ENDMDL
MODEL 5
REMARK VINA RESULT:      -8.3      3.381      3.853
REMARK  3 active torsions:
REMARK  status: ('A' for Active; 'I' for Inactive)
REMARK    1  A    between atoms: N1_2  and  C2_4 
REMARK    2  A    between atoms: C5_7  and  C6_8 
REMARK       I    between atoms: C6_8  and  N2_10 
REMARK    3  A    between atoms: N2_10  and  C7_11 
ROOT
HETATM    1  C6  UNL     1      25.824   2.494  50.989  1.00  0.00     0.256 C 
HETATM    2  O1  UNL     1      26.847   2.875  50.386  1.00  0.00    -0.267 OA
HETATM    3  N2  UNL     1      25.943   1.787  52.219  1.00  0.00    -0.322 N 
HETATM    4  H6  UNL     1      25.087   1.469  52.723  1.00  0.00     0.169 HD
ENDROOT
BRANCH   3   5
HETATM    5  C7  UNL     1      27.158   1.454  52.860  1.00  0.00     0.046 A 
HETATM    6  C8  UNL     1      28.021   2.339  53.476  1.00  0.00     0.030 A 
HETATM    7  C9  UNL     1      29.189   1.981  54.087  1.00  0.00     0.003 A 
HETATM    8  C10 UNL     1      29.540   0.663  54.096  1.00  0.00     0.012 A 
HETATM    9  C11 UNL     1      28.722  -0.286  53.496  1.00  0.00    -0.024 A 
HETATM   10  C12 UNL     1      29.100  -1.614  53.518  1.00  0.00     0.012 A 
HETATM   11  C16 UNL     1      27.544   0.112  52.885  1.00  0.00     0.001 A 
HETATM   12  C13 UNL     1      28.278  -2.543  52.918  1.00  0.00     0.001 A 
HETATM   13  C14 UNL     1      27.085  -2.186  52.294  1.00  0.00     0.001 A 
HETATM   14  C15 UNL     1      26.762  -0.844  52.304  1.00  0.00     0.014 A 
ENDBRANCH   3   5
BRANCH   1  15
HETATM   15  C5  UNL     1      24.536   2.809  50.377  1.00  0.00     0.032 A 
HETATM   16  C4  UNL     1      24.469   3.810  49.456  1.00  0.00     0.019 A 
HETATM   17  C3  UNL     1      23.286   4.172  48.827  1.00  0.00     0.031 A 
HETATM   18  C2  UNL     1      22.110   3.523  49.113  1.00  0.00     0.045 A 
HETATM   19  C18 UNL     1      22.183   2.514  50.043  1.00  0.00     0.031 A 
HETATM   20  C17 UNL     1      23.358   2.153  50.668  1.00  0.00     0.019 A 
BRANCH  18  21
HETATM   21  N1  UNL     1      20.886   3.850  48.504  1.00  0.00    -0.295 N 
HETATM   22  C1  UNL     1      19.850   2.855  48.304  1.00  0.00     0.171 C 
HETATM   23 CL1  UNL     1      20.581   5.466  47.969  1.00  0.00     0.013 Cl
ENDBRANCH  18  21
ENDBRANCH   1  15
TORSDOF 3
ENDMDL
MODEL 6
REMARK VINA RESULT:      -8.2      5.700      7.590
REMARK  3 active torsions:
REMARK  status: ('A' for Active; 'I' for Inactive)
REMARK    1  A    between atoms: N1_2  and  C2_4 
REMARK    2  A    between atoms: C5_7  and  C6_8 
REMARK       I    between atoms: C6_8  and  N2_10 
REMARK    3  A    between atoms: N2_10  and  C7_11 
ROOT
HETATM    1  C6  UNL     1      26.534   3.424  49.925  1.00  0.00     0.256 C 
HETATM    2  O1  UNL     1      26.973   2.455  49.275  1.00  0.00    -0.267 OA
HETATM    3  N2  UNL     1      26.109   3.246  51.273  1.00  0.00    -0.322 N 
HETATM    4  H6  UNL     1      25.741   4.058  51.815  1.00  0.00     0.169 HD
ENDROOT
BRANCH   3   5
HETATM    5  C7  UNL     1      26.133   2.026  51.986  1.00  0.00     0.046 A 
HETATM    6  C8  UNL     1      27.264   1.364  52.424  1.00  0.00     0.030 A 
HETATM    7  C9  UNL     1      27.250   0.184  53.112  1.00  0.00     0.003 A 
HETATM    8  C10 UNL     1      26.045  -0.389  53.393  1.00  0.00     0.012 A 
HETATM    9  C11 UNL     1      24.864   0.218  52.986  1.00  0.00    -0.024 A 
HETATM   10  C12 UNL     1      23.657  -0.384  53.282  1.00  0.00     0.012 A 
HETATM   11  C16 UNL     1      24.915   1.415  52.289  1.00  0.00     0.001 A 
HETATM   12  C13 UNL     1      22.496   0.233  52.870  1.00  0.00     0.001 A 
HETATM   13  C14 UNL     1      22.501   1.435  52.168  1.00  0.00     0.001 A 
HETATM   14  C15 UNL     1      23.738   1.988  51.901  1.00  0.00     0.014 A 
ENDBRANCH   3   5
BRANCH   1  15
HETATM   15  C5  UNL     1      26.483   4.714  49.242  1.00  0.00     0.032 A 
HETATM   16  C4  UNL     1      25.292   5.365  49.146  1.00  0.00     0.019 A 
HETATM   17  C3  UNL     1      25.157   6.593  48.514  1.00  0.00     0.031 A 
HETATM   18  C2  UNL     1      26.242   7.216  47.947  1.00  0.00     0.045 A 
HETATM   19  C18 UNL     1      27.442   6.555  48.047  1.00  0.00     0.031 A 
HETATM   20  C17 UNL     1      27.578   5.335  48.675  1.00  0.00     0.019 A 
BRANCH  18  21
HETATM   21  N1  UNL     1      26.159   8.460  47.297  1.00  0.00    -0.295 N 
HETATM   22  C1  UNL     1      26.734   9.657  47.879  1.00  0.00     0.171 C 
HETATM   23 CL1  UNL     1      25.360   8.595  45.770  1.00  0.00     0.013 Cl
ENDBRANCH  18  21
ENDBRANCH   1  15
TORSDOF 3
ENDMDL
MODEL 7
REMARK VINA RESULT:      -8.2      6.482      9.174
REMARK  3 active torsions:
REMARK  status: ('A' for Active; 'I' for Inactive)
REMARK    1  A    between atoms: N1_2  and  C2_4 
REMARK    2  A    between atoms: C5_7  and  C6_8 
REMARK       I    between atoms: C6_8  and  N2_10 
REMARK    3  A    between atoms: N2_10  and  C7_11 
ROOT
HETATM    1  C6  UNL     1      26.218   4.092  49.626  1.00  0.00     0.256 C 
HETATM    2  O1  UNL     1      26.826   3.006  49.708  1.00  0.00    -0.267 OA
HETATM    3  N2  UNL     1      24.926   4.232  50.207  1.00  0.00    -0.322 N 
HETATM    4  H6  UNL     1      24.418   5.141  50.137  1.00  0.00     0.169 HD
ENDROOT
BRANCH   3   5
HETATM    5  C7  UNL     1      24.224   3.221  50.901  1.00  0.00     0.046 A 
HETATM    6  C8  UNL     1      24.396   2.877  52.227  1.00  0.00     0.030 A 
HETATM    7  C9  UNL     1      23.699   1.891  52.867  1.00  0.00     0.003 A 
HETATM    8  C10 UNL     1      22.767   1.192  52.159  1.00  0.00     0.012 A 
HETATM    9  C11 UNL     1      22.537   1.481  50.820  1.00  0.00    -0.024 A 
HETATM   10  C12 UNL     1      21.588   0.758  50.125  1.00  0.00     0.012 A 
HETATM   11  C16 UNL     1      23.263   2.487  50.202  1.00  0.00     0.001 A 
HETATM   12  C13 UNL     1      21.373   1.058  48.797  1.00  0.00     0.001 A 
HETATM   13  C14 UNL     1      22.079   2.060  48.138  1.00  0.00     0.001 A 
HETATM   14  C15 UNL     1      23.015   2.748  48.885  1.00  0.00     0.014 A 
ENDBRANCH   3   5
BRANCH   1  15
HETATM   15  C5  UNL     1      26.892   5.178  48.919  1.00  0.00     0.032 A 
HETATM   16  C4  UNL     1      28.202   5.032  48.577  1.00  0.00     0.019 A 
HETATM   17  C3  UNL     1      28.916   6.014  47.905  1.00  0.00     0.031 A 
HETATM   18  C2  UNL     1      28.319   7.199  47.550  1.00  0.00     0.045 A 
HETATM   19  C18 UNL     1      26.998   7.342  47.897  1.00  0.00     0.031 A 
HETATM   20  C17 UNL     1      26.287   6.366  48.564  1.00  0.00     0.019 A 
BRANCH  18  21
HETATM   21  N1  UNL     1      28.997   8.225  46.869  1.00  0.00    -0.295 N 
HETATM   22  C1  UNL     1      28.448   9.564  46.779  1.00  0.00     0.171 C 
HETATM   23 CL1  UNL     1      30.519   7.912  46.109  1.00  0.00     0.013 Cl
ENDBRANCH  18  21
ENDBRANCH   1  15
TORSDOF 3
ENDMDL
MODEL 8
REMARK VINA RESULT:      -8.1      2.087      3.180
REMARK  3 active torsions:
REMARK  status: ('A' for Active; 'I' for Inactive)
REMARK    1  A    between atoms: N1_2  and  C2_4 
REMARK    2  A    between atoms: C5_7  and  C6_8 
REMARK       I    between atoms: C6_8  and  N2_10 
REMARK    3  A    between atoms: N2_10  and  C7_11 
ROOT
HETATM    1  C6  UNL     1      24.060   0.324  52.904  1.00  0.00     0.256 C 
HETATM    2  O1  UNL     1      23.953  -0.353  53.946  1.00  0.00    -0.267 OA
HETATM    3  N2  UNL     1      25.285   0.329  52.179  1.00  0.00    -0.322 N 
HETATM    4  H6  UNL     1      25.373   0.896  51.307  1.00  0.00     0.169 HD
ENDROOT
BRANCH   3   5
HETATM    5  C7  UNL     1      26.451  -0.387  52.533  1.00  0.00     0.046 A 
HETATM    6  C8  UNL     1      26.639  -1.748  52.401  1.00  0.00     0.030 A 
HETATM    7  C9  UNL     1      27.782  -2.409  52.754  1.00  0.00     0.003 A 
HETATM    8  C10 UNL     1      28.815  -1.685  53.274  1.00  0.00     0.012 A 
HETATM    9  C11 UNL     1      28.699  -0.311  53.437  1.00  0.00    -0.024 A 
HETATM   10  C12 UNL     1      29.760   0.398  53.966  1.00  0.00     0.012 A 
HETATM   11  C16 UNL     1      27.526   0.327  53.068  1.00  0.00     0.001 A 
HETATM   12  C13 UNL     1      29.628   1.762  54.121  1.00  0.00     0.001 A 
HETATM   13  C14 UNL     1      28.467   2.442  53.763  1.00  0.00     0.001 A 
HETATM   14  C15 UNL     1      27.442   1.679  53.240  1.00  0.00     0.014 A 
ENDBRANCH   3   5
BRANCH   1  15
HETATM   15  C5  UNL     1      22.887   1.087  52.485  1.00  0.00     0.032 A 
HETATM   16  C4  UNL     1      22.975   2.444  52.405  1.00  0.00     0.019 A 
HETATM   17  C3  UNL     1      21.910   3.243  52.016  1.00  0.00     0.031 A 
HETATM   18  C2  UNL     1      20.696   2.688  51.689  1.00  0.00     0.045 A 
HETATM   19  C18 UNL     1      20.613   1.319  51.771  1.00  0.00     0.031 A 
HETATM   20  C17 UNL     1      21.671   0.524  52.157  1.00  0.00     0.019 A 
BRANCH  18  21
HETATM   21  N1  UNL     1      19.586   3.452  51.288  1.00  0.00    -0.295 N 
HETATM   22  C1  UNL     1      18.231   3.038  51.598  1.00  0.00     0.171 C 
HETATM   23 CL1  UNL     1      19.811   4.920  50.402  1.00  0.00     0.013 Cl
ENDBRANCH  18  21
ENDBRANCH   1  15
TORSDOF 3
ENDMDL
MODEL 9
REMARK VINA RESULT:      -8.1      4.889      7.755
REMARK  3 active torsions:
REMARK  status: ('A' for Active; 'I' for Inactive)
REMARK    1  A    between atoms: N1_2  and  C2_4 
REMARK    2  A    between atoms: C5_7  and  C6_8 
REMARK       I    between atoms: C6_8  and  N2_10 
REMARK    3  A    between atoms: N2_10  and  C7_11 
ROOT
HETATM    1  C6  UNL     1      22.878   2.431  50.163  1.00  0.00     0.256 C 
HETATM    2  O1  UNL     1      22.440   1.678  49.271  1.00  0.00    -0.267 OA
HETATM    3  N2  UNL     1      22.340   2.367  51.480  1.00  0.00    -0.322 N 
HETATM    4  H6  UNL     1      22.707   2.997  52.225  1.00  0.00     0.169 HD
ENDROOT
BRANCH   3   5
HETATM    5  C7  UNL     1      21.309   1.496  51.904  1.00  0.00     0.046 A 
HETATM    6  C8  UNL     1      19.992   1.537  51.490  1.00  0.00     0.030 A 
HETATM    7  C9  UNL     1      19.021   0.678  51.921  1.00  0.00     0.003 A 
HETATM    8  C10 UNL     1      19.361  -0.288  52.821  1.00  0.00     0.012 A 
HETATM    9  C11 UNL     1      20.667  -0.390  53.283  1.00  0.00    -0.024 A 
HETATM   10  C12 UNL     1      20.986  -1.378  54.195  1.00  0.00     0.012 A 
HETATM   11  C16 UNL     1      21.628   0.497  52.825  1.00  0.00     0.001 A 
HETATM   12  C13 UNL     1      22.287  -1.465  54.643  1.00  0.00     0.001 A 
HETATM   13  C14 UNL     1      23.282  -0.594  54.208  1.00  0.00     0.001 A 
HETATM   14  C15 UNL     1      22.902   0.372  53.298  1.00  0.00     0.014 A 
ENDBRANCH   3   5
BRANCH   1  15
HETATM   15  C5  UNL     1      23.946   3.354  49.787  1.00  0.00     0.032 A 
HETATM   16  C4  UNL     1      25.238   3.010  50.042  1.00  0.00     0.019 A 
HETATM   17  C3  UNL     1      26.310   3.828  49.717  1.00  0.00     0.031 A 
HETATM   18  C2  UNL     1      26.109   5.045  49.112  1.00  0.00     0.045 A 
HETATM   19  C18 UNL     1      24.803   5.388  48.856  1.00  0.00     0.031 A 
HETATM   20  C17 UNL     1      23.737   4.575  49.179  1.00  0.00     0.019 A 
BRANCH  18  21
HETATM   21  N1  UNL     1      27.160   5.911  48.762  1.00  0.00    -0.295 N 
HETATM   22  C1  UNL     1      27.000   7.352  48.807  1.00  0.00     0.171 C 
HETATM   23 CL1  UNL     1      28.687   5.273  48.260  1.00  0.00     0.013 Cl
ENDBRANCH  18  21
ENDBRANCH   1  15
TORSDOF 3
ENDMDL
