MODEL 1
REMARK VINA RESULT:      -8.7      0.000      0.000
REMARK  3 active torsions:
REMARK  status: ('A' for Active; 'I' for Inactive)
REMARK       I    between atoms: C2_2  and  N1_4 
REMARK    1  A    between atoms: N1_4  and  C3_5 
REMARK    2  A    between atoms: C8_10  and  N2_11 
REMARK    3  A    between atoms: N2_11  and  C9_12 
ROOT
HETATM    1  N2  UNL     1      25.835   2.878  52.986  1.00  0.00    -0.189 N 
HETATM    2  H10 UNL     1      26.028   3.868  53.334  1.00  0.00     0.184 HD
ENDROOT
BRANCH   1   3
HETATM    3  C8  UNL     1      24.577   2.557  52.424  1.00  0.00     0.057 A 
HETATM    4  C6  UNL     1      24.318   3.060  51.143  1.00  0.00    -0.035 A 
HETATM    5  C5  UNL     1      23.124   2.793  50.512  1.00  0.00     0.011 A 
HETATM    6  C7  UNL     1      25.342   3.907  50.431  1.00  0.00     0.050 C 
HETATM    7  C4  UNL     1      22.213   2.027  51.171  1.00  0.00     0.030 A 
HETATM    8  C3  UNL     1      22.393   1.505  52.410  1.00  0.00     0.036 A 
HETATM    9  C17 UNL     1      23.598   1.795  53.008  1.00  0.00     0.060 A 
BRANCH   8  10
HETATM   10  N1  UNL     1      21.487   0.718  53.121  1.00  0.00    -0.327 N 
HETATM   11  C2  UNL     1      21.538  -0.660  53.415  1.00  0.00     0.218 C 
HETATM   12  C1  UNL     1      20.546  -1.443  54.175  1.00  0.00     0.117 C 
HETATM   13  O1  UNL     1      22.496  -1.328  53.014  1.00  0.00    -0.274 OA
HETATM   14  H4  UNL     1      20.606   1.126  53.538  1.00  0.00     0.169 HD
ENDBRANCH   8  10
ENDBRANCH   1   3
BRANCH   1  15
HETATM   15  C9  UNL     1      26.934   1.976  53.133  1.00  0.00     0.705 C 
HETATM   16  N3  UNL     1      27.928   2.545  53.741  1.00  0.00    -0.077 NA
HETATM   17  C10 UNL     1      29.199   2.046  54.098  1.00  0.00     0.137 C 
HETATM   18  C11 UNL     1      29.590   0.777  53.999  1.00  0.00     0.035 C 
HETATM   19  C12 UNL     1      28.874  -0.418  53.520  1.00  0.00     0.010 A 
HETATM   20  C13 UNL     1      29.528  -1.604  53.711  1.00  0.00     0.130 A 
HETATM   21  C16 UNL     1      27.619  -0.464  52.904  1.00  0.00     0.062 A 
HETATM   22  N4  UNL     1      28.956  -2.755  53.308  1.00  0.00    -0.272 NA
HETATM   23  C14 UNL     1      27.748  -2.777  52.717  1.00  0.00     0.118 A 
HETATM   24  C15 UNL     1      27.012  -1.618  52.483  1.00  0.00     0.050 A 
HETATM   25  N5  UNL     1      26.798   0.673  52.626  1.00  0.00    -0.189 N 
HETATM   26  H16 UNL     1      25.990   0.566  51.971  1.00  0.00     0.184 HD
ENDBRANCH   1  15
TORSDOF 3
ENDMDL
MODEL 2
REMARK VINA RESULT:      -8.4      2.687      6.537
REMARK  3 active torsions:
REMARK  status: ('A' for Active; 'I' for Inactive)
REMARK       I    between atoms: C2_2  and  N1_4 
REMARK    1  A    between atoms: N1_4  and  C3_5 
REMARK    2  A    between atoms: C8_10  and  N2_11 
REMARK    3  A    between atoms: N2_11  and  C9_12 
ROOT
HETATM    1  N2  UNL     1      23.729   1.693  51.178  1.00  0.00    -0.189 N 
HETATM    2  H10 UNL     1      23.008   1.229  50.543  1.00  0.00     0.184 HD
ENDROOT
BRANCH   1   3
HETATM    3  C8  UNL     1      24.350   0.949  52.210  1.00  0.00     0.057 A 
HETATM    4  C6  UNL     1      23.500   0.221  53.052  1.00  0.00    -0.035 A 
HETATM    5  C5  UNL     1      24.013  -0.541  54.078  1.00  0.00     0.011 A 
HETATM    6  C7  UNL     1      22.006   0.257  52.852  1.00  0.00     0.050 C 
HETATM    7  C4  UNL     1      25.364  -0.561  54.243  1.00  0.00     0.030 A 
HETATM    8  C3  UNL     1      26.248   0.117  53.468  1.00  0.00     0.036 A 
HETATM    9  C17 UNL     1      25.696   0.866  52.454  1.00  0.00     0.060 A 
BRANCH   8  10
HETATM   10  N1  UNL     1      27.635   0.125  53.602  1.00  0.00    -0.327 N 
HETATM   11  C2  UNL     1      28.555  -0.933  53.453  1.00  0.00     0.218 C 
HETATM   12  C1  UNL     1      30.020  -0.865  53.607  1.00  0.00     0.117 C 
HETATM   13  O1  UNL     1      28.137  -2.058  53.162  1.00  0.00    -0.274 OA
HETATM   14  H4  UNL     1      28.164   1.007  53.848  1.00  0.00     0.169 HD
ENDBRANCH   8  10
ENDBRANCH   1   3
BRANCH   1  15
HETATM   15  C9  UNL     1      23.986   3.066  50.875  1.00  0.00     0.705 C 
HETATM   16  N3  UNL     1      23.206   3.848  51.554  1.00  0.00    -0.077 NA
HETATM   17  C10 UNL     1      23.104   5.255  51.579  1.00  0.00     0.137 C 
HETATM   18  C11 UNL     1      23.938   6.104  50.979  1.00  0.00     0.035 C 
HETATM   19  C12 UNL     1      25.139   5.860  50.162  1.00  0.00     0.010 A 
HETATM   20  C13 UNL     1      25.858   6.977  49.837  1.00  0.00     0.130 A 
HETATM   21  C16 UNL     1      25.609   4.629  49.694  1.00  0.00     0.062 A 
HETATM   22  N4  UNL     1      26.974   6.860  49.091  1.00  0.00    -0.272 NA
HETATM   23  C14 UNL     1      27.409   5.666  48.652  1.00  0.00     0.118 A 
HETATM   24  C15 UNL     1      26.739   4.478  48.935  1.00  0.00     0.050 A 
HETATM   25  N5  UNL     1      24.987   3.365  49.937  1.00  0.00    -0.189 N 
HETATM   26  H16 UNL     1      25.282   2.538  49.368  1.00  0.00     0.184 HD
ENDBRANCH   1  15
TORSDOF 3
ENDMDL
MODEL 3
REMARK VINA RESULT:      -8.2      3.913      6.523
REMARK  3 active torsions:
REMARK  status: ('A' for Active; 'I' for Inactive)
REMARK       I    between atoms: C2_2  and  N1_4 
REMARK    1  A    between atoms: N1_4  and  C3_5 
REMARK    2  A    between atoms: C8_10  and  N2_11 
REMARK    3  A    between atoms: N2_11  and  C9_12 
ROOT
HETATM    1  N2  UNL     1      25.403   3.264  49.957  1.00  0.00    -0.189 N 
HETATM    2  H10 UNL     1      24.611   2.881  49.353  1.00  0.00     0.184 HD
ENDROOT
BRANCH   1   3
HETATM    3  C8  UNL     1      26.144   4.389  49.524  1.00  0.00     0.057 A 
HETATM    4  C6  UNL     1      25.603   5.646  49.823  1.00  0.00    -0.035 A 
HETATM    5  C5  UNL     1      26.256   6.799  49.451  1.00  0.00     0.011 A 
HETATM    6  C7  UNL     1      24.291   5.761  50.559  1.00  0.00     0.050 C 
HETATM    7  C4  UNL     1      27.438   6.675  48.788  1.00  0.00     0.030 A 
HETATM    8  C3  UNL     1      28.023   5.494  48.464  1.00  0.00     0.036 A 
HETATM    9  C17 UNL     1      27.339   4.365  48.853  1.00  0.00     0.060 A 
BRANCH   8  10
HETATM   10  N1  UNL     1      29.230   5.322  47.786  1.00  0.00    -0.327 N 
HETATM   11  C2  UNL     1      30.550   5.418  48.271  1.00  0.00     0.218 C 
HETATM   12  C1  UNL     1      31.795   5.225  47.504  1.00  0.00     0.117 C 
HETATM   13  O1  UNL     1      30.737   5.694  49.460  1.00  0.00    -0.274 OA
HETATM   14  H4  UNL     1      29.259   5.081  46.757  1.00  0.00     0.169 HD
ENDBRANCH   8  10
ENDBRANCH   1   3
BRANCH   1  15
HETATM   15  C9  UNL     1      25.605   2.559  51.183  1.00  0.00     0.705 C 
HETATM   16  N3  UNL     1      24.626   1.741  51.419  1.00  0.00    -0.077 NA
HETATM   17  C10 UNL     1      24.402   0.855  52.494  1.00  0.00     0.137 C 
HETATM   18  C11 UNL     1      25.276   0.568  53.457  1.00  0.00     0.035 C 
HETATM   19  C12 UNL     1      26.649   1.049  53.689  1.00  0.00     0.010 A 
HETATM   20  C13 UNL     1      27.327   0.415  54.694  1.00  0.00     0.130 A 
HETATM   21  C16 UNL     1      27.318   2.066  53.000  1.00  0.00     0.062 A 
HETATM   22  N4  UNL     1      28.590   0.783  54.984  1.00  0.00    -0.272 NA
HETATM   23  C14 UNL     1      29.214   1.763  54.308  1.00  0.00     0.118 A 
HETATM   24  C15 UNL     1      28.601   2.462  53.271  1.00  0.00     0.050 A 
HETATM   25  N5  UNL     1      26.766   2.831  51.925  1.00  0.00    -0.189 N 
HETATM   26  H16 UNL     1      27.253   3.707  51.626  1.00  0.00     0.184 HD
ENDBRANCH   1  15
TORSDOF 3
ENDMDL
MODEL 4
REMARK VINA RESULT:      -8.1      2.754      5.147
REMARK  3 active torsions:
REMARK  status: ('A' for Active; 'I' for Inactive)
REMARK       I    between atoms: C2_2  and  N1_4 
REMARK    1  A    between atoms: N1_4  and  C3_5 
REMARK    2  A    between atoms: C8_10  and  N2_11 
REMARK    3  A    between atoms: N2_11  and  C9_12 
ROOT
HETATM    1  N2  UNL     1      23.793   3.311  52.530  1.00  0.00    -0.189 N 
HETATM    2  H10 UNL     1      23.100   3.713  53.235  1.00  0.00     0.184 HD
ENDROOT
BRANCH   1   3
HETATM    3  C8  UNL     1      23.836   3.818  51.209  1.00  0.00     0.057 A 
HETATM    4  C6  UNL     1      22.718   3.561  50.405  1.00  0.00    -0.035 A 
HETATM    5  C5  UNL     1      22.664   4.022  49.109  1.00  0.00     0.011 A 
HETATM    6  C7  UNL     1      21.551   2.772  50.944  1.00  0.00     0.050 C 
HETATM    7  C4  UNL     1      23.727   4.731  48.641  1.00  0.00     0.030 A 
HETATM    8  C3  UNL     1      24.842   5.019  49.359  1.00  0.00     0.036 A 
HETATM    9  C17 UNL     1      24.857   4.541  50.649  1.00  0.00     0.060 A 
BRANCH   8  10
HETATM   10  N1  UNL     1      25.951   5.740  48.919  1.00  0.00    -0.327 N 
HETATM   11  C2  UNL     1      27.264   5.295  48.666  1.00  0.00     0.218 C 
HETATM   12  C1  UNL     1      28.404   6.108  48.199  1.00  0.00     0.117 C 
HETATM   13  O1  UNL     1      27.542   4.104  48.839  1.00  0.00    -0.274 OA
HETATM   14  H4  UNL     1      25.896   6.777  48.719  1.00  0.00     0.169 HD
ENDBRANCH   8  10
ENDBRANCH   1   3
BRANCH   1  15
HETATM   15  C9  UNL     1      24.629   2.275  53.048  1.00  0.00     0.705 C 
HETATM   16  N3  UNL     1      23.997   1.143  53.091  1.00  0.00    -0.077 NA
HETATM   17  C10 UNL     1      24.417  -0.133  53.523  1.00  0.00     0.137 C 
HETATM   18  C11 UNL     1      25.663  -0.467  53.856  1.00  0.00     0.035 C 
HETATM   19  C12 UNL     1      26.902   0.328  53.878  1.00  0.00     0.010 A 
HETATM   20  C13 UNL     1      28.047  -0.382  54.117  1.00  0.00     0.130 A 
HETATM   21  C16 UNL     1      27.027   1.708  53.683  1.00  0.00     0.062 A 
HETATM   22  N4  UNL     1      29.233   0.255  54.157  1.00  0.00    -0.272 NA
HETATM   23  C14 UNL     1      29.330   1.583  53.967  1.00  0.00     0.118 A 
HETATM   24  C15 UNL     1      28.218   2.384  53.718  1.00  0.00     0.050 A 
HETATM   25  N5  UNL     1      25.942   2.602  53.423  1.00  0.00    -0.189 N 
HETATM   26  H16 UNL     1      26.103   3.632  53.513  1.00  0.00     0.184 HD
ENDBRANCH   1  15
TORSDOF 3
ENDMDL
MODEL 5
REMARK VINA RESULT:      -8.1      2.859      6.817
REMARK  3 active torsions:
REMARK  status: ('A' for Active; 'I' for Inactive)
REMARK       I    between atoms: C2_2  and  N1_4 
REMARK    1  A    between atoms: N1_4  and  C3_5 
REMARK    2  A    between atoms: C8_10  and  N2_11 
REMARK    3  A    between atoms: N2_11  and  C9_12 
ROOT
HETATM    1  N2  UNL     1      24.011   2.013  51.314  1.00  0.00    -0.189 N 
HETATM    2  H10 UNL     1      23.019   1.913  50.934  1.00  0.00     0.184 HD
ENDROOT
BRANCH   1   3
HETATM    3  C8  UNL     1      24.534   1.041  52.199  1.00  0.00     0.057 A 
HETATM    4  C6  UNL     1      23.623   0.447  53.082  1.00  0.00    -0.035 A 
HETATM    5  C5  UNL     1      24.037  -0.517  53.974  1.00  0.00     0.011 A 
HETATM    6  C7  UNL     1      22.171   0.853  53.074  1.00  0.00     0.050 C 
HETATM    7  C4  UNL     1      25.351  -0.870  53.966  1.00  0.00     0.030 A 
HETATM    8  C3  UNL     1      26.289  -0.340  53.142  1.00  0.00     0.036 A 
HETATM    9  C17 UNL     1      25.837   0.619  52.265  1.00  0.00     0.060 A 
BRANCH   8  10
HETATM   10  N1  UNL     1      27.643  -0.672  53.101  1.00  0.00    -0.327 N 
HETATM   11  C2  UNL     1      28.698  -0.226  53.922  1.00  0.00     0.218 C 
HETATM   12  C1  UNL     1      30.119  -0.613  53.832  1.00  0.00     0.117 C 
HETATM   13  O1  UNL     1      28.459   0.577  54.829  1.00  0.00    -0.274 OA
HETATM   14  H4  UNL     1      28.027  -1.349  52.386  1.00  0.00     0.169 HD
ENDBRANCH   8  10
ENDBRANCH   1   3
BRANCH   1  15
HETATM   15  C9  UNL     1      24.711   3.167  50.843  1.00  0.00     0.705 C 
HETATM   16  N3  UNL     1      25.666   2.835  50.031  1.00  0.00    -0.077 NA
HETATM   17  C10 UNL     1      26.603   3.627  49.333  1.00  0.00     0.137 C 
HETATM   18  C11 UNL     1      26.592   4.957  49.261  1.00  0.00     0.035 C 
HETATM   19  C12 UNL     1      25.669   5.947  49.843  1.00  0.00     0.010 A 
HETATM   20  C13 UNL     1      25.860   7.236  49.428  1.00  0.00     0.130 A 
HETATM   21  C16 UNL     1      24.638   5.709  50.758  1.00  0.00     0.062 A 
HETATM   22  N4  UNL     1      25.067   8.216  49.902  1.00  0.00    -0.272 NA
HETATM   23  C14 UNL     1      24.081   7.965  50.781  1.00  0.00     0.118 A 
HETATM   24  C15 UNL     1      23.815   6.683  51.258  1.00  0.00     0.050 A 
HETATM   25  N5  UNL     1      24.297   4.429  51.297  1.00  0.00    -0.189 N 
HETATM   26  H16 UNL     1      23.667   4.383  52.131  1.00  0.00     0.184 HD
ENDBRANCH   1  15
TORSDOF 3
ENDMDL
MODEL 6
REMARK VINA RESULT:      -7.9      3.617      5.647
REMARK  3 active torsions:
REMARK  status: ('A' for Active; 'I' for Inactive)
REMARK       I    between atoms: C2_2  and  N1_4 
REMARK    1  A    between atoms: N1_4  and  C3_5 
REMARK    2  A    between atoms: C8_10  and  N2_11 
REMARK    3  A    between atoms: N2_11  and  C9_12 
ROOT
HETATM    1  N2  UNL     1      26.611   3.537  49.449  1.00  0.00    -0.189 N 
HETATM    2  H10 UNL     1      27.185   2.935  48.780  1.00  0.00     0.184 HD
ENDROOT
BRANCH   1   3
HETATM    3  C8  UNL     1      26.203   4.835  49.062  1.00  0.00     0.057 A 
HETATM    4  C6  UNL     1      27.198   5.673  48.542  1.00  0.00    -0.035 A 
HETATM    5  C5  UNL     1      26.895   6.951  48.130  1.00  0.00     0.011 A 
HETATM    6  C7  UNL     1      28.622   5.191  48.423  1.00  0.00     0.050 C 
HETATM    7  C4  UNL     1      25.604   7.368  48.245  1.00  0.00     0.030 A 
HETATM    8  C3  UNL     1      24.589   6.615  48.738  1.00  0.00     0.036 A 
HETATM    9  C17 UNL     1      24.932   5.344  49.139  1.00  0.00     0.060 A 
BRANCH   8  10
HETATM   10  N1  UNL     1      23.256   7.002  48.874  1.00  0.00    -0.327 N 
HETATM   11  C2  UNL     1      22.605   7.595  49.974  1.00  0.00     0.218 C 
HETATM   12  C1  UNL     1      21.185   7.985  50.061  1.00  0.00     0.117 C 
HETATM   13  O1  UNL     1      23.249   7.833  51.001  1.00  0.00    -0.274 OA
HETATM   14  H4  UNL     1      22.558   6.872  48.090  1.00  0.00     0.169 HD
ENDBRANCH   8  10
ENDBRANCH   1   3
BRANCH   1  15
HETATM   15  C9  UNL     1      26.311   2.910  50.697  1.00  0.00     0.705 C 
HETATM   16  N3  UNL     1      25.081   2.497  50.729  1.00  0.00    -0.077 NA
HETATM   17  C10 UNL     1      24.356   1.833  51.741  1.00  0.00     0.137 C 
HETATM   18  C11 UNL     1      24.869   1.348  52.871  1.00  0.00     0.035 C 
HETATM   19  C12 UNL     1      26.250   1.350  53.382  1.00  0.00     0.010 A 
HETATM   20  C13 UNL     1      26.453   0.611  54.515  1.00  0.00     0.130 A 
HETATM   21  C16 UNL     1      27.353   2.018  52.840  1.00  0.00     0.062 A 
HETATM   22  N4  UNL     1      27.682   0.549  55.062  1.00  0.00    -0.272 NA
HETATM   23  C14 UNL     1      28.730   1.199  54.523  1.00  0.00     0.118 A 
HETATM   24  C15 UNL     1      28.615   1.975  53.373  1.00  0.00     0.050 A 
HETATM   25  N5  UNL     1      27.325   2.833  51.665  1.00  0.00    -0.189 N 
HETATM   26  H16 UNL     1      28.136   3.462  51.466  1.00  0.00     0.184 HD
ENDBRANCH   1  15
TORSDOF 3
ENDMDL
MODEL 7
REMARK VINA RESULT:      -7.9      3.559      6.009
REMARK  3 active torsions:
REMARK  status: ('A' for Active; 'I' for Inactive)
REMARK       I    between atoms: C2_2  and  N1_4 
REMARK    1  A    between atoms: N1_4  and  C3_5 
REMARK    2  A    between atoms: C8_10  and  N2_11 
REMARK    3  A    between atoms: N2_11  and  C9_12 
ROOT
HETATM    1  N2  UNL     1      24.382   3.094  50.926  1.00  0.00    -0.189 N 
HETATM    2  H10 UNL     1      23.716   2.580  50.269  1.00  0.00     0.184 HD
ENDROOT
BRANCH   1   3
HETATM    3  C8  UNL     1      24.663   4.465  50.719  1.00  0.00     0.057 A 
HETATM    4  C6  UNL     1      23.770   5.379  51.293  1.00  0.00    -0.035 A 
HETATM    5  C5  UNL     1      23.966   6.735  51.154  1.00  0.00     0.011 A 
HETATM    6  C7  UNL     1      22.575   4.895  52.075  1.00  0.00     0.050 C 
HETATM    7  C4  UNL     1      25.050   7.152  50.445  1.00  0.00     0.030 A 
HETATM    8  C3  UNL     1      25.957   6.327  49.862  1.00  0.00     0.036 A 
HETATM    9  C17 UNL     1      25.726   4.981  50.023  1.00  0.00     0.060 A 
BRANCH   8  10
HETATM   10  N1  UNL     1      27.078   6.712  49.128  1.00  0.00    -0.327 N 
HETATM   11  C2  UNL     1      27.152   7.318  47.857  1.00  0.00     0.218 C 
HETATM   12  C1  UNL     1      28.373   7.704  47.126  1.00  0.00     0.117 C 
HETATM   13  O1  UNL     1      26.107   7.573  47.249  1.00  0.00    -0.274 OA
HETATM   14  H4  UNL     1      28.059   6.568  49.497  1.00  0.00     0.169 HD
ENDBRANCH   8  10
ENDBRANCH   1   3
BRANCH   1  15
HETATM   15  C9  UNL     1      24.913   2.287  51.979  1.00  0.00     0.705 C 
HETATM   16  N3  UNL     1      24.125   1.292  52.248  1.00  0.00    -0.077 NA
HETATM   17  C10 UNL     1      24.240   0.255  53.197  1.00  0.00     0.137 C 
HETATM   18  C11 UNL     1      25.313   0.004  53.946  1.00  0.00     0.035 C 
HETATM   19  C12 UNL     1      26.620   0.680  54.016  1.00  0.00     0.010 A 
HETATM   20  C13 UNL     1      27.560   0.052  54.786  1.00  0.00     0.130 A 
HETATM   21  C16 UNL     1      26.991   1.873  53.388  1.00  0.00     0.062 A 
HETATM   22  N4  UNL     1      28.788   0.591  54.913  1.00  0.00    -0.272 NA
HETATM   23  C14 UNL     1      29.124   1.739  54.300  1.00  0.00     0.118 A 
HETATM   24  C15 UNL     1      28.230   2.446  53.498  1.00  0.00     0.050 A 
HETATM   25  N5  UNL     1      26.140   2.660  52.550  1.00  0.00    -0.189 N 
HETATM   26  H16 UNL     1      26.429   3.636  52.310  1.00  0.00     0.184 HD
ENDBRANCH   1  15
TORSDOF 3
ENDMDL
MODEL 8
REMARK VINA RESULT:      -7.9      2.463      5.907
REMARK  3 active torsions:
REMARK  status: ('A' for Active; 'I' for Inactive)
REMARK       I    between atoms: C2_2  and  N1_4 
REMARK    1  A    between atoms: N1_4  and  C3_5 
REMARK    2  A    between atoms: C8_10  and  N2_11 
REMARK    3  A    between atoms: N2_11  and  C9_12 
ROOT
HETATM    1  N2  UNL     1      26.810   1.783  51.301  1.00  0.00    -0.189 N 
HETATM    2  H10 UNL     1      27.562   1.369  50.667  1.00  0.00     0.184 HD
ENDROOT
BRANCH   1   3
HETATM    3  C8  UNL     1      26.439   1.113  52.491  1.00  0.00     0.057 A 
HETATM    4  C6  UNL     1      27.317   1.232  53.575  1.00  0.00    -0.035 A 
HETATM    5  C5  UNL     1      27.036   0.623  54.777  1.00  0.00     0.011 A 
HETATM    6  C7  UNL     1      28.590   2.031  53.447  1.00  0.00     0.050 C 
HETATM    7  C4  UNL     1      25.883  -0.093  54.874  1.00  0.00     0.030 A 
HETATM    8  C3  UNL     1      24.985  -0.253  53.869  1.00  0.00     0.036 A 
HETATM    9  C17 UNL     1      25.302   0.371  52.685  1.00  0.00     0.060 A 
BRANCH   8  10
HETATM   10  N1  UNL     1      23.795  -0.977  53.926  1.00  0.00    -0.327 N 
HETATM   11  C2  UNL     1      22.464  -0.515  53.880  1.00  0.00     0.218 C 
HETATM   12  C1  UNL     1      21.237  -1.331  53.943  1.00  0.00     0.117 C 
HETATM   13  O1  UNL     1      22.249   0.697  53.777  1.00  0.00    -0.274 OA
HETATM   14  H4  UNL     1      23.790  -2.030  54.014  1.00  0.00     0.169 HD
ENDBRANCH   8  10
ENDBRANCH   1   3
BRANCH   1  15
HETATM   15  C9  UNL     1      26.265   3.021  50.842  1.00  0.00     0.705 C 
HETATM   16  N3  UNL     1      26.931   3.476  49.826  1.00  0.00    -0.077 NA
HETATM   17  C10 UNL     1      26.757   4.647  49.057  1.00  0.00     0.137 C 
HETATM   18  C11 UNL     1      25.727   5.487  49.146  1.00  0.00     0.035 C 
HETATM   19  C12 UNL     1      24.534   5.462  50.010  1.00  0.00     0.010 A 
HETATM   20  C13 UNL     1      23.585   6.404  49.720  1.00  0.00     0.130 A 
HETATM   21  C16 UNL     1      24.276   4.591  51.073  1.00  0.00     0.062 A 
HETATM   22  N4  UNL     1      22.457   6.463  50.453  1.00  0.00    -0.272 NA
HETATM   23  C14 UNL     1      22.229   5.616  51.471  1.00  0.00     0.118 A 
HETATM   24  C15 UNL     1      23.139   4.627  51.836  1.00  0.00     0.050 A 
HETATM   25  N5  UNL     1      25.152   3.550  51.514  1.00  0.00    -0.189 N 
HETATM   26  H16 UNL     1      24.978   3.103  52.444  1.00  0.00     0.184 HD
ENDBRANCH   1  15
TORSDOF 3
ENDMDL
MODEL 9
REMARK VINA RESULT:      -7.6      3.506      6.250
REMARK  3 active torsions:
REMARK  status: ('A' for Active; 'I' for Inactive)
REMARK       I    between atoms: C2_2  and  N1_4 
REMARK    1  A    between atoms: N1_4  and  C3_5 
REMARK    2  A    between atoms: C8_10  and  N2_11 
REMARK    3  A    between atoms: N2_11  and  C9_12 
ROOT
HETATM    1  N2  UNL     1      23.593   2.539  50.456  1.00  0.00    -0.189 N 
HETATM    2  H10 UNL     1      23.004   2.200  49.632  1.00  0.00     0.184 HD
ENDROOT
BRANCH   1   3
HETATM    3  C8  UNL     1      24.057   3.875  50.494  1.00  0.00     0.057 A 
HETATM    4  C6  UNL     1      23.243   4.800  51.159  1.00  0.00    -0.035 A 
HETATM    5  C5  UNL     1      23.615   6.122  51.256  1.00  0.00     0.011 A 
HETATM    6  C7  UNL     1      21.940   4.366  51.783  1.00  0.00     0.050 C 
HETATM    7  C4  UNL     1      24.794   6.494  50.687  1.00  0.00     0.030 A 
HETATM    8  C3  UNL     1      25.634   5.656  50.028  1.00  0.00     0.036 A 
HETATM    9  C17 UNL     1      25.226   4.344  49.953  1.00  0.00     0.060 A 
BRANCH   8  10
HETATM   10  N1  UNL     1      26.847   5.995  49.431  1.00  0.00    -0.327 N 
HETATM   11  C2  UNL     1      27.092   6.749  48.265  1.00  0.00     0.218 C 
HETATM   12  C1  UNL     1      28.404   7.078  47.678  1.00  0.00     0.117 C 
HETATM   13  O1  UNL     1      26.135   7.206  47.630  1.00  0.00    -0.274 OA
HETATM   14  H4  UNL     1      27.772   5.688  49.841  1.00  0.00     0.169 HD
ENDBRANCH   8  10
ENDBRANCH   1   3
BRANCH   1  15
HETATM   15  C9  UNL     1      23.830   1.549  51.459  1.00  0.00     0.705 C 
HETATM   16  N3  UNL     1      25.084   1.511  51.789  1.00  0.00    -0.077 NA
HETATM   17  C10 UNL     1      25.769   0.703  52.722  1.00  0.00     0.137 C 
HETATM   18  C11 UNL     1      25.199  -0.125  53.596  1.00  0.00     0.035 C 
HETATM   19  C12 UNL     1      23.781  -0.438  53.846  1.00  0.00     0.010 A 
HETATM   20  C13 UNL     1      23.541  -1.220  54.941  1.00  0.00     0.130 A 
HETATM   21  C16 UNL     1      22.677  -0.024  53.093  1.00  0.00     0.062 A 
HETATM   22  N4  UNL     1      22.277  -1.562  55.255  1.00  0.00    -0.272 NA
HETATM   23  C14 UNL     1      21.230  -1.153  54.517  1.00  0.00     0.118 A 
HETATM   24  C15 UNL     1      21.381  -0.355  53.386  1.00  0.00     0.050 A 
HETATM   25  N5  UNL     1      22.741   0.793  51.921  1.00  0.00    -0.189 N 
HETATM   26  H16 UNL     1      21.897   0.864  51.307  1.00  0.00     0.184 HD
ENDBRANCH   1  15
TORSDOF 3
ENDMDL
