MODEL 1
REMARK VINA RESULT:     -10.5      0.000      0.000
REMARK  0 active torsions:
REMARK  status: ('A' for Active; 'I' for Inactive)
REMARK       I    between atoms: C2_2  and  N1_4 
ROOT
HETATM    1  C1  UNL     1      28.413   0.626  54.622  1.00  0.00     0.117 C 
HETATM    2  C2  UNL     1      26.948   0.536  54.408  1.00  0.00     0.216 C 
HETATM    3  O1  UNL     1      26.421   0.677  55.547  1.00  0.00    -0.274 OA
HETATM    4  N1  UNL     1      26.221   0.335  53.202  1.00  0.00    -0.338 N 
HETATM    5  C3  UNL     1      26.709   0.155  51.798  1.00  0.00     0.212 C 
HETATM    6  C4  UNL     1      26.613   1.420  51.177  1.00  0.00    -0.116 C 
HETATM    7  C5  UNL     1      26.511   2.480  50.660  1.00  0.00     0.058 A 
HETATM    8  C6  UNL     1      26.366   3.733  50.049  1.00  0.00     0.024 A 
HETATM    9  C7  UNL     1      27.241   4.274  49.288  1.00  0.00     0.023 C 
HETATM   10  C8  UNL     1      26.708   5.551  48.853  1.00  0.00    -0.074 C 
HETATM   11  C9  UNL     1      27.568   6.362  47.991  1.00  0.00     0.044 C 
HETATM   12  C10 UNL     1      25.683   6.363  48.908  1.00  0.00     0.050 C 
HETATM   13  C11 UNL     1      24.406   6.974  49.194  1.00  0.00     0.007 C 
HETATM   14  C12 UNL     1      23.194   6.947  49.776  1.00  0.00     0.132 C 
HETATM   15  O2  UNL     1      23.538   5.701  50.246  1.00  0.00    -0.350 OA
HETATM   16  C13 UNL     1      23.130   5.195  51.467  1.00  0.00     0.205 C 
HETATM   17  C14 UNL     1      21.624   5.125  51.627  1.00  0.00     0.012 C 
HETATM   18  C15 UNL     1      21.101   4.070  52.289  1.00  0.00     0.030 C 
HETATM   19  C16 UNL     1      21.511   2.697  52.104  1.00  0.00     0.058 C 
HETATM   20  C17 UNL     1      22.458   2.928  51.151  1.00  0.00     0.062 C 
HETATM   21  C18 UNL     1      23.659   3.783  51.615  1.00  0.00     0.202 C 
HETATM   22  F1  UNL     1      23.678   3.519  53.046  1.00  0.00    -0.223 F 
HETATM   23  S1  UNL     1      25.113   3.313  50.964  1.00  0.00    -0.094 SA
HETATM   24  N2  UNL     1      21.777   1.326  52.059  1.00  0.00    -0.242 NA
HETATM   25  C19 UNL     1      22.346   0.682  53.036  1.00  0.00     0.232 C 
HETATM   26  N3  UNL     1      22.802  -0.590  53.453  1.00  0.00    -0.257 NA
HETATM   27  C20 UNL     1      24.107  -0.808  53.617  1.00  0.00     0.110 C 
HETATM   28  C21 UNL     1      24.803   0.437  53.297  1.00  0.00     0.173 C 
ENDROOT
TORSDOF 0
ENDMDL
MODEL 2
REMARK VINA RESULT:     -10.0      2.321      7.140
REMARK  0 active torsions:
REMARK  status: ('A' for Active; 'I' for Inactive)
REMARK       I    between atoms: C2_2  and  N1_4 
ROOT
HETATM    1  C1  UNL     1      22.121   6.810  50.825  1.00  0.00     0.117 C 
HETATM    2  C2  UNL     1      23.341   5.967  50.874  1.00  0.00     0.216 C 
HETATM    3  O1  UNL     1      24.171   6.599  51.584  1.00  0.00    -0.274 OA
HETATM    4  N1  UNL     1      23.591   4.702  50.273  1.00  0.00    -0.338 N 
HETATM    5  C3  UNL     1      22.707   3.848  49.416  1.00  0.00     0.212 C 
HETATM    6  C4  UNL     1      22.135   2.882  50.272  1.00  0.00    -0.116 C 
HETATM    7  C5  UNL     1      21.675   2.064  50.995  1.00  0.00     0.058 A 
HETATM    8  C6  UNL     1      21.153   1.087  51.853  1.00  0.00     0.024 A 
HETATM    9  C7  UNL     1      19.931   0.706  51.859  1.00  0.00     0.023 C 
HETATM   10  C8  UNL     1      19.802  -0.321  52.875  1.00  0.00    -0.074 C 
HETATM   11  C9  UNL     1      18.465  -0.880  53.078  1.00  0.00     0.044 C 
HETATM   12  C10 UNL     1      20.436  -1.030  53.774  1.00  0.00     0.050 C 
HETATM   13  C11 UNL     1      21.443  -1.605  54.636  1.00  0.00     0.007 C 
HETATM   14  C12 UNL     1      22.717  -1.700  55.055  1.00  0.00     0.132 C 
HETATM   15  O2  UNL     1      23.013  -0.744  54.110  1.00  0.00    -0.350 OA
HETATM   16  C13 UNL     1      23.988   0.223  54.268  1.00  0.00     0.205 C 
HETATM   17  C14 UNL     1      25.375  -0.341  54.507  1.00  0.00     0.012 C 
HETATM   18  C15 UNL     1      26.428   0.295  53.949  1.00  0.00     0.030 C 
HETATM   19  C16 UNL     1      26.466   0.788  52.592  1.00  0.00     0.058 C 
HETATM   20  C17 UNL     1      25.215   0.387  52.228  1.00  0.00     0.062 C 
HETATM   21  C18 UNL     1      24.060   1.058  53.005  1.00  0.00     0.202 C 
HETATM   22  F1  UNL     1      24.664   2.320  53.404  1.00  0.00    -0.223 F 
HETATM   23  S1  UNL     1      22.718   1.373  52.079  1.00  0.00    -0.094 SA
HETATM   24  N2  UNL     1      26.680   1.327  51.320  1.00  0.00    -0.242 NA
HETATM   25  C19 UNL     1      26.766   2.606  51.098  1.00  0.00     0.232 C 
HETATM   26  N3  UNL     1      26.954   3.580  50.090  1.00  0.00    -0.257 NA
HETATM   27  C20 UNL     1      25.958   4.408  49.771  1.00  0.00     0.110 C 
HETATM   28  C21 UNL     1      24.819   4.070  50.621  1.00  0.00     0.173 C 
ENDROOT
TORSDOF 0
ENDMDL
MODEL 3
REMARK VINA RESULT:      -9.5      3.312      7.004
REMARK  0 active torsions:
REMARK  status: ('A' for Active; 'I' for Inactive)
REMARK       I    between atoms: C2_2  and  N1_4 
ROOT
HETATM    1  C1  UNL     1      22.944   6.030  50.261  1.00  0.00     0.117 C 
HETATM    2  C2  UNL     1      23.594   4.879  50.932  1.00  0.00     0.216 C 
HETATM    3  O1  UNL     1      24.067   5.328  52.012  1.00  0.00    -0.274 OA
HETATM    4  N1  UNL     1      23.700   3.526  50.505  1.00  0.00    -0.338 N 
HETATM    5  C3  UNL     1      23.193   2.862  49.262  1.00  0.00     0.212 C 
HETATM    6  C4  UNL     1      21.974   2.239  49.611  1.00  0.00    -0.116 C 
HETATM    7  C5  UNL     1      20.963   1.706  49.918  1.00  0.00     0.058 A 
HETATM    8  C6  UNL     1      19.779   1.057  50.296  1.00  0.00     0.024 A 
HETATM    9  C7  UNL     1      18.700   1.062  49.608  1.00  0.00     0.023 C 
HETATM   10  C8  UNL     1      17.721   0.273  50.331  1.00  0.00    -0.074 C 
HETATM   11  C9  UNL     1      16.388   0.172  49.735  1.00  0.00     0.044 C 
HETATM   12  C10 UNL     1      17.503  -0.460  51.394  1.00  0.00     0.050 C 
HETATM   13  C11 UNL     1      17.640  -1.181  52.638  1.00  0.00     0.007 C 
HETATM   14  C12 UNL     1      18.377  -1.591  53.685  1.00  0.00     0.132 C 
HETATM   15  O2  UNL     1      19.424  -0.909  53.109  1.00  0.00    -0.350 OA
HETATM   16  C13 UNL     1      20.415  -0.263  53.827  1.00  0.00     0.205 C 
HETATM   17  C14 UNL     1      21.184  -1.175  54.762  1.00  0.00     0.012 C 
HETATM   18  C15 UNL     1      22.510  -0.966  54.910  1.00  0.00     0.030 C 
HETATM   19  C16 UNL     1      23.427  -0.702  53.825  1.00  0.00     0.058 C 
HETATM   20  C17 UNL     1      22.517  -0.759  52.813  1.00  0.00     0.062 C 
HETATM   21  C18 UNL     1      21.418   0.327  52.857  1.00  0.00     0.202 C 
HETATM   22  F1  UNL     1      22.085   1.396  53.585  1.00  0.00    -0.223 F 
HETATM   23  S1  UNL     1      20.970   0.894  51.362  1.00  0.00    -0.094 SA
HETATM   24  N2  UNL     1      24.450  -0.434  52.911  1.00  0.00    -0.242 NA
HETATM   25  C19 UNL     1      25.052   0.717  52.838  1.00  0.00     0.232 C 
HETATM   26  N3  UNL     1      26.055   1.440  52.151  1.00  0.00    -0.257 NA
HETATM   27  C20 UNL     1      25.719   2.473  51.378  1.00  0.00     0.110 C 
HETATM   28  C21 UNL     1      24.265   2.612  51.441  1.00  0.00     0.173 C 
ENDROOT
TORSDOF 0
ENDMDL
MODEL 4
REMARK VINA RESULT:      -9.4      1.591      2.223
REMARK  0 active torsions:
REMARK  status: ('A' for Active; 'I' for Inactive)
REMARK       I    between atoms: C2_2  and  N1_4 
ROOT
HETATM    1  C1  UNL     1      28.101   1.935  53.706  1.00  0.00     0.117 C 
HETATM    2  C2  UNL     1      26.649   2.090  53.450  1.00  0.00     0.216 C 
HETATM    3  O1  UNL     1      26.123   2.336  54.571  1.00  0.00    -0.274 OA
HETATM    4  N1  UNL     1      25.931   1.994  52.225  1.00  0.00    -0.338 N 
HETATM    5  C3  UNL     1      26.421   1.712  50.837  1.00  0.00     0.212 C 
HETATM    6  C4  UNL     1      26.556   2.965  50.200  1.00  0.00    -0.116 C 
HETATM    7  C5  UNL     1      26.649   4.019  49.668  1.00  0.00     0.058 A 
HETATM    8  C6  UNL     1      26.734   5.268  49.039  1.00  0.00     0.024 A 
HETATM    9  C7  UNL     1      27.709   5.641  48.298  1.00  0.00     0.023 C 
HETATM   10  C8  UNL     1      27.411   6.982  47.832  1.00  0.00    -0.074 C 
HETATM   11  C9  UNL     1      28.419   7.623  46.988  1.00  0.00     0.044 C 
HETATM   12  C10 UNL     1      26.537   7.957  47.848  1.00  0.00     0.050 C 
HETATM   13  C11 UNL     1      25.374   8.778  48.090  1.00  0.00     0.007 C 
HETATM   14  C12 UNL     1      24.160   8.966  48.635  1.00  0.00     0.132 C 
HETATM   15  O2  UNL     1      24.275   7.687  49.129  1.00  0.00    -0.350 OA
HETATM   16  C13 UNL     1      23.755   7.277  50.344  1.00  0.00     0.205 C 
HETATM   17  C14 UNL     1      22.255   7.464  50.460  1.00  0.00     0.012 C 
HETATM   18  C15 UNL     1      21.543   6.524  51.118  1.00  0.00     0.030 C 
HETATM   19  C16 UNL     1      21.720   5.099  50.960  1.00  0.00     0.058 C 
HETATM   20  C17 UNL     1      22.718   5.151  50.034  1.00  0.00     0.062 C 
HETATM   21  C18 UNL     1      24.033   5.799  50.523  1.00  0.00     0.202 C 
HETATM   22  F1  UNL     1      23.968   5.559  51.957  1.00  0.00    -0.223 F 
HETATM   23  S1  UNL     1      25.404   5.080  49.921  1.00  0.00    -0.094 SA
HETATM   24  N2  UNL     1      21.752   3.702  50.939  1.00  0.00    -0.242 NA
HETATM   25  C19 UNL     1      22.177   2.987  51.940  1.00  0.00     0.232 C 
HETATM   26  N3  UNL     1      22.400   1.663  52.385  1.00  0.00    -0.257 NA
HETATM   27  C20 UNL     1      23.644   1.231  52.590  1.00  0.00     0.110 C 
HETATM   28  C21 UNL     1      24.549   2.335  52.276  1.00  0.00     0.173 C 
ENDROOT
TORSDOF 0
ENDMDL
MODEL 5
REMARK VINA RESULT:      -9.0      3.679      7.670
REMARK  0 active torsions:
REMARK  status: ('A' for Active; 'I' for Inactive)
REMARK       I    between atoms: C2_2  and  N1_4 
ROOT
HETATM    1  C1  UNL     1      15.852   3.111  52.333  1.00  0.00     0.117 C 
HETATM    2  C2  UNL     1      16.754   3.237  51.163  1.00  0.00     0.216 C 
HETATM    3  O1  UNL     1      16.805   4.469  50.893  1.00  0.00    -0.274 OA
HETATM    4  N1  UNL     1      17.450   2.225  50.445  1.00  0.00    -0.338 N 
HETATM    5  C3  UNL     1      17.482   0.741  50.651  1.00  0.00     0.212 C 
HETATM    6  C4  UNL     1      18.654   0.466  51.389  1.00  0.00    -0.116 C 
HETATM    7  C5  UNL     1      19.648   0.244  51.993  1.00  0.00     0.058 A 
HETATM    8  C6  UNL     1      20.839  -0.013  52.686  1.00  0.00     0.024 A 
HETATM    9  C7  UNL     1      20.941  -0.816  53.677  1.00  0.00     0.023 C 
HETATM   10  C8  UNL     1      22.328  -0.810  54.100  1.00  0.00    -0.074 C 
HETATM   11  C9  UNL     1      22.668  -1.643  55.254  1.00  0.00     0.044 C 
HETATM   12  C10 UNL     1      23.523  -0.329  53.862  1.00  0.00     0.050 C 
HETATM   13  C11 UNL     1      24.650   0.384  53.309  1.00  0.00     0.007 C 
HETATM   14  C12 UNL     1      25.183   1.215  52.395  1.00  0.00     0.132 C 
HETATM   15  O2  UNL     1      23.922   1.293  51.851  1.00  0.00    -0.350 OA
HETATM   16  C13 UNL     1      23.408   2.427  51.250  1.00  0.00     0.205 C 
HETATM   17  C14 UNL     1      24.227   2.920  50.074  1.00  0.00     0.012 C 
HETATM   18  C15 UNL     1      23.572   3.429  49.008  1.00  0.00     0.030 C 
HETATM   19  C16 UNL     1      22.394   2.843  48.410  1.00  0.00     0.058 C 
HETATM   20  C17 UNL     1      22.292   1.772  49.246  1.00  0.00     0.062 C 
HETATM   21  C18 UNL     1      22.019   2.119  50.727  1.00  0.00     0.202 C 
HETATM   22  F1  UNL     1      21.350   3.406  50.612  1.00  0.00    -0.223 F 
HETATM   23  S1  UNL     1      21.005   1.052  51.494  1.00  0.00    -0.094 SA
HETATM   24  N2  UNL     1      21.260   2.425  47.710  1.00  0.00    -0.242 NA
HETATM   25  C19 UNL     1      20.128   3.066  47.746  1.00  0.00     0.232 C 
HETATM   26  N3  UNL     1      18.797   3.062  47.268  1.00  0.00    -0.257 NA
HETATM   27  C20 UNL     1      17.787   2.858  48.114  1.00  0.00     0.110 C 
HETATM   28  C21 UNL     1      18.361   2.673  49.445  1.00  0.00     0.173 C 
ENDROOT
TORSDOF 0
ENDMDL
MODEL 6
REMARK VINA RESULT:      -8.9      3.089      6.250
REMARK  0 active torsions:
REMARK  status: ('A' for Active; 'I' for Inactive)
REMARK       I    between atoms: C2_2  and  N1_4 
ROOT
HETATM    1  C1  UNL     1      19.202   4.758  45.838  1.00  0.00     0.117 C 
HETATM    2  C2  UNL     1      18.980   4.311  47.234  1.00  0.00     0.216 C 
HETATM    3  O1  UNL     1      18.275   3.268  47.158  1.00  0.00    -0.274 OA
HETATM    4  N1  UNL     1      19.437   4.890  48.452  1.00  0.00    -0.338 N 
HETATM    5  C3  UNL     1      20.271   6.111  48.688  1.00  0.00     0.212 C 
HETATM    6  C4  UNL     1      21.597   5.660  48.868  1.00  0.00    -0.116 C 
HETATM    7  C5  UNL     1      22.703   5.271  49.036  1.00  0.00     0.058 A 
HETATM    8  C6  UNL     1      24.004   4.799  49.257  1.00  0.00     0.024 A 
HETATM    9  C7  UNL     1      25.058   5.322  48.755  1.00  0.00     0.023 C 
HETATM   10  C8  UNL     1      26.193   4.555  49.232  1.00  0.00    -0.074 C 
HETATM   11  C9  UNL     1      27.513   4.963  48.749  1.00  0.00     0.044 C 
HETATM   12  C10 UNL     1      26.574   3.555  49.987  1.00  0.00     0.050 C 
HETATM   13  C11 UNL     1      26.609   2.427  50.888  1.00  0.00     0.007 C 
HETATM   14  C12 UNL     1      25.990   1.545  51.692  1.00  0.00     0.132 C 
HETATM   15  O2  UNL     1      24.820   2.189  51.360  1.00  0.00    -0.350 OA
HETATM   16  C13 UNL     1      23.597   1.555  51.237  1.00  0.00     0.205 C 
HETATM   17  C14 UNL     1      23.150   0.840  52.498  1.00  0.00     0.012 C 
HETATM   18  C15 UNL     1      21.836   0.861  52.811  1.00  0.00     0.030 C 
HETATM   19  C16 UNL     1      20.992   2.031  52.739  1.00  0.00     0.058 C 
HETATM   20  C17 UNL     1      21.945   2.904  52.306  1.00  0.00     0.062 C 
HETATM   21  C18 UNL     1      22.538   2.590  50.914  1.00  0.00     0.202 C 
HETATM   22  F1  UNL     1      21.450   1.855  50.286  1.00  0.00    -0.223 F 
HETATM   23  S1  UNL     1      22.872   3.937  50.003  1.00  0.00    -0.094 SA
HETATM   24  N2  UNL     1      20.033   3.047  52.728  1.00  0.00    -0.242 NA
HETATM   25  C19 UNL     1      19.048   3.083  51.879  1.00  0.00     0.232 C 
HETATM   26  N3  UNL     1      17.913   3.825  51.476  1.00  0.00    -0.257 NA
HETATM   27  C20 UNL     1      17.900   4.429  50.288  1.00  0.00     0.110 C 
HETATM   28  C21 UNL     1      19.179   4.146  49.639  1.00  0.00     0.173 C 
ENDROOT
TORSDOF 0
ENDMDL
MODEL 7
REMARK VINA RESULT:      -8.7      2.991      6.556
REMARK  0 active torsions:
REMARK  status: ('A' for Active; 'I' for Inactive)
REMARK       I    between atoms: C2_2  and  N1_4 
ROOT
HETATM    1  C1  UNL     1      24.572   6.233  48.078  1.00  0.00     0.117 C 
HETATM    2  C2  UNL     1      23.194   5.906  48.518  1.00  0.00     0.216 C 
HETATM    3  O1  UNL     1      22.553   5.619  47.470  1.00  0.00    -0.274 OA
HETATM    4  N1  UNL     1      22.641   5.896  49.830  1.00  0.00    -0.338 N 
HETATM    5  C3  UNL     1      23.278   6.210  51.149  1.00  0.00     0.212 C 
HETATM    6  C4  UNL     1      23.640   4.972  51.722  1.00  0.00    -0.116 C 
HETATM    7  C5  UNL     1      23.923   3.927  52.203  1.00  0.00     0.058 A 
HETATM    8  C6  UNL     1      24.233   2.686  52.775  1.00  0.00     0.024 A 
HETATM    9  C7  UNL     1      25.334   2.417  53.368  1.00  0.00     0.023 C 
HETATM   10  C8  UNL     1      25.256   1.042  53.825  1.00  0.00    -0.074 C 
HETATM   11  C9  UNL     1      26.435   0.509  54.509  1.00  0.00     0.044 C 
HETATM   12  C10 UNL     1      24.504  -0.027  53.894  1.00  0.00     0.050 C 
HETATM   13  C11 UNL     1      23.420  -0.975  53.781  1.00  0.00     0.007 C 
HETATM   14  C12 UNL     1      22.172  -1.293  53.395  1.00  0.00     0.132 C 
HETATM   15  O2  UNL     1      22.074  -0.002  52.931  1.00  0.00    -0.350 OA
HETATM   16  C13 UNL     1      21.352   0.365  51.810  1.00  0.00     0.205 C 
HETATM   17  C14 UNL     1      19.881   0.006  51.887  1.00  0.00     0.012 C 
HETATM   18  C15 UNL     1      18.985   0.868  51.359  1.00  0.00     0.030 C 
HETATM   19  C16 UNL     1      19.019   2.301  51.538  1.00  0.00     0.058 C 
HETATM   20  C17 UNL     1      20.132   2.350  52.323  1.00  0.00     0.062 C 
HETATM   21  C18 UNL     1      21.434   1.869  51.644  1.00  0.00     0.202 C 
HETATM   22  F1  UNL     1      21.149   2.123  50.240  1.00  0.00    -0.223 F 
HETATM   23  S1  UNL     1      22.783   2.732  52.083  1.00  0.00    -0.094 SA
HETATM   24  N2  UNL     1      18.895   3.692  51.600  1.00  0.00    -0.242 NA
HETATM   25  C19 UNL     1      19.097   4.467  50.576  1.00  0.00     0.232 C 
HETATM   26  N3  UNL     1      19.107   5.816  50.148  1.00  0.00    -0.257 NA
HETATM   27  C20 UNL     1      20.255   6.394  49.794  1.00  0.00     0.110 C 
HETATM   28  C21 UNL     1      21.313   5.397  49.950  1.00  0.00     0.173 C 
ENDROOT
TORSDOF 0
ENDMDL
MODEL 8
REMARK VINA RESULT:      -8.4      3.817      6.854
REMARK  0 active torsions:
REMARK  status: ('A' for Active; 'I' for Inactive)
REMARK       I    between atoms: C2_2  and  N1_4 
ROOT
HETATM    1  C1  UNL     1      16.225   1.776  48.467  1.00  0.00     0.117 C 
HETATM    2  C2  UNL     1      16.693   0.948  49.605  1.00  0.00     0.216 C 
HETATM    3  O1  UNL     1      16.748  -0.237  49.174  1.00  0.00    -0.274 OA
HETATM    4  N1  UNL     1      17.027   1.340  50.931  1.00  0.00    -0.338 N 
HETATM    5  C3  UNL     1      17.008   2.694  51.573  1.00  0.00     0.212 C 
HETATM    6  C4  UNL     1      18.334   3.179  51.521  1.00  0.00    -0.116 C 
HETATM    7  C5  UNL     1      19.451   3.568  51.488  1.00  0.00     0.058 A 
HETATM    8  C6  UNL     1      20.781   4.012  51.468  1.00  0.00     0.024 A 
HETATM    9  C7  UNL     1      21.143   5.199  51.155  1.00  0.00     0.023 C 
HETATM   10  C8  UNL     1      22.588   5.255  51.268  1.00  0.00    -0.074 C 
HETATM   11  C9  UNL     1      23.225   6.526  50.921  1.00  0.00     0.044 C 
HETATM   12  C10 UNL     1      23.669   4.586  51.582  1.00  0.00     0.050 C 
HETATM   13  C11 UNL     1      24.601   3.563  51.997  1.00  0.00     0.007 C 
HETATM   14  C12 UNL     1      24.862   2.321  52.438  1.00  0.00     0.132 C 
HETATM   15  O2  UNL     1      23.502   2.114  52.415  1.00  0.00    -0.350 OA
HETATM   16  C13 UNL     1      22.909   0.902  52.113  1.00  0.00     0.205 C 
HETATM   17  C14 UNL     1      23.326  -0.228  53.033  1.00  0.00     0.012 C 
HETATM   18  C15 UNL     1      22.395  -1.143  53.383  1.00  0.00     0.030 C 
HETATM   19  C16 UNL     1      21.043  -0.829  53.784  1.00  0.00     0.058 C 
HETATM   20  C17 UNL     1      21.141   0.526  53.670  1.00  0.00     0.062 C 
HETATM   21  C18 UNL     1      21.406   1.047  52.239  1.00  0.00     0.202 C 
HETATM   22  F1  UNL     1      20.840  -0.019  51.426  1.00  0.00    -0.223 F 
HETATM   23  S1  UNL     1      20.624   2.467  51.883  1.00  0.00    -0.094 SA
HETATM   24  N2  UNL     1      19.711  -0.714  54.189  1.00  0.00    -0.242 NA
HETATM   25  C19 UNL     1      18.711  -1.103  53.453  1.00  0.00     0.232 C 
HETATM   26  N3  UNL     1      17.300  -1.197  53.400  1.00  0.00    -0.257 NA
HETATM   27  C20 UNL     1      16.617  -0.461  52.522  1.00  0.00     0.110 C 
HETATM   28  C21 UNL     1      17.585   0.329  51.766  1.00  0.00     0.173 C 
ENDROOT
TORSDOF 0
ENDMDL
MODEL 9
REMARK VINA RESULT:      -8.3      3.320      6.621
REMARK  0 active torsions:
REMARK  status: ('A' for Active; 'I' for Inactive)
REMARK       I    between atoms: C2_2  and  N1_4 
ROOT
HETATM    1  C1  UNL     1      22.142   4.634  45.722  1.00  0.00     0.117 C 
HETATM    2  C2  UNL     1      21.111   4.426  46.767  1.00  0.00     0.216 C 
HETATM    3  O1  UNL     1      20.178   3.783  46.212  1.00  0.00    -0.274 OA
HETATM    4  N1  UNL     1      21.108   4.837  48.129  1.00  0.00    -0.338 N 
HETATM    5  C3  UNL     1      22.135   5.597  48.912  1.00  0.00     0.212 C 
HETATM    6  C4  UNL     1      22.890   4.635  49.618  1.00  0.00    -0.116 C 
HETATM    7  C5  UNL     1      23.506   3.821  50.220  1.00  0.00     0.058 A 
HETATM    8  C6  UNL     1      24.214   2.855  50.947  1.00  0.00     0.024 A 
HETATM    9  C7  UNL     1      25.486   2.838  51.082  1.00  0.00     0.023 C 
HETATM   10  C8  UNL     1      25.820   1.694  51.909  1.00  0.00    -0.074 C 
HETATM   11  C9  UNL     1      27.242   1.462  52.166  1.00  0.00     0.044 C 
HETATM   12  C10 UNL     1      25.342   0.684  52.590  1.00  0.00     0.050 C 
HETATM   13  C11 UNL     1      24.472  -0.283  53.219  1.00  0.00     0.007 C 
HETATM   14  C12 UNL     1      23.244  -0.755  53.494  1.00  0.00     0.132 C 
HETATM   15  O2  UNL     1      22.762   0.302  52.759  1.00  0.00    -0.350 OA
HETATM   16  C13 UNL     1      21.617   0.247  51.984  1.00  0.00     0.205 C 
HETATM   17  C14 UNL     1      20.369  -0.116  52.764  1.00  0.00     0.012 C 
HETATM   18  C15 UNL     1      19.208   0.488  52.427  1.00  0.00     0.030 C 
HETATM   19  C16 UNL     1      19.066   1.899  52.150  1.00  0.00     0.058 C 
HETATM   20  C17 UNL     1      20.368   2.246  52.352  1.00  0.00     0.062 C 
HETATM   21  C18 UNL     1      21.376   1.610  51.368  1.00  0.00     0.202 C 
HETATM   22  F1  UNL     1      20.541   1.370  50.200  1.00  0.00    -0.223 F 
HETATM   23  S1  UNL     1      22.624   2.616  50.936  1.00  0.00    -0.094 SA
HETATM   24  N2  UNL     1      18.742   3.225  51.849  1.00  0.00    -0.242 NA
HETATM   25  C19 UNL     1      18.407   3.619  50.656  1.00  0.00     0.232 C 
HETATM   26  N3  UNL     1      18.026   4.746  49.890  1.00  0.00    -0.257 NA
HETATM   27  C20 UNL     1      18.839   5.211  48.941  1.00  0.00     0.110 C 
HETATM   28  C21 UNL     1      20.029   4.362  48.929  1.00  0.00     0.173 C 
ENDROOT
TORSDOF 0
ENDMDL
