MODEL 1
REMARK VINA RESULT:      -8.4      0.000      0.000
REMARK  8 active torsions:
REMARK  status: ('A' for Active; 'I' for Inactive)
REMARK    1  A    between atoms: O1_2  and  C2_3 
REMARK    2  A    between atoms: C6_9  and  N3_10 
REMARK    3  A    between atoms: N3_10  and  C7_11 
REMARK    4  A    between atoms: C15_21  and  O2_22 
REMARK    5  A    between atoms: O2_22  and  C16_23 
REMARK    6  A    between atoms: C16_23  and  C17_24 
REMARK    7  A    between atoms: C17_24  and  C18_25 
REMARK    8  A    between atoms: C18_25  and  N4_26 
ROOT
HETATM    1  C2  UNL     1      19.993  -0.366  52.765  1.00  0.00     0.103 A 
HETATM    2  C3  UNL     1      20.387  -0.997  53.925  1.00  0.00     0.072 A 
HETATM    3  C4  UNL     1      21.740  -0.988  54.272  1.00  0.00     0.075 A 
HETATM    4  N1  UNL     1      22.241  -1.565  55.367  1.00  0.00    -0.241 NA
HETATM    5  C5  UNL     1      23.576  -1.486  55.592  1.00  0.00     0.236 A 
HETATM    6  N2  UNL     1      24.448  -0.857  54.775  1.00  0.00    -0.224 NA
HETATM    7  C6  UNL     1      23.967  -0.267  53.661  1.00  0.00     0.142 A 
HETATM    8  C13 UNL     1      22.615  -0.343  53.427  1.00  0.00     0.042 A 
HETATM    9  C14 UNL     1      22.191   0.280  52.273  1.00  0.00     0.057 A 
HETATM   10  C15 UNL     1      20.859   0.291  51.897  1.00  0.00     0.103 A 
ENDROOT
BRANCH   7  11
HETATM   11  N3  UNL     1      24.943   0.369  52.861  1.00  0.00    -0.340 N 
HETATM   12  H6  UNL     1      24.687   1.029  52.122  1.00  0.00     0.167 HD
BRANCH  11  13
HETATM   13  C7  UNL     1      26.317   0.082  53.092  1.00  0.00     0.035 A 
HETATM   14  C8  UNL     1      26.890  -1.135  52.792  1.00  0.00     0.032 A 
HETATM   15  C9  UNL     1      28.213  -1.463  52.994  1.00  0.00     0.046 A 
HETATM   16  C10 UNL     1      29.040  -0.505  53.541  1.00  0.00     0.138 A 
HETATM   17  F1  UNL     1      30.351  -0.785  53.758  1.00  0.00    -0.204 F 
HETATM   18  C11 UNL     1      28.503   0.745  53.863  1.00  0.00     0.074 A 
HETATM   19 CL1  UNL     1      29.508   1.991  54.557  1.00  0.00    -0.081 Cl
HETATM   20  C12 UNL     1      27.165   1.032  53.641  1.00  0.00     0.056 A 
ENDBRANCH  11  13
ENDBRANCH   7  11
BRANCH  10  21
HETATM   21  O2  UNL     1      20.227   0.828  50.829  1.00  0.00    -0.348 OA
BRANCH  21  22
HETATM   22  C16 UNL     1      20.554   1.898  50.021  1.00  0.00     0.177 C 
BRANCH  22  23
HETATM   23  C17 UNL     1      20.591   3.244  50.661  1.00  0.00     0.057 C 
BRANCH  23  24
HETATM   24  C18 UNL     1      21.345   4.260  49.807  1.00  0.00     0.274 C 
BRANCH  24  25
HETATM   25  N4  UNL     1      22.577   4.680  50.470  1.00  0.00     0.092 N 
HETATM   26  C19 UNL     1      22.465   4.454  51.867  1.00  0.00     0.298 C 
HETATM   27  C20 UNL     1      23.528   3.649  52.517  1.00  0.00     0.198 C 
HETATM   28  O3  UNL     1      24.644   3.374  51.772  1.00  0.00    -0.388 OA
HETATM   29  C21 UNL     1      24.275   2.885  50.514  1.00  0.00     0.198 C 
HETATM   30  C22 UNL     1      23.652   4.043  49.789  1.00  0.00     0.298 C 
ENDBRANCH  24  25
ENDBRANCH  23  24
ENDBRANCH  22  23
ENDBRANCH  21  22
ENDBRANCH  10  21
BRANCH   1  31
HETATM   31  O1  UNL     1      18.626  -0.460  52.558  1.00  0.00    -0.353 OA
HETATM   32  C1  UNL     1      17.779  -1.288  53.290  1.00  0.00     0.210 C 
ENDBRANCH   1  31
TORSDOF 8
ENDMDL
MODEL 2
REMARK VINA RESULT:      -7.7      2.282      5.245
REMARK  8 active torsions:
REMARK  status: ('A' for Active; 'I' for Inactive)
REMARK    1  A    between atoms: O1_2  and  C2_3 
REMARK    2  A    between atoms: C6_9  and  N3_10 
REMARK    3  A    between atoms: N3_10  and  C7_11 
REMARK    4  A    between atoms: C15_21  and  O2_22 
REMARK    5  A    between atoms: O2_22  and  C16_23 
REMARK    6  A    between atoms: C16_23  and  C17_24 
REMARK    7  A    between atoms: C17_24  and  C18_25 
REMARK    8  A    between atoms: C18_25  and  N4_26 
ROOT
HETATM    1  C2  UNL     1      22.257   4.727  50.051  1.00  0.00     0.103 A 
HETATM    2  C3  UNL     1      23.370   4.791  49.241  1.00  0.00     0.072 A 
HETATM    3  C4  UNL     1      24.571   4.243  49.700  1.00  0.00     0.075 A 
HETATM    4  N1  UNL     1      25.712   4.246  49.008  1.00  0.00    -0.241 NA
HETATM    5  C5  UNL     1      26.812   3.680  49.566  1.00  0.00     0.236 A 
HETATM    6  N2  UNL     1      26.835   3.107  50.787  1.00  0.00    -0.224 NA
HETATM    7  C6  UNL     1      25.693   3.093  51.507  1.00  0.00     0.142 A 
HETATM    8  C13 UNL     1      24.575   3.664  50.949  1.00  0.00     0.042 A 
HETATM    9  C14 UNL     1      23.445   3.614  51.736  1.00  0.00     0.057 A 
HETATM   10  C15 UNL     1      22.239   4.147  51.315  1.00  0.00     0.103 A 
ENDROOT
BRANCH   7  11
HETATM   11  N3  UNL     1      25.802   2.475  52.773  1.00  0.00    -0.340 N 
HETATM   12  H6  UNL     1      25.162   2.702  53.540  1.00  0.00     0.167 HD
BRANCH  11  13
HETATM   13  C7  UNL     1      26.827   1.513  52.985  1.00  0.00     0.035 A 
HETATM   14  C8  UNL     1      28.074   1.841  53.472  1.00  0.00     0.032 A 
HETATM   15  C9  UNL     1      29.101   0.949  53.696  1.00  0.00     0.046 A 
HETATM   16  C10 UNL     1      28.874  -0.381  53.415  1.00  0.00     0.138 A 
HETATM   17  F1  UNL     1      29.857  -1.295  53.621  1.00  0.00    -0.204 F 
HETATM   18  C11 UNL     1      27.623  -0.762  52.919  1.00  0.00     0.074 A 
HETATM   19 CL1  UNL     1      27.286  -2.433  52.549  1.00  0.00    -0.081 Cl
HETATM   20  C12 UNL     1      26.618   0.170  52.710  1.00  0.00     0.056 A 
ENDBRANCH  11  13
ENDBRANCH   7  11
BRANCH  10  21
HETATM   21  O2  UNL     1      21.025   4.213  51.907  1.00  0.00    -0.348 OA
BRANCH  21  22
HETATM   22  C16 UNL     1      19.947   3.352  51.870  1.00  0.00     0.177 C 
BRANCH  22  23
HETATM   23  C17 UNL     1      20.215   1.948  51.444  1.00  0.00     0.057 C 
BRANCH  23  24
HETATM   24  C18 UNL     1      19.767   0.939  52.496  1.00  0.00     0.274 C 
BRANCH  24  25
HETATM   25  N4  UNL     1      20.689  -0.192  52.555  1.00  0.00     0.092 N 
HETATM   26  C19 UNL     1      22.003   0.252  52.252  1.00  0.00     0.298 C 
HETATM   27  C20 UNL     1      23.075  -0.064  53.229  1.00  0.00     0.198 C 
HETATM   28  O3  UNL     1      22.763  -0.942  54.232  1.00  0.00    -0.388 OA
HETATM   29  C21 UNL     1      21.556  -0.574  54.837  1.00  0.00     0.198 C 
HETATM   30  C22 UNL     1      20.488  -0.826  53.813  1.00  0.00     0.298 C 
ENDBRANCH  24  25
ENDBRANCH  23  24
ENDBRANCH  22  23
ENDBRANCH  21  22
ENDBRANCH  10  21
BRANCH   1  31
HETATM   31  O1  UNL     1      21.147   5.311  49.460  1.00  0.00    -0.353 OA
HETATM   32  C1  UNL     1      20.966   6.685  49.322  1.00  0.00     0.210 C 
ENDBRANCH   1  31
TORSDOF 8
ENDMDL
MODEL 3
REMARK VINA RESULT:      -7.7      3.463      5.701
REMARK  8 active torsions:
REMARK  status: ('A' for Active; 'I' for Inactive)
REMARK    1  A    between atoms: O1_2  and  C2_3 
REMARK    2  A    between atoms: C6_9  and  N3_10 
REMARK    3  A    between atoms: N3_10  and  C7_11 
REMARK    4  A    between atoms: C15_21  and  O2_22 
REMARK    5  A    between atoms: O2_22  and  C16_23 
REMARK    6  A    between atoms: C16_23  and  C17_24 
REMARK    7  A    between atoms: C17_24  and  C18_25 
REMARK    8  A    between atoms: C18_25  and  N4_26 
ROOT
HETATM    1  C2  UNL     1      25.215  -0.571  54.682  1.00  0.00     0.103 A 
HETATM    2  C3  UNL     1      26.366   0.076  55.074  1.00  0.00     0.072 A 
HETATM    3  C4  UNL     1      26.999   0.934  54.172  1.00  0.00     0.075 A 
HETATM    4  N1  UNL     1      28.118   1.613  54.436  1.00  0.00    -0.241 NA
HETATM    5  C5  UNL     1      28.634   2.416  53.473  1.00  0.00     0.236 A 
HETATM    6  N2  UNL     1      28.091   2.579  52.248  1.00  0.00    -0.224 NA
HETATM    7  C6  UNL     1      26.961   1.902  51.956  1.00  0.00     0.142 A 
HETATM    8  C13 UNL     1      26.431   1.088  52.927  1.00  0.00     0.042 A 
HETATM    9  C14 UNL     1      25.277   0.428  52.563  1.00  0.00     0.057 A 
HETATM   10  C15 UNL     1      24.624  -0.430  53.431  1.00  0.00     0.103 A 
ENDROOT
BRANCH   7  11
HETATM   11  N3  UNL     1      26.457   2.129  50.655  1.00  0.00    -0.340 N 
HETATM   12  H6  UNL     1      26.292   1.359  50.000  1.00  0.00     0.167 HD
BRANCH  11  13
HETATM   13  C7  UNL     1      26.172   3.462  50.248  1.00  0.00     0.035 A 
HETATM   14  C8  UNL     1      26.894   4.119  49.275  1.00  0.00     0.032 A 
HETATM   15  C9  UNL     1      26.660   5.406  48.844  1.00  0.00     0.046 A 
HETATM   16  C10 UNL     1      25.623   6.104  49.425  1.00  0.00     0.138 A 
HETATM   17  F1  UNL     1      25.356   7.376  49.031  1.00  0.00    -0.204 F 
HETATM   18  C11 UNL     1      24.862   5.478  50.418  1.00  0.00     0.074 A 
HETATM   19 CL1  UNL     1      23.539   6.318  51.184  1.00  0.00    -0.081 Cl
HETATM   20  C12 UNL     1      25.133   4.179  50.820  1.00  0.00     0.056 A 
ENDBRANCH  11  13
ENDBRANCH   7  11
BRANCH  10  21
HETATM   21  O2  UNL     1      23.501  -1.172  53.292  1.00  0.00    -0.348 OA
BRANCH  21  22
HETATM   22  C16 UNL     1      22.188  -0.906  53.626  1.00  0.00     0.177 C 
BRANCH  22  23
HETATM   23  C17 UNL     1      21.605   0.370  53.119  1.00  0.00     0.057 C 
BRANCH  23  24
HETATM   24  C18 UNL     1      21.602   0.428  51.595  1.00  0.00     0.274 C 
BRANCH  24  25
HETATM   25  N4  UNL     1      22.113   1.713  51.124  1.00  0.00     0.092 N 
HETATM   26  C19 UNL     1      21.569   1.999  49.845  1.00  0.00     0.298 C 
HETATM   27  C20 UNL     1      20.877   3.301  49.670  1.00  0.00     0.198 C 
HETATM   28  O3  UNL     1      21.008   4.214  50.682  1.00  0.00    -0.388 OA
HETATM   29  C21 UNL     1      20.740   3.610  51.915  1.00  0.00     0.198 C 
HETATM   30  C22 UNL     1      21.875   2.657  52.162  1.00  0.00     0.298 C 
ENDBRANCH  24  25
ENDBRANCH  23  24
ENDBRANCH  22  23
ENDBRANCH  21  22
ENDBRANCH  10  21
BRANCH   1  31
HETATM   31  O1  UNL     1      24.706  -1.384  55.683  1.00  0.00    -0.353 OA
HETATM   32  C1  UNL     1      24.922  -1.180  57.043  1.00  0.00     0.210 C 
ENDBRANCH   1  31
TORSDOF 8
ENDMDL
MODEL 4
REMARK VINA RESULT:      -7.7      5.336      8.278
REMARK  8 active torsions:
REMARK  status: ('A' for Active; 'I' for Inactive)
REMARK    1  A    between atoms: O1_2  and  C2_3 
REMARK    2  A    between atoms: C6_9  and  N3_10 
REMARK    3  A    between atoms: N3_10  and  C7_11 
REMARK    4  A    between atoms: C15_21  and  O2_22 
REMARK    5  A    between atoms: O2_22  and  C16_23 
REMARK    6  A    between atoms: C16_23  and  C17_24 
REMARK    7  A    between atoms: C17_24  and  C18_25 
REMARK    8  A    between atoms: C18_25  and  N4_26 
ROOT
HETATM    1  C2  UNL     1      26.179   7.109  49.159  1.00  0.00     0.103 A 
HETATM    2  C3  UNL     1      25.105   7.148  50.020  1.00  0.00     0.072 A 
HETATM    3  C4  UNL     1      24.673   5.960  50.614  1.00  0.00     0.075 A 
HETATM    4  N1  UNL     1      23.645   5.872  51.462  1.00  0.00    -0.241 NA
HETATM    5  C5  UNL     1      23.325   4.656  51.971  1.00  0.00     0.236 A 
HETATM    6  N2  UNL     1      23.979   3.513  51.678  1.00  0.00    -0.224 NA
HETATM    7  C6  UNL     1      25.020   3.576  50.822  1.00  0.00     0.142 A 
HETATM    8  C13 UNL     1      25.352   4.803  50.302  1.00  0.00     0.042 A 
HETATM    9  C14 UNL     1      26.424   4.795  49.437  1.00  0.00     0.057 A 
HETATM   10  C15 UNL     1      26.880   5.953  48.830  1.00  0.00     0.103 A 
ENDROOT
BRANCH   7  11
HETATM   11  N3  UNL     1      25.651   2.336  50.568  1.00  0.00    -0.340 N 
HETATM   12  H6  UNL     1      25.647   1.911  49.637  1.00  0.00     0.167 HD
BRANCH  11  13
HETATM   13  C7  UNL     1      26.307   1.665  51.637  1.00  0.00     0.035 A 
HETATM   14  C8  UNL     1      25.943   0.407  52.068  1.00  0.00     0.032 A 
HETATM   15  C9  UNL     1      26.544  -0.287  53.095  1.00  0.00     0.046 A 
HETATM   16  C10 UNL     1      27.596   0.315  53.752  1.00  0.00     0.138 A 
HETATM   17  F1  UNL     1      28.219  -0.332  54.771  1.00  0.00    -0.204 F 
HETATM   18  C11 UNL     1      28.001   1.591  53.350  1.00  0.00     0.074 A 
HETATM   19 CL1  UNL     1      29.327   2.395  54.150  1.00  0.00    -0.081 Cl
HETATM   20  C12 UNL     1      27.367   2.253  52.310  1.00  0.00     0.056 A 
ENDBRANCH  11  13
ENDBRANCH   7  11
BRANCH  10  21
HETATM   21  O2  UNL     1      27.893   6.180  47.963  1.00  0.00    -0.348 OA
BRANCH  21  22
HETATM   22  C16 UNL     1      29.237   6.411  48.174  1.00  0.00     0.177 C 
BRANCH  22  23
HETATM   23  C17 UNL     1      30.172   5.288  47.879  1.00  0.00     0.057 C 
BRANCH  23  24
HETATM   24  C18 UNL     1      31.566   5.545  48.443  1.00  0.00     0.274 C 
BRANCH  24  25
HETATM   25  N4  UNL     1      32.594   5.128  47.493  1.00  0.00     0.092 N 
HETATM   26  C19 UNL     1      33.878   5.355  48.054  1.00  0.00     0.298 C 
HETATM   27  C20 UNL     1      34.818   4.207  48.099  1.00  0.00     0.198 C 
HETATM   28  O3  UNL     1      34.462   3.084  47.401  1.00  0.00    -0.388 OA
HETATM   29  C21 UNL     1      33.143   2.728  47.703  1.00  0.00     0.198 C 
HETATM   30  C22 UNL     1      32.279   3.798  47.099  1.00  0.00     0.298 C 
ENDBRANCH  24  25
ENDBRANCH  23  24
ENDBRANCH  22  23
ENDBRANCH  21  22
ENDBRANCH  10  21
BRANCH   1  31
HETATM   31  O1  UNL     1      26.488   8.362  48.652  1.00  0.00    -0.353 OA
HETATM   32  C1  UNL     1      27.097   9.375  49.388  1.00  0.00     0.210 C 
ENDBRANCH   1  31
TORSDOF 8
ENDMDL
MODEL 5
REMARK VINA RESULT:      -7.6      2.485      3.615
REMARK  8 active torsions:
REMARK  status: ('A' for Active; 'I' for Inactive)
REMARK    1  A    between atoms: O1_2  and  C2_3 
REMARK    2  A    between atoms: C6_9  and  N3_10 
REMARK    3  A    between atoms: N3_10  and  C7_11 
REMARK    4  A    between atoms: C15_21  and  O2_22 
REMARK    5  A    between atoms: O2_22  and  C16_23 
REMARK    6  A    between atoms: C16_23  and  C17_24 
REMARK    7  A    between atoms: C17_24  and  C18_25 
REMARK    8  A    between atoms: C18_25  and  N4_26 
ROOT
HETATM    1  C2  UNL     1      19.748  -0.125  52.185  1.00  0.00     0.103 A 
HETATM    2  C3  UNL     1      20.019  -0.738  53.388  1.00  0.00     0.072 A 
HETATM    3  C4  UNL     1      21.338  -0.771  53.848  1.00  0.00     0.075 A 
HETATM    4  N1  UNL     1      21.722  -1.336  54.994  1.00  0.00    -0.241 NA
HETATM    5  C5  UNL     1      23.036  -1.300  55.329  1.00  0.00     0.236 A 
HETATM    6  N2  UNL     1      23.996  -0.726  54.575  1.00  0.00    -0.224 NA
HETATM    7  C6  UNL     1      23.633  -0.149  53.410  1.00  0.00     0.142 A 
HETATM    8  C13 UNL     1      22.304  -0.181  53.065  1.00  0.00     0.042 A 
HETATM    9  C14 UNL     1      22.003   0.427  51.865  1.00  0.00     0.057 A 
HETATM   10  C15 UNL     1      20.709   0.477  51.378  1.00  0.00     0.103 A 
ENDROOT
BRANCH   7  11
HETATM   11  N3  UNL     1      24.698   0.429  52.681  1.00  0.00    -0.340 N 
HETATM   12  H6  UNL     1      24.537   1.162  51.985  1.00  0.00     0.167 HD
BRANCH  11  13
HETATM   13  C7  UNL     1      26.025  -0.022  52.924  1.00  0.00     0.035 A 
HETATM   14  C8  UNL     1      26.456  -1.290  52.600  1.00  0.00     0.032 A 
HETATM   15  C9  UNL     1      27.728  -1.776  52.812  1.00  0.00     0.046 A 
HETATM   16  C10 UNL     1      28.652  -0.935  53.394  1.00  0.00     0.138 A 
HETATM   17  F1  UNL     1      29.918  -1.371  53.622  1.00  0.00    -0.204 F 
HETATM   18  C11 UNL     1      28.260   0.362  53.740  1.00  0.00     0.074 A 
HETATM   19 CL1  UNL     1      29.392   1.465  54.479  1.00  0.00    -0.081 Cl
HETATM   20  C12 UNL     1      26.968   0.809  53.507  1.00  0.00     0.056 A 
ENDBRANCH  11  13
ENDBRANCH   7  11
BRANCH  10  21
HETATM   21  O2  UNL     1      20.189   1.009  50.248  1.00  0.00    -0.348 OA
BRANCH  21  22
HETATM   22  C16 UNL     1      20.228   2.293  49.744  1.00  0.00     0.177 C 
BRANCH  22  23
HETATM   23  C17 UNL     1      19.085   3.189  50.083  1.00  0.00     0.057 C 
BRANCH  23  24
HETATM   24  C18 UNL     1      17.802   2.768  49.374  1.00  0.00     0.274 C 
BRANCH  24  25
HETATM   25  N4  UNL     1      16.726   2.549  50.336  1.00  0.00     0.092 N 
HETATM   26  C19 UNL     1      17.051   3.183  51.564  1.00  0.00     0.298 C 
HETATM   27  C20 UNL     1      16.060   4.133  52.128  1.00  0.00     0.198 C 
HETATM   28  O3  UNL     1      14.822   4.159  51.543  1.00  0.00    -0.388 OA
HETATM   29  C21 UNL     1      14.946   4.254  50.153  1.00  0.00     0.198 C 
HETATM   30  C22 UNL     1      15.515   2.940  49.700  1.00  0.00     0.298 C 
ENDBRANCH  24  25
ENDBRANCH  23  24
ENDBRANCH  22  23
ENDBRANCH  21  22
ENDBRANCH  10  21
BRANCH   1  31
HETATM   31  O1  UNL     1      18.400  -0.174  51.864  1.00  0.00    -0.353 OA
HETATM   32  C1  UNL     1      17.427  -0.767  52.665  1.00  0.00     0.210 C 
ENDBRANCH   1  31
TORSDOF 8
ENDMDL
MODEL 6
REMARK VINA RESULT:      -7.6      2.774      5.645
REMARK  8 active torsions:
REMARK  status: ('A' for Active; 'I' for Inactive)
REMARK    1  A    between atoms: O1_2  and  C2_3 
REMARK    2  A    between atoms: C6_9  and  N3_10 
REMARK    3  A    between atoms: N3_10  and  C7_11 
REMARK    4  A    between atoms: C15_21  and  O2_22 
REMARK    5  A    between atoms: O2_22  and  C16_23 
REMARK    6  A    between atoms: C16_23  and  C17_24 
REMARK    7  A    between atoms: C17_24  and  C18_25 
REMARK    8  A    between atoms: C18_25  and  N4_26 
ROOT
HETATM    1  C2  UNL     1      19.664  -0.124  53.035  1.00  0.00     0.103 A 
HETATM    2  C3  UNL     1      18.862   0.463  52.082  1.00  0.00     0.072 A 
HETATM    3  C4  UNL     1      19.204   1.729  51.599  1.00  0.00     0.075 A 
HETATM    4  N1  UNL     1      18.505   2.398  50.679  1.00  0.00    -0.241 NA
HETATM    5  C5  UNL     1      18.943   3.622  50.293  1.00  0.00     0.236 A 
HETATM    6  N2  UNL     1      20.050   4.221  50.780  1.00  0.00    -0.224 NA
HETATM    7  C6  UNL     1      20.773   3.566  51.712  1.00  0.00     0.142 A 
HETATM    8  C13 UNL     1      20.336   2.325  52.108  1.00  0.00     0.042 A 
HETATM    9  C14 UNL     1      21.120   1.712  53.061  1.00  0.00     0.057 A 
HETATM   10  C15 UNL     1      20.812   0.460  53.563  1.00  0.00     0.103 A 
ENDROOT
BRANCH   7  11
HETATM   11  N3  UNL     1      21.916   4.261  52.169  1.00  0.00    -0.340 N 
HETATM   12  H6  UNL     1      21.968   4.648  53.116  1.00  0.00     0.167 HD
BRANCH  11  13
HETATM   13  C7  UNL     1      23.020   4.426  51.289  1.00  0.00     0.035 A 
HETATM   14  C8  UNL     1      23.441   3.441  50.421  1.00  0.00     0.032 A 
HETATM   15  C9  UNL     1      24.502   3.550  49.548  1.00  0.00     0.046 A 
HETATM   16  C10 UNL     1      25.207   4.734  49.533  1.00  0.00     0.138 A 
HETATM   17  F1  UNL     1      26.260   4.886  48.689  1.00  0.00    -0.204 F 
HETATM   18  C11 UNL     1      24.817   5.763  50.396  1.00  0.00     0.074 A 
HETATM   19 CL1  UNL     1      25.677   7.281  50.414  1.00  0.00    -0.081 Cl
HETATM   20  C12 UNL     1      23.741   5.610  51.258  1.00  0.00     0.056 A 
ENDBRANCH  11  13
ENDBRANCH   7  11
BRANCH  10  21
HETATM   21  O2  UNL     1      21.423  -0.320  54.484  1.00  0.00    -0.348 OA
BRANCH  21  22
HETATM   22  C16 UNL     1      22.631  -0.987  54.454  1.00  0.00     0.177 C 
BRANCH  22  23
HETATM   23  C17 UNL     1      23.596  -0.594  53.387  1.00  0.00     0.057 C 
BRANCH  23  24
HETATM   24  C18 UNL     1      24.986  -0.317  53.950  1.00  0.00     0.274 C 
BRANCH  24  25
HETATM   25  N4  UNL     1      25.938  -0.057  52.874  1.00  0.00     0.092 N 
HETATM   26  C19 UNL     1      25.646   1.195  52.274  1.00  0.00     0.298 C 
HETATM   27  C20 UNL     1      26.748   2.186  52.185  1.00  0.00     0.198 C 
HETATM   28  O3  UNL     1      28.009   1.742  52.483  1.00  0.00    -0.388 OA
HETATM   29  C21 UNL     1      27.998   1.037  53.692  1.00  0.00     0.198 C 
HETATM   30  C22 UNL     1      27.240  -0.231  53.422  1.00  0.00     0.298 C 
ENDBRANCH  24  25
ENDBRANCH  23  24
ENDBRANCH  22  23
ENDBRANCH  21  22
ENDBRANCH  10  21
BRANCH   1  31
HETATM   31  O1  UNL     1      19.198  -1.373  53.413  1.00  0.00    -0.353 OA
HETATM   32  C1  UNL     1      17.852  -1.731  53.439  1.00  0.00     0.210 C 
ENDBRANCH   1  31
TORSDOF 8
ENDMDL
MODEL 7
REMARK VINA RESULT:      -7.5      3.959      7.465
REMARK  8 active torsions:
REMARK  status: ('A' for Active; 'I' for Inactive)
REMARK    1  A    between atoms: O1_2  and  C2_3 
REMARK    2  A    between atoms: C6_9  and  N3_10 
REMARK    3  A    between atoms: N3_10  and  C7_11 
REMARK    4  A    between atoms: C15_21  and  O2_22 
REMARK    5  A    between atoms: O2_22  and  C16_23 
REMARK    6  A    between atoms: C16_23  and  C17_24 
REMARK    7  A    between atoms: C17_24  and  C18_25 
REMARK    8  A    between atoms: C18_25  and  N4_26 
ROOT
HETATM    1  C2  UNL     1      21.714   3.992  51.953  1.00  0.00     0.103 A 
HETATM    2  C3  UNL     1      21.008   4.926  51.228  1.00  0.00     0.072 A 
HETATM    3  C4  UNL     1      21.659   6.091  50.813  1.00  0.00     0.075 A 
HETATM    4  N1  UNL     1      21.082   7.066  50.108  1.00  0.00    -0.241 NA
HETATM    5  C5  UNL     1      21.824   8.149  49.766  1.00  0.00     0.236 A 
HETATM    6  N2  UNL     1      23.123   8.312  50.092  1.00  0.00    -0.224 NA
HETATM    7  C6  UNL     1      23.730   7.340  50.805  1.00  0.00     0.142 A 
HETATM    8  C13 UNL     1      22.985   6.241  51.155  1.00  0.00     0.042 A 
HETATM    9  C14 UNL     1      23.665   5.287  51.881  1.00  0.00     0.057 A 
HETATM   10  C15 UNL     1      23.052   4.123  52.309  1.00  0.00     0.103 A 
ENDROOT
BRANCH   7  11
HETATM   11  N3  UNL     1      25.089   7.588  51.104  1.00  0.00    -0.340 N 
HETATM   12  H6  UNL     1      25.388   7.898  52.033  1.00  0.00     0.167 HD
BRANCH  11  13
HETATM   13  C7  UNL     1      26.064   7.403  50.085  1.00  0.00     0.035 A 
HETATM   14  C8  UNL     1      26.218   6.215  49.403  1.00  0.00     0.032 A 
HETATM   15  C9  UNL     1      27.144   5.983  48.408  1.00  0.00     0.046 A 
HETATM   16  C10 UNL     1      27.990   7.015  48.061  1.00  0.00     0.138 A 
HETATM   17  F1  UNL     1      28.918   6.831  47.086  1.00  0.00    -0.204 F 
HETATM   18  C11 UNL     1      27.871   8.238  48.726  1.00  0.00     0.074 A 
HETATM   19 CL1  UNL     1      28.918   9.574  48.322  1.00  0.00    -0.081 Cl
HETATM   20  C12 UNL     1      26.924   8.428  49.720  1.00  0.00     0.056 A 
ENDBRANCH  11  13
ENDBRANCH   7  11
BRANCH  10  21
HETATM   21  O2  UNL     1      23.513   3.068  53.021  1.00  0.00    -0.348 OA
BRANCH  21  22
HETATM   22  C16 UNL     1      24.723   2.404  52.984  1.00  0.00     0.177 C 
BRANCH  22  23
HETATM   23  C17 UNL     1      24.760   1.105  52.253  1.00  0.00     0.057 C 
BRANCH  23  24
HETATM   24  C18 UNL     1      24.225  -0.042  53.104  1.00  0.00     0.274 C 
BRANCH  24  25
HETATM   25  N4  UNL     1      25.311  -0.923  53.528  1.00  0.00     0.092 N 
HETATM   26  C19 UNL     1      26.364  -0.868  52.577  1.00  0.00     0.298 C 
HETATM   27  C20 UNL     1      27.723  -0.544  53.079  1.00  0.00     0.198 C 
HETATM   28  O3  UNL     1      27.900  -0.541  54.436  1.00  0.00    -0.388 OA
HETATM   29  C21 UNL     1      26.892   0.210  55.052  1.00  0.00     0.198 C 
HETATM   30  C22 UNL     1      25.625  -0.575  54.872  1.00  0.00     0.298 C 
ENDBRANCH  24  25
ENDBRANCH  23  24
ENDBRANCH  22  23
ENDBRANCH  21  22
ENDBRANCH  10  21
BRANCH   1  31
HETATM   31  O1  UNL     1      20.935   2.896  52.291  1.00  0.00    -0.353 OA
HETATM   32  C1  UNL     1      20.652   1.841  51.426  1.00  0.00     0.210 C 
ENDBRANCH   1  31
TORSDOF 8
ENDMDL
MODEL 8
REMARK VINA RESULT:      -7.5      4.214      6.581
REMARK  8 active torsions:
REMARK  status: ('A' for Active; 'I' for Inactive)
REMARK    1  A    between atoms: O1_2  and  C2_3 
REMARK    2  A    between atoms: C6_9  and  N3_10 
REMARK    3  A    between atoms: N3_10  and  C7_11 
REMARK    4  A    between atoms: C15_21  and  O2_22 
REMARK    5  A    between atoms: O2_22  and  C16_23 
REMARK    6  A    between atoms: C16_23  and  C17_24 
REMARK    7  A    between atoms: C17_24  and  C18_25 
REMARK    8  A    between atoms: C18_25  and  N4_26 
ROOT
HETATM    1  C2  UNL     1      26.543   0.565  53.669  1.00  0.00     0.103 A 
HETATM    2  C3  UNL     1      25.880  -0.138  54.651  1.00  0.00     0.072 A 
HETATM    3  C4  UNL     1      24.548  -0.504  54.437  1.00  0.00     0.075 A 
HETATM    4  N1  UNL     1      23.804  -1.183  55.312  1.00  0.00    -0.241 NA
HETATM    5  C5  UNL     1      22.521  -1.478  54.985  1.00  0.00     0.236 A 
HETATM    6  N2  UNL     1      21.935  -1.128  53.820  1.00  0.00    -0.224 NA
HETATM    7  C6  UNL     1      22.666  -0.440  52.919  1.00  0.00     0.142 A 
HETATM    8  C13 UNL     1      23.967  -0.138  53.244  1.00  0.00     0.042 A 
HETATM    9  C14 UNL     1      24.656   0.565  52.279  1.00  0.00     0.057 A 
HETATM   10  C15 UNL     1      25.975   0.944  52.457  1.00  0.00     0.103 A 
ENDROOT
BRANCH   7  11
HETATM   11  N3  UNL     1      21.980  -0.113  51.728  1.00  0.00    -0.340 N 
HETATM   12  H6  UNL     1      22.177  -0.591  50.844  1.00  0.00     0.167 HD
BRANCH  11  13
HETATM   13  C7  UNL     1      20.989   0.907  51.761  1.00  0.00     0.035 A 
HETATM   14  C8  UNL     1      21.258   2.201  52.151  1.00  0.00     0.032 A 
HETATM   15  C9  UNL     1      20.337   3.225  52.199  1.00  0.00     0.046 A 
HETATM   16  C10 UNL     1      19.039   2.944  51.831  1.00  0.00     0.138 A 
HETATM   17  F1  UNL     1      18.098   3.923  51.863  1.00  0.00    -0.204 F 
HETATM   18  C11 UNL     1      18.718   1.645  51.428  1.00  0.00     0.074 A 
HETATM   19 CL1  UNL     1      17.090   1.239  50.951  1.00  0.00    -0.081 Cl
HETATM   20  C12 UNL     1      19.678   0.645  51.393  1.00  0.00     0.056 A 
ENDBRANCH  11  13
ENDBRANCH   7  11
BRANCH  10  21
HETATM   21  O2  UNL     1      26.833   1.626  51.664  1.00  0.00    -0.348 OA
BRANCH  21  22
HETATM   22  C16 UNL     1      26.749   2.884  51.102  1.00  0.00     0.177 C 
BRANCH  22  23
HETATM   23  C17 UNL     1      26.187   2.975  49.724  1.00  0.00     0.057 C 
BRANCH  23  24
HETATM   24  C18 UNL     1      24.933   3.840  49.677  1.00  0.00     0.274 C 
BRANCH  24  25
HETATM   25  N4  UNL     1      25.041   4.961  50.608  1.00  0.00     0.092 N 
HETATM   26  C19 UNL     1      25.487   6.114  49.911  1.00  0.00     0.298 C 
HETATM   27  C20 UNL     1      24.667   7.346  50.031  1.00  0.00     0.198 C 
HETATM   28  O3  UNL     1      23.673   7.342  50.972  1.00  0.00    -0.388 OA
HETATM   29  C21 UNL     1      22.905   6.178  50.858  1.00  0.00     0.198 C 
HETATM   30  C22 UNL     1      23.797   5.051  51.293  1.00  0.00     0.298 C 
ENDBRANCH  24  25
ENDBRANCH  23  24
ENDBRANCH  22  23
ENDBRANCH  21  22
ENDBRANCH  10  21
BRANCH   1  31
HETATM   31  O1  UNL     1      27.851   0.854  54.026  1.00  0.00    -0.353 OA
HETATM   32  C1  UNL     1      28.663   0.004  54.773  1.00  0.00     0.210 C 
ENDBRANCH   1  31
TORSDOF 8
ENDMDL
MODEL 9
REMARK VINA RESULT:      -7.5      3.599      5.377
REMARK  8 active torsions:
REMARK  status: ('A' for Active; 'I' for Inactive)
REMARK    1  A    between atoms: O1_2  and  C2_3 
REMARK    2  A    between atoms: C6_9  and  N3_10 
REMARK    3  A    between atoms: N3_10  and  C7_11 
REMARK    4  A    between atoms: C15_21  and  O2_22 
REMARK    5  A    between atoms: O2_22  and  C16_23 
REMARK    6  A    between atoms: C16_23  and  C17_24 
REMARK    7  A    between atoms: C17_24  and  C18_25 
REMARK    8  A    between atoms: C18_25  and  N4_26 
ROOT
HETATM    1  C2  UNL     1      23.232   0.599  53.167  1.00  0.00     0.103 A 
HETATM    2  C3  UNL     1      24.372   0.777  53.919  1.00  0.00     0.072 A 
HETATM    3  C4  UNL     1      25.491   1.362  53.321  1.00  0.00     0.075 A 
HETATM    4  N1  UNL     1      26.650   1.584  53.946  1.00  0.00    -0.241 NA
HETATM    5  C5  UNL     1      27.663   2.160  53.253  1.00  0.00     0.236 A 
HETATM    6  N2  UNL     1      27.582   2.530  51.957  1.00  0.00    -0.224 NA
HETATM    7  C6  UNL     1      26.422   2.315  51.303  1.00  0.00     0.142 A 
HETATM    8  C13 UNL     1      25.391   1.733  51.999  1.00  0.00     0.042 A 
HETATM    9  C14 UNL     1      24.236   1.542  51.271  1.00  0.00     0.057 A 
HETATM   10  C15 UNL     1      23.109   0.966  51.831  1.00  0.00     0.103 A 
ENDROOT
BRANCH   7  11
HETATM   11  N3  UNL     1      26.420   2.732  49.952  1.00  0.00    -0.340 N 
HETATM   12  H6  UNL     1      26.404   2.058  49.181  1.00  0.00     0.167 HD
BRANCH  11  13
HETATM   13  C7  UNL     1      26.442   4.123  49.659  1.00  0.00     0.035 A 
HETATM   14  C8  UNL     1      27.377   4.700  48.828  1.00  0.00     0.032 A 
HETATM   15  C9  UNL     1      27.442   6.039  48.511  1.00  0.00     0.046 A 
HETATM   16  C10 UNL     1      26.500   6.880  49.064  1.00  0.00     0.138 A 
HETATM   17  F1  UNL     1      26.525   8.208  48.779  1.00  0.00    -0.204 F 
HETATM   18  C11 UNL     1      25.530   6.340  49.914  1.00  0.00     0.074 A 
HETATM   19 CL1  UNL     1      24.316   7.362  50.639  1.00  0.00    -0.081 Cl
HETATM   20  C12 UNL     1      25.502   4.985  50.205  1.00  0.00     0.056 A 
ENDBRANCH  11  13
ENDBRANCH   7  11
BRANCH  10  21
HETATM   21  O2  UNL     1      21.889   0.685  51.318  1.00  0.00    -0.348 OA
BRANCH  21  22
HETATM   22  C16 UNL     1      20.908   1.507  50.801  1.00  0.00     0.177 C 
BRANCH  22  23
HETATM   23  C17 UNL     1      20.548   1.311  49.367  1.00  0.00     0.057 C 
BRANCH  23  24
HETATM   24  C18 UNL     1      21.768   1.403  48.456  1.00  0.00     0.274 C 
BRANCH  24  25
HETATM   25  N4  UNL     1      21.716   2.612  47.639  1.00  0.00     0.092 N 
HETATM   26  C19 UNL     1      20.368   3.036  47.506  1.00  0.00     0.298 C 
HETATM   27  C20 UNL     1      20.050   4.436  47.883  1.00  0.00     0.198 C 
HETATM   28  O3  UNL     1      21.109   5.272  48.118  1.00  0.00    -0.388 OA
HETATM   29  C21 UNL     1      22.022   4.663  48.985  1.00  0.00     0.198 C 
HETATM   30  C22 UNL     1      22.638   3.535  48.207  1.00  0.00     0.298 C 
ENDBRANCH  24  25
ENDBRANCH  23  24
ENDBRANCH  22  23
ENDBRANCH  21  22
ENDBRANCH  10  21
BRANCH   1  31
HETATM   31  O1  UNL     1      22.212   0.009  53.897  1.00  0.00    -0.353 OA
HETATM   32  C1  UNL     1      22.410  -0.965  54.873  1.00  0.00     0.210 C 
ENDBRANCH   1  31
TORSDOF 8
ENDMDL
