MODEL 1
REMARK VINA RESULT:      -8.9      0.000      0.000
REMARK  4 active torsions:
REMARK  status: ('A' for Active; 'I' for Inactive)
REMARK    1  A    between atoms: C4_5  and  C5_6 
REMARK    2  A    between atoms: C5_6  and  N1_7 
REMARK    3  A    between atoms: N1_7  and  C6_8 
REMARK    4  A    between atoms: N4_15  and  C11_16 
ROOT
HETATM    1  C6  UNL     1      24.267   3.038  52.589  1.00  0.00     0.027 C 
HETATM    2  C7  UNL     1      23.255   2.370  52.005  1.00  0.00     0.023 C 
HETATM    3  C8  UNL     1      22.691   0.987  51.992  1.00  0.00     0.174 C 
HETATM    4  N2  UNL     1      23.385   0.114  52.868  1.00  0.00    -0.295 N 
HETATM    5  C9  UNL     1      23.074  -1.008  53.346  1.00  0.00     0.195 A 
HETATM    6  N3  UNL     1      24.304  -0.402  53.663  1.00  0.00    -0.148 NA
HETATM    7  C10 UNL     1      24.735  -0.506  54.901  1.00  0.00     0.186 C 
HETATM    8  N4  UNL     1      25.812   0.268  54.310  1.00  0.00    -0.321 N 
HETATM    9  C17 UNL     1      25.939   1.690  54.104  1.00  0.00     0.100 C 
HETATM   10  C18 UNL     1      25.357   2.704  53.459  1.00  0.00     0.046 C 
ENDROOT
BRANCH   1  11
HETATM   11  N1  UNL     1      24.247   4.426  52.156  1.00  0.00    -0.386 N 
HETATM   12  H5  UNL     1      24.431   5.059  52.966  1.00  0.00     0.160 HD
BRANCH  11  13
HETATM   13  C5  UNL     1      23.987   4.707  50.740  1.00  0.00     0.160 C 
BRANCH  13  14
HETATM   14  C4  UNL     1      25.223   4.989  49.998  1.00  0.00    -0.019 A 
HETATM   15  C3  UNL     1      26.164   4.055  49.571  1.00  0.00     0.012 A 
HETATM   16  C2  UNL     1      27.276   4.508  48.880  1.00  0.00     0.024 A 
HETATM   17  C1  UNL     1      27.499   5.837  48.592  1.00  0.00     0.035 A 
HETATM   18 CL1  UNL     1      28.935   6.361  47.706  1.00  0.00    -0.084 Cl
HETATM   19  C20 UNL     1      26.559   6.766  49.019  1.00  0.00     0.048 A 
HETATM   20  C19 UNL     1      25.452   6.317  49.708  1.00  0.00     0.043 A 
HETATM   21 CL2  UNL     1      24.329   7.593  50.198  1.00  0.00    -0.084 Cl
ENDBRANCH  13  14
ENDBRANCH  11  13
ENDBRANCH   1  11
BRANCH   8  22
HETATM   22  C11 UNL     1      26.942  -0.524  53.845  1.00  0.00     0.039 A 
HETATM   23  C12 UNL     1      28.247  -0.185  54.146  1.00  0.00     0.030 A 
HETATM   24  C13 UNL     1      29.358  -0.881  53.739  1.00  0.00     0.002 A 
HETATM   25  C14 UNL     1      29.140  -2.010  52.965  1.00  0.00     0.000 A 
HETATM   26  C15 UNL     1      27.860  -2.400  52.631  1.00  0.00     0.002 A 
HETATM   27  C16 UNL     1      26.790  -1.655  53.073  1.00  0.00     0.030 A 
ENDBRANCH   8  22
TORSDOF 4
ENDMDL
MODEL 2
REMARK VINA RESULT:      -8.8      1.442      1.728
REMARK  4 active torsions:
REMARK  status: ('A' for Active; 'I' for Inactive)
REMARK    1  A    between atoms: C4_5  and  C5_6 
REMARK    2  A    between atoms: C5_6  and  N1_7 
REMARK    3  A    between atoms: N1_7  and  C6_8 
REMARK    4  A    between atoms: N4_15  and  C11_16 
ROOT
HETATM    1  C6  UNL     1      25.159   2.879  50.438  1.00  0.00     0.027 C 
HETATM    2  C7  UNL     1      23.911   2.386  50.534  1.00  0.00     0.023 C 
HETATM    3  C8  UNL     1      23.132   1.485  51.436  1.00  0.00     0.174 C 
HETATM    4  N2  UNL     1      23.900   1.033  52.539  1.00  0.00    -0.295 N 
HETATM    5  C9  UNL     1      23.561   0.511  53.633  1.00  0.00     0.195 A 
HETATM    6  N3  UNL     1      24.916   0.742  53.330  1.00  0.00    -0.148 NA
HETATM    7  C10 UNL     1      25.694   1.169  54.300  1.00  0.00     0.186 C 
HETATM    8  N4  UNL     1      26.647   1.104  53.205  1.00  0.00    -0.321 N 
HETATM    9  C17 UNL     1      26.956   2.065  52.175  1.00  0.00     0.100 C 
HETATM   10  C18 UNL     1      26.391   2.712  51.152  1.00  0.00     0.046 C 
ENDROOT
BRANCH   1  11
HETATM   11  N1  UNL     1      25.253   3.742  49.272  1.00  0.00    -0.386 N 
HETATM   12  H5  UNL     1      25.192   3.173  48.396  1.00  0.00     0.160 HD
BRANCH  11  13
HETATM   13  C5  UNL     1      25.409   5.184  49.487  1.00  0.00     0.160 C 
BRANCH  13  14
HETATM   14  C4  UNL     1      26.680   5.687  48.950  1.00  0.00    -0.019 A 
HETATM   15  C3  UNL     1      27.786   4.922  48.587  1.00  0.00     0.012 A 
HETATM   16  C2  UNL     1      28.905   5.573  48.095  1.00  0.00     0.024 A 
HETATM   17  C1  UNL     1      28.981   6.941  47.944  1.00  0.00     0.035 A 
HETATM   18 CL1  UNL     1      30.434   7.721  47.311  1.00  0.00    -0.084 Cl
HETATM   19  C20 UNL     1      27.877   7.700  48.307  1.00  0.00     0.048 A 
HETATM   20  C19 UNL     1      26.762   7.055  48.798  1.00  0.00     0.043 A 
HETATM   21 CL2  UNL     1      25.422   8.129  49.224  1.00  0.00    -0.084 Cl
ENDBRANCH  13  14
ENDBRANCH  11  13
ENDBRANCH   1  11
BRANCH   8  22
HETATM   22  C11 UNL     1      27.405  -0.137  53.137  1.00  0.00     0.039 A 
HETATM   23  C12 UNL     1      28.722  -0.214  53.549  1.00  0.00     0.030 A 
HETATM   24  C13 UNL     1      29.498  -1.346  53.508  1.00  0.00     0.002 A 
HETATM   25  C14 UNL     1      28.902  -2.495  53.013  1.00  0.00     0.000 A 
HETATM   26  C15 UNL     1      27.590  -2.481  52.586  1.00  0.00     0.002 A 
HETATM   27  C16 UNL     1      26.869  -1.310  52.654  1.00  0.00     0.030 A 
ENDBRANCH   8  22
TORSDOF 4
ENDMDL
MODEL 3
REMARK VINA RESULT:      -8.7      2.756      7.044
REMARK  4 active torsions:
REMARK  status: ('A' for Active; 'I' for Inactive)
REMARK    1  A    between atoms: C4_5  and  C5_6 
REMARK    2  A    between atoms: C5_6  and  N1_7 
REMARK    3  A    between atoms: N1_7  and  C6_8 
REMARK    4  A    between atoms: N4_15  and  C11_16 
ROOT
HETATM    1  C6  UNL     1      23.740   2.565  51.394  1.00  0.00     0.027 C 
HETATM    2  C7  UNL     1      23.460   3.372  52.434  1.00  0.00     0.023 C 
HETATM    3  C8  UNL     1      23.390   4.836  52.724  1.00  0.00     0.174 C 
HETATM    4  N2  UNL     1      23.658   5.625  51.577  1.00  0.00    -0.295 N 
HETATM    5  C9  UNL     1      23.435   6.839  51.331  1.00  0.00     0.195 A 
HETATM    6  N3  UNL     1      24.054   6.009  50.377  1.00  0.00    -0.148 NA
HETATM    7  C10 UNL     1      23.709   6.163  49.118  1.00  0.00     0.186 C 
HETATM    8  N4  UNL     1      24.683   5.093  48.997  1.00  0.00    -0.321 N 
HETATM    9  C17 UNL     1      24.528   3.665  49.141  1.00  0.00     0.100 C 
HETATM   10  C18 UNL     1      24.179   2.742  50.040  1.00  0.00     0.046 C 
ENDROOT
BRANCH   1  11
HETATM   11  N1  UNL     1      23.610   1.177  51.806  1.00  0.00    -0.386 N 
HETATM   12  H5  UNL     1      23.184   0.611  51.038  1.00  0.00     0.160 HD
BRANCH  11  13
HETATM   13  C5  UNL     1      24.066   0.808  53.151  1.00  0.00     0.160 C 
BRANCH  13  14
HETATM   14  C4  UNL     1      25.383   0.160  53.127  1.00  0.00    -0.019 A 
HETATM   15  C3  UNL     1      25.657  -1.146  52.726  1.00  0.00     0.012 A 
HETATM   16  C2  UNL     1      26.968  -1.588  52.771  1.00  0.00     0.024 A 
HETATM   17  C1  UNL     1      28.019  -0.803  53.192  1.00  0.00     0.035 A 
HETATM   18 CL1  UNL     1      29.675  -1.417  53.229  1.00  0.00    -0.084 Cl
HETATM   19  C20 UNL     1      27.743   0.498  53.591  1.00  0.00     0.048 A 
HETATM   20  C19 UNL     1      26.438   0.941  53.548  1.00  0.00     0.043 A 
HETATM   21 CL2  UNL     1      26.214   2.613  54.081  1.00  0.00    -0.084 Cl
ENDBRANCH  13  14
ENDBRANCH  11  13
ENDBRANCH   1  11
BRANCH   8  22
HETATM   22  C11 UNL     1      26.034   5.536  48.687  1.00  0.00     0.039 A 
HETATM   23  C12 UNL     1      26.299   6.814  48.233  1.00  0.00     0.030 A 
HETATM   24  C13 UNL     1      27.545   7.299  47.917  1.00  0.00     0.002 A 
HETATM   25  C14 UNL     1      28.611   6.427  48.069  1.00  0.00     0.000 A 
HETATM   26  C15 UNL     1      28.411   5.138  48.518  1.00  0.00     0.002 A 
HETATM   27  C16 UNL     1      27.134   4.718  48.817  1.00  0.00     0.030 A 
ENDBRANCH   8  22
TORSDOF 4
ENDMDL
MODEL 4
REMARK VINA RESULT:      -8.5      2.000      3.035
REMARK  4 active torsions:
REMARK  status: ('A' for Active; 'I' for Inactive)
REMARK    1  A    between atoms: C4_5  and  C5_6 
REMARK    2  A    between atoms: C5_6  and  N1_7 
REMARK    3  A    between atoms: N1_7  and  C6_8 
REMARK    4  A    between atoms: N4_15  and  C11_16 
ROOT
HETATM    1  C6  UNL     1      23.788   4.196  49.361  1.00  0.00     0.027 C 
HETATM    2  C7  UNL     1      23.031   3.482  48.508  1.00  0.00     0.023 C 
HETATM    3  C8  UNL     1      22.229   2.222  48.514  1.00  0.00     0.174 C 
HETATM    4  N2  UNL     1      22.218   1.596  49.787  1.00  0.00    -0.295 N 
HETATM    5  C9  UNL     1      21.469   0.710  50.273  1.00  0.00     0.195 A 
HETATM    6  N3  UNL     1      22.521   1.262  51.027  1.00  0.00    -0.148 NA
HETATM    7  C10 UNL     1      22.300   1.501  52.301  1.00  0.00     0.186 C 
HETATM    8  N4  UNL     1      23.676   1.950  52.183  1.00  0.00    -0.321 N 
HETATM    9  C17 UNL     1      24.213   3.222  51.764  1.00  0.00     0.100 C 
HETATM   10  C18 UNL     1      24.247   4.041  50.710  1.00  0.00     0.046 C 
ENDROOT
BRANCH   1  11
HETATM   11  N1  UNL     1      24.295   5.380  48.686  1.00  0.00    -0.386 N 
HETATM   12  H5  UNL     1      23.941   5.415  47.703  1.00  0.00     0.160 HD
BRANCH  11  13
HETATM   13  C5  UNL     1      25.172   6.285  49.438  1.00  0.00     0.160 C 
BRANCH  13  14
HETATM   14  C4  UNL     1      26.562   6.218  48.971  1.00  0.00    -0.019 A 
HETATM   15  C3  UNL     1      27.300   5.061  48.727  1.00  0.00     0.012 A 
HETATM   16  C2  UNL     1      28.607   5.193  48.288  1.00  0.00     0.024 A 
HETATM   17  C1  UNL     1      29.217   6.411  48.079  1.00  0.00     0.035 A 
HETATM   18 CL1  UNL     1      30.888   6.522  47.517  1.00  0.00    -0.084 Cl
HETATM   19  C20 UNL     1      28.479   7.562  48.323  1.00  0.00     0.048 A 
HETATM   20  C19 UNL     1      27.178   7.433  48.761  1.00  0.00     0.043 A 
HETATM   21 CL2  UNL     1      26.344   8.969  49.036  1.00  0.00    -0.084 Cl
ENDBRANCH  13  14
ENDBRANCH  11  13
ENDBRANCH   1  11
BRANCH   8  22
HETATM   22  C11 UNL     1      24.671   0.949  52.538  1.00  0.00     0.039 A 
HETATM   23  C12 UNL     1      25.876   0.845  51.870  1.00  0.00     0.030 A 
HETATM   24  C13 UNL     1      26.857  -0.075  52.148  1.00  0.00     0.002 A 
HETATM   25  C14 UNL     1      26.606  -0.964  53.181  1.00  0.00     0.000 A 
HETATM   26  C15 UNL     1      25.421  -0.911  53.886  1.00  0.00     0.002 A 
HETATM   27  C16 UNL     1      24.480   0.038  53.554  1.00  0.00     0.030 A 
ENDBRANCH   8  22
TORSDOF 4
ENDMDL
MODEL 5
REMARK VINA RESULT:      -8.4      2.962      4.168
REMARK  4 active torsions:
REMARK  status: ('A' for Active; 'I' for Inactive)
REMARK    1  A    between atoms: C4_5  and  C5_6 
REMARK    2  A    between atoms: C5_6  and  N1_7 
REMARK    3  A    between atoms: N1_7  and  C6_8 
REMARK    4  A    between atoms: N4_15  and  C11_16 
ROOT
HETATM    1  C6  UNL     1      24.108   4.185  50.464  1.00  0.00     0.027 C 
HETATM    2  C7  UNL     1      23.944   3.604  49.262  1.00  0.00     0.023 C 
HETATM    3  C8  UNL     1      23.089   2.547  48.640  1.00  0.00     0.174 C 
HETATM    4  N2  UNL     1      22.147   2.011  49.553  1.00  0.00    -0.295 N 
HETATM    5  C9  UNL     1      21.102   1.334  49.371  1.00  0.00     0.195 A 
HETATM    6  N3  UNL     1      21.517   1.689  50.668  1.00  0.00    -0.148 NA
HETATM    7  C10 UNL     1      20.589   2.040  51.531  1.00  0.00     0.186 C 
HETATM    8  N4  UNL     1      21.780   2.176  52.351  1.00  0.00    -0.321 N 
HETATM    9  C17 UNL     1      22.701   3.278  52.489  1.00  0.00     0.100 C 
HETATM   10  C18 UNL     1      23.561   4.011  51.777  1.00  0.00     0.046 C 
ENDROOT
BRANCH   1  11
HETATM   11  N1  UNL     1      25.153   5.193  50.377  1.00  0.00    -0.386 N 
HETATM   12  H5  UNL     1      25.695   5.229  51.270  1.00  0.00     0.160 HD
BRANCH  11  13
HETATM   13  C5  UNL     1      25.277   5.958  49.131  1.00  0.00     0.160 C 
BRANCH  13  14
HETATM   14  C4  UNL     1      26.667   6.023  48.662  1.00  0.00    -0.019 A 
HETATM   15  C3  UNL     1      27.611   5.000  48.724  1.00  0.00     0.012 A 
HETATM   16  C2  UNL     1      28.881   5.244  48.228  1.00  0.00     0.024 A 
HETATM   17  C1  UNL     1      29.260   6.448  47.675  1.00  0.00     0.035 A 
HETATM   18 CL1  UNL     1      30.895   6.706  47.056  1.00  0.00    -0.084 Cl
HETATM   19  C20 UNL     1      28.317   7.465  47.614  1.00  0.00     0.048 A 
HETATM   20  C19 UNL     1      27.052   7.225  48.107  1.00  0.00     0.043 A 
HETATM   21 CL2  UNL     1      25.942   8.596  47.974  1.00  0.00    -0.084 Cl
ENDBRANCH  13  14
ENDBRANCH  11  13
ENDBRANCH   1  11
BRANCH   8  22
HETATM   22  C11 UNL     1      22.095   1.007  53.159  1.00  0.00     0.039 A 
HETATM   23  C12 UNL     1      21.144   0.379  53.940  1.00  0.00     0.030 A 
HETATM   24  C13 UNL     1      21.371  -0.723  54.728  1.00  0.00     0.002 A 
HETATM   25  C14 UNL     1      22.658  -1.234  54.732  1.00  0.00     0.000 A 
HETATM   26  C15 UNL     1      23.652  -0.651  53.973  1.00  0.00     0.002 A 
HETATM   27  C16 UNL     1      23.355   0.453  53.205  1.00  0.00     0.030 A 
ENDBRANCH   8  22
TORSDOF 4
ENDMDL
MODEL 6
REMARK VINA RESULT:      -8.1      4.097      6.995
REMARK  4 active torsions:
REMARK  status: ('A' for Active; 'I' for Inactive)
REMARK    1  A    between atoms: C4_5  and  C5_6 
REMARK    2  A    between atoms: C5_6  and  N1_7 
REMARK    3  A    between atoms: N1_7  and  C6_8 
REMARK    4  A    between atoms: N4_15  and  C11_16 
ROOT
HETATM    1  C6  UNL     1      23.024   2.262  51.274  1.00  0.00     0.027 C 
HETATM    2  C7  UNL     1      22.914   2.149  49.938  1.00  0.00     0.023 C 
HETATM    3  C8  UNL     1      21.842   1.936  48.920  1.00  0.00     0.174 C 
HETATM    4  N2  UNL     1      20.552   1.863  49.504  1.00  0.00    -0.295 N 
HETATM    5  C9  UNL     1      19.403   1.967  49.002  1.00  0.00     0.195 A 
HETATM    6  N3  UNL     1      19.572   1.737  50.380  1.00  0.00    -0.148 NA
HETATM    7  C10 UNL     1      18.769   2.368  51.208  1.00  0.00     0.186 C 
HETATM    8  N4  UNL     1      19.582   1.618  52.149  1.00  0.00    -0.321 N 
HETATM    9  C17 UNL     1      20.864   1.931  52.734  1.00  0.00     0.100 C 
HETATM   10  C18 UNL     1      22.134   2.165  52.394  1.00  0.00     0.046 C 
ENDROOT
BRANCH   1  11
HETATM   11  N1  UNL     1      24.417   2.476  51.631  1.00  0.00    -0.386 N 
HETATM   12  H5  UNL     1      24.968   2.750  50.786  1.00  0.00     0.160 HD
BRANCH  11  13
HETATM   13  C5  UNL     1      24.812   2.286  53.031  1.00  0.00     0.160 C 
BRANCH  13  14
HETATM   14  C4  UNL     1      26.072   1.544  53.153  1.00  0.00    -0.019 A 
HETATM   15  C3  UNL     1      27.356   2.085  53.141  1.00  0.00     0.012 A 
HETATM   16  C2  UNL     1      28.435   1.225  53.269  1.00  0.00     0.024 A 
HETATM   17  C1  UNL     1      28.304  -0.140  53.407  1.00  0.00     0.035 A 
HETATM   18 CL1  UNL     1      29.715  -1.191  53.567  1.00  0.00    -0.084 Cl
HETATM   19  C20 UNL     1      27.023  -0.675  53.418  1.00  0.00     0.048 A 
HETATM   20  C19 UNL     1      25.948   0.178  53.291  1.00  0.00     0.043 A 
HETATM   21 CL2  UNL     1      24.371  -0.623  53.319  1.00  0.00    -0.084 Cl
ENDBRANCH  13  14
ENDBRANCH  11  13
ENDBRANCH   1  11
BRANCH   8  22
HETATM   22  C11 UNL     1      19.013   0.343  52.559  1.00  0.00     0.039 A 
HETATM   23  C12 UNL     1      19.704  -0.541  53.366  1.00  0.00     0.030 A 
HETATM   24  C13 UNL     1      19.232  -1.760  53.788  1.00  0.00     0.002 A 
HETATM   25  C14 UNL     1      17.963  -2.120  53.363  1.00  0.00     0.000 A 
HETATM   26  C15 UNL     1      17.223  -1.279  52.556  1.00  0.00     0.002 A 
HETATM   27  C16 UNL     1      17.758  -0.071  52.170  1.00  0.00     0.030 A 
ENDBRANCH   8  22
TORSDOF 4
ENDMDL
MODEL 7
REMARK VINA RESULT:      -8.0      3.221      7.688
REMARK  4 active torsions:
REMARK  status: ('A' for Active; 'I' for Inactive)
REMARK    1  A    between atoms: C4_5  and  C5_6 
REMARK    2  A    between atoms: C5_6  and  N1_7 
REMARK    3  A    between atoms: N1_7  and  C6_8 
REMARK    4  A    between atoms: N4_15  and  C11_16 
ROOT
HETATM    1  C6  UNL     1      24.439   3.620  51.208  1.00  0.00     0.027 C 
HETATM    2  C7  UNL     1      23.372   4.250  51.732  1.00  0.00     0.023 C 
HETATM    3  C8  UNL     1      22.616   5.522  51.527  1.00  0.00     0.174 C 
HETATM    4  N2  UNL     1      23.131   6.288  50.451  1.00  0.00    -0.295 N 
HETATM    5  C9  UNL     1      22.638   7.242  49.796  1.00  0.00     0.195 A 
HETATM    6  N3  UNL     1      23.925   6.754  49.505  1.00  0.00    -0.148 NA
HETATM    7  C10 UNL     1      24.274   6.667  48.240  1.00  0.00     0.186 C 
HETATM    8  N4  UNL     1      25.480   6.175  48.882  1.00  0.00    -0.321 N 
HETATM    9  C17 UNL     1      25.821   4.850  49.342  1.00  0.00     0.100 C 
HETATM   10  C18 UNL     1      25.425   3.916  50.210  1.00  0.00     0.046 C 
ENDROOT
BRANCH   1  11
HETATM   11  N1  UNL     1      24.642   2.355  51.896  1.00  0.00    -0.386 N 
HETATM   12  H5  UNL     1      24.359   1.560  51.280  1.00  0.00     0.160 HD
BRANCH  11  13
HETATM   13  C5  UNL     1      25.178   2.386  53.262  1.00  0.00     0.160 C 
BRANCH  13  14
HETATM   14  C4  UNL     1      26.455   1.672  53.369  1.00  0.00    -0.019 A 
HETATM   15  C3  UNL     1      27.728   2.237  53.319  1.00  0.00     0.012 A 
HETATM   16  C2  UNL     1      28.826   1.402  53.439  1.00  0.00     0.024 A 
HETATM   17  C1  UNL     1      28.726   0.038  53.606  1.00  0.00     0.035 A 
HETATM   18 CL1  UNL     1      30.161  -0.982  53.754  1.00  0.00    -0.084 Cl
HETATM   19  C20 UNL     1      27.456  -0.523  53.655  1.00  0.00     0.048 A 
HETATM   20  C19 UNL     1      26.362   0.306  53.536  1.00  0.00     0.043 A 
HETATM   21 CL2  UNL     1      24.802  -0.524  53.615  1.00  0.00    -0.084 Cl
ENDBRANCH  13  14
ENDBRANCH  11  13
ENDBRANCH   1  11
BRANCH   8  22
HETATM   22  C11 UNL     1      26.504   7.185  49.100  1.00  0.00     0.039 A 
HETATM   23  C12 UNL     1      27.680   7.204  48.373  1.00  0.00     0.030 A 
HETATM   24  C13 UNL     1      28.690   8.122  48.528  1.00  0.00     0.002 A 
HETATM   25  C14 UNL     1      28.503   9.099  49.493  1.00  0.00     0.000 A 
HETATM   26  C15 UNL     1      27.351   9.133  50.251  1.00  0.00     0.002 A 
HETATM   27  C16 UNL     1      26.378   8.181  50.043  1.00  0.00     0.030 A 
ENDBRANCH   8  22
TORSDOF 4
ENDMDL
MODEL 8
REMARK VINA RESULT:      -7.8      4.405      6.485
REMARK  4 active torsions:
REMARK  status: ('A' for Active; 'I' for Inactive)
REMARK    1  A    between atoms: C4_5  and  C5_6 
REMARK    2  A    between atoms: C5_6  and  N1_7 
REMARK    3  A    between atoms: N1_7  and  C6_8 
REMARK    4  A    between atoms: N4_15  and  C11_16 
ROOT
HETATM    1  C6  UNL     1      26.554   6.047  48.658  1.00  0.00     0.027 C 
HETATM    2  C7  UNL     1      25.793   7.157  48.645  1.00  0.00     0.023 C 
HETATM    3  C8  UNL     1      24.485   7.619  49.198  1.00  0.00     0.174 C 
HETATM    4  N2  UNL     1      23.860   6.632  50.001  1.00  0.00    -0.295 N 
HETATM    5  C9  UNL     1      22.928   6.710  50.843  1.00  0.00     0.195 A 
HETATM    6  N3  UNL     1      23.546   5.477  50.560  1.00  0.00    -0.148 NA
HETATM    7  C10 UNL     1      23.771   4.661  51.565  1.00  0.00     0.186 C 
HETATM    8  N4  UNL     1      24.306   3.879  50.465  1.00  0.00    -0.321 N 
HETATM    9  C17 UNL     1      25.610   3.903  49.848  1.00  0.00     0.100 C 
HETATM   10  C18 UNL     1      26.429   4.717  49.178  1.00  0.00     0.046 C 
ENDROOT
BRANCH   1  11
HETATM   11  N1  UNL     1      27.768   6.281  47.892  1.00  0.00    -0.386 N 
HETATM   12  H5  UNL     1      27.800   5.644  47.064  1.00  0.00     0.160 HD
BRANCH  11  13
HETATM   13  C5  UNL     1      28.701   7.308  48.368  1.00  0.00     0.160 C 
BRANCH  13  14
HETATM   14  C4  UNL     1      30.080   6.809  48.436  1.00  0.00    -0.019 A 
HETATM   15  C3  UNL     1      30.522   5.540  48.068  1.00  0.00     0.012 A 
HETATM   16  C2  UNL     1      31.868   5.246  48.202  1.00  0.00     0.024 A 
HETATM   17  C1  UNL     1      32.797   6.145  48.680  1.00  0.00     0.035 A 
HETATM   18 CL1  UNL     1      34.504   5.717  48.830  1.00  0.00    -0.084 Cl
HETATM   19  C20 UNL     1      32.354   7.409  49.046  1.00  0.00     0.048 A 
HETATM   20  C19 UNL     1      31.014   7.704  48.915  1.00  0.00     0.043 A 
HETATM   21 CL2  UNL     1      30.573   9.344  49.412  1.00  0.00    -0.084 Cl
ENDBRANCH  13  14
ENDBRANCH  11  13
ENDBRANCH   1  11
BRANCH   8  22
HETATM   22  C11 UNL     1      23.371   2.923  49.892  1.00  0.00     0.039 A 
HETATM   23  C12 UNL     1      23.135   2.855  48.532  1.00  0.00     0.030 A 
HETATM   24  C13 UNL     1      22.265   1.983  47.923  1.00  0.00     0.002 A 
HETATM   25  C14 UNL     1      21.576   1.110  48.749  1.00  0.00     0.000 A 
HETATM   26  C15 UNL     1      21.768   1.129  50.115  1.00  0.00     0.002 A 
HETATM   27  C16 UNL     1      22.656   2.029  50.659  1.00  0.00     0.030 A 
ENDBRANCH   8  22
TORSDOF 4
ENDMDL
MODEL 9
REMARK VINA RESULT:      -7.7      3.549      8.345
REMARK  4 active torsions:
REMARK  status: ('A' for Active; 'I' for Inactive)
REMARK    1  A    between atoms: C4_5  and  C5_6 
REMARK    2  A    between atoms: C5_6  and  N1_7 
REMARK    3  A    between atoms: N1_7  and  C6_8 
REMARK    4  A    between atoms: N4_15  and  C11_16 
ROOT
HETATM    1  C6  UNL     1      24.994   3.584  51.065  1.00  0.00     0.027 C 
HETATM    2  C7  UNL     1      26.001   3.301  50.220  1.00  0.00     0.023 C 
HETATM    3  C8  UNL     1      26.844   4.011  49.211  1.00  0.00     0.174 C 
HETATM    4  N2  UNL     1      26.535   5.391  49.125  1.00  0.00    -0.295 N 
HETATM    5  C9  UNL     1      27.169   6.358  48.629  1.00  0.00     0.195 A 
HETATM    6  N3  UNL     1      25.916   6.552  49.240  1.00  0.00    -0.148 NA
HETATM    7  C10 UNL     1      25.755   7.629  49.977  1.00  0.00     0.186 C 
HETATM    8  N4  UNL     1      24.443   7.020  50.108  1.00  0.00    -0.321 N 
HETATM    9  C17 UNL     1      23.970   6.004  51.017  1.00  0.00     0.100 C 
HETATM   10  C18 UNL     1      24.184   4.731  51.358  1.00  0.00     0.046 C 
ENDROOT
BRANCH   1  11
HETATM   11  N1  UNL     1      24.626   2.385  51.801  1.00  0.00    -0.386 N 
HETATM   12  H5  UNL     1      24.072   1.742  51.190  1.00  0.00     0.160 HD
BRANCH  11  13
HETATM   13  C5  UNL     1      25.058   2.269  53.198  1.00  0.00     0.160 C 
BRANCH  13  14
HETATM   14  C4  UNL     1      26.349   1.581  53.320  1.00  0.00    -0.019 A 
HETATM   15  C3  UNL     1      27.603   2.183  53.409  1.00  0.00     0.012 A 
HETATM   16  C2  UNL     1      28.718   1.369  53.520  1.00  0.00     0.024 A 
HETATM   17  C1  UNL     1      28.652  -0.007  53.547  1.00  0.00     0.035 A 
HETATM   18 CL1  UNL     1      30.108  -0.999  53.690  1.00  0.00    -0.084 Cl
HETATM   19  C20 UNL     1      27.401  -0.604  53.457  1.00  0.00     0.048 A 
HETATM   20  C19 UNL     1      26.290   0.204  53.347  1.00  0.00     0.043 A 
HETATM   21 CL2  UNL     1      24.756  -0.671  53.241  1.00  0.00    -0.084 Cl
ENDBRANCH  13  14
ENDBRANCH  11  13
ENDBRANCH   1  11
BRANCH   8  22
HETATM   22  C11 UNL     1      23.451   7.512  49.165  1.00  0.00     0.039 A 
HETATM   23  C12 UNL     1      22.663   6.657  48.418  1.00  0.00     0.030 A 
HETATM   24  C13 UNL     1      21.712   7.049  47.508  1.00  0.00     0.002 A 
HETATM   25  C14 UNL     1      21.540   8.413  47.334  1.00  0.00     0.000 A 
HETATM   26  C15 UNL     1      22.296   9.318  48.050  1.00  0.00     0.002 A 
HETATM   27  C16 UNL     1      23.233   8.855  48.947  1.00  0.00     0.030 A 
ENDBRANCH   8  22
TORSDOF 4
ENDMDL
