MODEL 1
REMARK VINA RESULT:      -9.8      0.000      0.000
REMARK  5 active torsions:
REMARK  status: ('A' for Active; 'I' for Inactive)
REMARK    1  A    between atoms: C5_5  and  C6_6 
REMARK    2  A    between atoms: C6_6  and  N1_7 
REMARK    3  A    between atoms: N1_7  and  C7_8 
REMARK    4  A    between atoms: C12_13  and  N2_14 
REMARK    5  A    between atoms: N2_14  and  C13_15 
ROOT
HETATM    1  C7  UNL     1      22.487   0.479  52.689  1.00  0.00     0.030 A 
HETATM    2  C8  UNL     1      21.287  -0.122  52.389  1.00  0.00     0.030 A 
HETATM    3  C9  UNL     1      20.123   0.532  52.045  1.00  0.00     0.011 A 
HETATM    4  C10 UNL     1      20.207   1.926  52.007  1.00  0.00    -0.035 A 
HETATM    5  C11 UNL     1      18.965   2.689  51.624  1.00  0.00     0.050 C 
HETATM    6  C12 UNL     1      21.403   2.556  52.304  1.00  0.00     0.043 A 
HETATM    7  C22 UNL     1      22.513   1.854  52.636  1.00  0.00     0.059 A 
ENDROOT
BRANCH   6   8
HETATM    8  N2  UNL     1      21.295   3.964  52.200  1.00  0.00    -0.319 N 
HETATM    9  H14 UNL     1      20.557   4.449  52.798  1.00  0.00     0.169 HD
BRANCH   8  10
HETATM   10  C13 UNL     1      22.113   4.713  51.355  1.00  0.00     0.272 C 
HETATM   11  N3  UNL     1      21.834   5.981  51.322  1.00  0.00    -0.219 NA
HETATM   12  C14 UNL     1      22.564   6.925  50.508  1.00  0.00     0.123 C 
HETATM   13  C15 UNL     1      23.735   6.734  49.870  1.00  0.00     0.054 C 
HETATM   14  C16 UNL     1      24.637   5.597  49.767  1.00  0.00     0.097 C 
HETATM   15  C17 UNL     1      25.962   5.782  49.223  1.00  0.00     0.012 A 
HETATM   16  N5  UNL     1      24.279   4.425  50.142  1.00  0.00    -0.124 NA
HETATM   17  C18 UNL     1      26.571   6.916  48.770  1.00  0.00     0.017 A 
HETATM   18  C21 UNL     1      26.747   4.627  49.136  1.00  0.00     0.130 A 
HETATM   19  C19 UNL     1      27.863   6.895  48.268  1.00  0.00     0.020 A 
HETATM   20  C20 UNL     1      28.567   5.705  48.218  1.00  0.00     0.116 A 
HETATM   21  N4  UNL     1      27.997   4.569  48.656  1.00  0.00    -0.272 NA
HETATM   22  O1  UNL     1      23.105   3.971  50.679  1.00  0.00    -0.174 OA
ENDBRANCH   8  10
ENDBRANCH   6   8
BRANCH   1  23
HETATM   23  N1  UNL     1      23.651  -0.233  53.015  1.00  0.00    -0.386 N 
HETATM   24  H8  UNL     1      24.212  -0.589  52.196  1.00  0.00     0.160 HD
BRANCH  23  25
HETATM   25  C6  UNL     1      24.310  -0.621  54.226  1.00  0.00     0.158 C 
BRANCH  25  26
HETATM   26  C5  UNL     1      25.765  -0.474  54.181  1.00  0.00    -0.041 A 
HETATM   27  C4  UNL     1      26.651   0.180  54.993  1.00  0.00     0.009 A 
HETATM   28  C3  UNL     1      28.007   0.179  54.775  1.00  0.00     0.007 A 
HETATM   29  C2  UNL     1      28.579  -0.485  53.716  1.00  0.00    -0.062 A 
HETATM   30  C1  UNL     1      30.050  -0.457  53.541  1.00  0.00     0.048 C 
HETATM   31  C24 UNL     1      27.715  -1.163  52.864  1.00  0.00     0.007 A 
HETATM   32  C23 UNL     1      26.362  -1.136  53.119  1.00  0.00     0.009 A 
ENDBRANCH  25  26
ENDBRANCH  23  25
ENDBRANCH   1  23
TORSDOF 5
ENDMDL
MODEL 2
REMARK VINA RESULT:      -9.7      1.731      2.523
REMARK  5 active torsions:
REMARK  status: ('A' for Active; 'I' for Inactive)
REMARK    1  A    between atoms: C5_5  and  C6_6 
REMARK    2  A    between atoms: C6_6  and  N1_7 
REMARK    3  A    between atoms: N1_7  and  C7_8 
REMARK    4  A    between atoms: C12_13  and  N2_14 
REMARK    5  A    between atoms: N2_14  and  C13_15 
ROOT
HETATM    1  C7  UNL     1      22.611   0.841  52.405  1.00  0.00     0.030 A 
HETATM    2  C8  UNL     1      21.719   0.109  51.658  1.00  0.00     0.030 A 
HETATM    3  C9  UNL     1      21.204   0.476  50.432  1.00  0.00     0.011 A 
HETATM    4  C10 UNL     1      21.649   1.704  49.938  1.00  0.00    -0.035 A 
HETATM    5  C11 UNL     1      21.126   2.147  48.596  1.00  0.00     0.050 C 
HETATM    6  C12 UNL     1      22.548   2.461  50.670  1.00  0.00     0.043 A 
HETATM    7  C22 UNL     1      23.016   2.043  51.870  1.00  0.00     0.059 A 
ENDROOT
BRANCH   6   8
HETATM    8  N2  UNL     1      22.889   3.662  50.004  1.00  0.00    -0.319 N 
HETATM    9  H14 UNL     1      22.092   4.281  49.659  1.00  0.00     0.169 HD
BRANCH   8  10
HETATM   10  C13 UNL     1      24.213   4.045  49.792  1.00  0.00     0.272 C 
HETATM   11  N3  UNL     1      25.053   3.057  49.714  1.00  0.00    -0.219 NA
HETATM   12  C14 UNL     1      26.468   3.245  49.499  1.00  0.00     0.123 C 
HETATM   13  C15 UNL     1      27.105   4.371  49.120  1.00  0.00     0.054 C 
HETATM   14  C16 UNL     1      26.646   5.715  48.808  1.00  0.00     0.097 C 
HETATM   15  C17 UNL     1      27.544   6.648  48.168  1.00  0.00     0.012 A 
HETATM   16  N5  UNL     1      25.457   6.098  49.098  1.00  0.00    -0.124 NA
HETATM   17  C18 UNL     1      28.834   6.478  47.760  1.00  0.00     0.017 A 
HETATM   18  C21 UNL     1      27.024   7.926  47.936  1.00  0.00     0.130 A 
HETATM   19  C19 UNL     1      29.548   7.507  47.164  1.00  0.00     0.020 A 
HETATM   20  C20 UNL     1      28.954   8.741  46.973  1.00  0.00     0.116 A 
HETATM   21  N4  UNL     1      27.684   8.943  47.365  1.00  0.00    -0.272 NA
HETATM   22  O1  UNL     1      24.420   5.439  49.698  1.00  0.00    -0.174 OA
ENDBRANCH   8  10
ENDBRANCH   6   8
BRANCH   1  23
HETATM   23  N1  UNL     1      23.122   0.414  53.640  1.00  0.00    -0.386 N 
HETATM   24  H8  UNL     1      22.924   1.047  54.458  1.00  0.00     0.160 HD
BRANCH  23  25
HETATM   25  C6  UNL     1      23.875  -0.713  54.103  1.00  0.00     0.158 C 
BRANCH  25  26
HETATM   26  C5  UNL     1      25.322  -0.496  54.106  1.00  0.00    -0.041 A 
HETATM   27  C4  UNL     1      26.163   0.104  55.003  1.00  0.00     0.009 A 
HETATM   28  C3  UNL     1      27.521   0.188  54.815  1.00  0.00     0.007 A 
HETATM   29  C2  UNL     1      28.141  -0.331  53.703  1.00  0.00    -0.062 A 
HETATM   30  C1  UNL     1      29.611  -0.218  53.564  1.00  0.00     0.048 C 
HETATM   31  C24 UNL     1      27.323  -0.951  52.764  1.00  0.00     0.007 A 
HETATM   32  C23 UNL     1      25.967  -1.012  52.992  1.00  0.00     0.009 A 
ENDBRANCH  25  26
ENDBRANCH  23  25
ENDBRANCH   1  23
TORSDOF 5
ENDMDL
MODEL 3
REMARK VINA RESULT:      -9.6      2.360      6.535
REMARK  5 active torsions:
REMARK  status: ('A' for Active; 'I' for Inactive)
REMARK    1  A    between atoms: C5_5  and  C6_6 
REMARK    2  A    between atoms: C6_6  and  N1_7 
REMARK    3  A    between atoms: N1_7  and  C7_8 
REMARK    4  A    between atoms: C12_13  and  N2_14 
REMARK    5  A    between atoms: N2_14  and  C13_15 
ROOT
HETATM    1  C7  UNL     1      25.300  -0.174  53.963  1.00  0.00     0.030 A 
HETATM    2  C8  UNL     1      26.467  -0.261  54.685  1.00  0.00     0.030 A 
HETATM    3  C9  UNL     1      27.550   0.585  54.567  1.00  0.00     0.011 A 
HETATM    4  C10 UNL     1      27.414   1.606  53.624  1.00  0.00    -0.035 A 
HETATM    5  C11 UNL     1      28.565   2.567  53.465  1.00  0.00     0.050 C 
HETATM    6  C12 UNL     1      26.249   1.716  52.885  1.00  0.00     0.043 A 
HETATM    7  C22 UNL     1      25.221   0.850  53.048  1.00  0.00     0.059 A 
ENDROOT
BRANCH   6   8
HETATM    8  N2  UNL     1      26.293   2.815  51.994  1.00  0.00    -0.319 N 
HETATM    9  H14 UNL     1      27.227   3.317  51.873  1.00  0.00     0.169 HD
BRANCH   8  10
HETATM   10  C13 UNL     1      25.172   3.246  51.287  1.00  0.00     0.272 C 
HETATM   11  N3  UNL     1      25.316   3.245  49.996  1.00  0.00    -0.219 NA
HETATM   12  C14 UNL     1      24.271   3.657  49.089  1.00  0.00     0.123 C 
HETATM   13  C15 UNL     1      22.969   3.867  49.368  1.00  0.00     0.054 C 
HETATM   14  C16 UNL     1      22.185   3.766  50.588  1.00  0.00     0.097 C 
HETATM   15  C17 UNL     1      20.743   3.798  50.518  1.00  0.00     0.012 A 
HETATM   16  N5  UNL     1      22.748   3.658  51.736  1.00  0.00    -0.124 NA
HETATM   17  C18 UNL     1      19.923   3.896  49.433  1.00  0.00     0.017 A 
HETATM   18  C21 UNL     1      20.076   3.725  51.746  1.00  0.00     0.130 A 
HETATM   19  C19 UNL     1      18.543   3.920  49.565  1.00  0.00     0.020 A 
HETATM   20  C20 UNL     1      17.967   3.844  50.820  1.00  0.00     0.116 A 
HETATM   21  N4  UNL     1      18.746   3.747  51.912  1.00  0.00    -0.272 NA
HETATM   22  O1  UNL     1      24.068   3.609  52.090  1.00  0.00    -0.174 OA
ENDBRANCH   8  10
ENDBRANCH   6   8
BRANCH   1  23
HETATM   23  N1  UNL     1      24.217  -1.050  54.134  1.00  0.00    -0.386 N 
HETATM   24  H8  UNL     1      24.376  -2.040  53.808  1.00  0.00     0.160 HD
BRANCH  23  25
HETATM   25  C6  UNL     1      22.890  -0.948  54.662  1.00  0.00     0.158 C 
BRANCH  25  26
HETATM   26  C5  UNL     1      21.882  -0.584  53.666  1.00  0.00    -0.041 A 
HETATM   27  C4  UNL     1      21.978  -0.036  52.416  1.00  0.00     0.009 A 
HETATM   28  C3  UNL     1      20.884   0.216  51.624  1.00  0.00     0.007 A 
HETATM   29  C2  UNL     1      19.603  -0.068  52.032  1.00  0.00    -0.062 A 
HETATM   30  C1  UNL     1      18.465   0.217  51.126  1.00  0.00     0.048 C 
HETATM   31  C24 UNL     1      19.459  -0.626  53.297  1.00  0.00     0.007 A 
HETATM   32  C23 UNL     1      20.582  -0.862  54.057  1.00  0.00     0.009 A 
ENDBRANCH  25  26
ENDBRANCH  23  25
ENDBRANCH   1  23
TORSDOF 5
ENDMDL
MODEL 4
REMARK VINA RESULT:      -9.6      2.350      8.108
REMARK  5 active torsions:
REMARK  status: ('A' for Active; 'I' for Inactive)
REMARK    1  A    between atoms: C5_5  and  C6_6 
REMARK    2  A    between atoms: C6_6  and  N1_7 
REMARK    3  A    between atoms: N1_7  and  C7_8 
REMARK    4  A    between atoms: C12_13  and  N2_14 
REMARK    5  A    between atoms: N2_14  and  C13_15 
ROOT
HETATM    1  C7  UNL     1      25.441   2.653  51.731  1.00  0.00     0.030 A 
HETATM    2  C8  UNL     1      26.588   2.003  51.340  1.00  0.00     0.030 A 
HETATM    3  C9  UNL     1      26.952   0.725  51.708  1.00  0.00     0.011 A 
HETATM    4  C10 UNL     1      26.056   0.064  52.550  1.00  0.00    -0.035 A 
HETATM    5  C11 UNL     1      26.401  -1.341  52.971  1.00  0.00     0.050 C 
HETATM    6  C12 UNL     1      24.894   0.696  52.958  1.00  0.00     0.043 A 
HETATM    7  C22 UNL     1      24.594   1.955  52.561  1.00  0.00     0.059 A 
ENDROOT
BRANCH   6   8
HETATM    8  N2  UNL     1      24.110  -0.134  53.795  1.00  0.00    -0.319 N 
HETATM    9  H14 UNL     1      24.578  -0.552  54.657  1.00  0.00     0.169 HD
BRANCH   8  10
HETATM   10  C13 UNL     1      22.771  -0.411  53.524  1.00  0.00     0.272 C 
HETATM   11  N3  UNL     1      22.117  -0.933  54.519  1.00  0.00    -0.219 NA
HETATM   12  C14 UNL     1      20.721  -1.292  54.439  1.00  0.00     0.123 C 
HETATM   13  C15 UNL     1      19.834  -0.956  53.482  1.00  0.00     0.054 C 
HETATM   14  C16 UNL     1      19.937  -0.167  52.264  1.00  0.00     0.097 C 
HETATM   15  C17 UNL     1      18.737   0.242  51.572  1.00  0.00     0.012 A 
HETATM   16  N5  UNL     1      21.076   0.170  51.781  1.00  0.00    -0.124 NA
HETATM   17  C18 UNL     1      17.428   0.018  51.886  1.00  0.00     0.017 A 
HETATM   18  C21 UNL     1      18.936   0.971  50.394  1.00  0.00     0.130 A 
HETATM   19  C19 UNL     1      16.399   0.488  51.084  1.00  0.00     0.020 A 
HETATM   20  C20 UNL     1      16.688   1.201  49.934  1.00  0.00     0.116 A 
HETATM   21  N4  UNL     1      17.968   1.439  49.595  1.00  0.00    -0.272 NA
HETATM   22  O1  UNL     1      22.348  -0.080  52.218  1.00  0.00    -0.174 OA
ENDBRANCH   8  10
ENDBRANCH   6   8
BRANCH   1  23
HETATM   23  N1  UNL     1      25.105   3.950  51.313  1.00  0.00    -0.386 N 
HETATM   24  H8  UNL     1      25.003   4.664  52.081  1.00  0.00     0.160 HD
BRANCH  23  25
HETATM   25  C6  UNL     1      24.854   4.589  50.056  1.00  0.00     0.158 C 
BRANCH  25  26
HETATM   26  C5  UNL     1      26.058   5.100  49.401  1.00  0.00    -0.041 A 
HETATM   27  C4  UNL     1      27.211   4.493  48.987  1.00  0.00     0.009 A 
HETATM   28  C3  UNL     1      28.233   5.169  48.366  1.00  0.00     0.007 A 
HETATM   29  C2  UNL     1      28.170   6.518  48.112  1.00  0.00    -0.062 A 
HETATM   30  C1  UNL     1      29.301   7.189  47.429  1.00  0.00     0.048 C 
HETATM   31  C24 UNL     1      27.015   7.177  48.517  1.00  0.00     0.007 A 
HETATM   32  C23 UNL     1      26.016   6.461  49.136  1.00  0.00     0.009 A 
ENDBRANCH  25  26
ENDBRANCH  23  25
ENDBRANCH   1  23
TORSDOF 5
ENDMDL
MODEL 5
REMARK VINA RESULT:      -9.5      3.327      6.126
REMARK  5 active torsions:
REMARK  status: ('A' for Active; 'I' for Inactive)
REMARK    1  A    between atoms: C5_5  and  C6_6 
REMARK    2  A    between atoms: C6_6  and  N1_7 
REMARK    3  A    between atoms: N1_7  and  C7_8 
REMARK    4  A    between atoms: C12_13  and  N2_14 
REMARK    5  A    between atoms: N2_14  and  C13_15 
ROOT
HETATM    1  C7  UNL     1      25.270   3.829  49.736  1.00  0.00     0.030 A 
HETATM    2  C8  UNL     1      24.158   4.334  49.104  1.00  0.00     0.030 A 
HETATM    3  C9  UNL     1      24.065   5.576  48.511  1.00  0.00     0.011 A 
HETATM    4  C10 UNL     1      25.218   6.361  48.578  1.00  0.00    -0.035 A 
HETATM    5  C11 UNL     1      25.174   7.723  47.935  1.00  0.00     0.050 C 
HETATM    6  C12 UNL     1      26.351   5.875  49.209  1.00  0.00     0.043 A 
HETATM    7  C22 UNL     1      26.377   4.644  49.772  1.00  0.00     0.059 A 
ENDROOT
BRANCH   6   8
HETATM    8  N2  UNL     1      27.417   6.806  49.164  1.00  0.00    -0.319 N 
HETATM    9  H14 UNL     1      27.350   7.666  49.791  1.00  0.00     0.169 HD
BRANCH   8  10
HETATM   10  C13 UNL     1      28.527   6.627  48.340  1.00  0.00     0.272 C 
HETATM   11  N3  UNL     1      28.871   7.683  47.665  1.00  0.00    -0.219 NA
HETATM   12  C14 UNL     1      29.992   7.702  46.755  1.00  0.00     0.123 C 
HETATM   13  C15 UNL     1      30.968   6.782  46.626  1.00  0.00     0.054 C 
HETATM   14  C16 UNL     1      31.243   5.523  47.300  1.00  0.00     0.097 C 
HETATM   15  C17 UNL     1      32.525   4.882  47.126  1.00  0.00     0.012 A 
HETATM   16  N5  UNL     1      30.364   4.959  48.044  1.00  0.00    -0.124 NA
HETATM   17  C18 UNL     1      33.611   5.282  46.403  1.00  0.00     0.017 A 
HETATM   18  C21 UNL     1      32.686   3.660  47.789  1.00  0.00     0.130 A 
HETATM   19  C19 UNL     1      34.767   4.518  46.348  1.00  0.00     0.020 A 
HETATM   20  C20 UNL     1      34.839   3.320  47.035  1.00  0.00     0.116 A 
HETATM   21  N4  UNL     1      33.787   2.896  47.757  1.00  0.00    -0.272 NA
HETATM   22  O1  UNL     1      29.090   5.333  48.375  1.00  0.00    -0.174 OA
ENDBRANCH   8  10
ENDBRANCH   6   8
BRANCH   1  23
HETATM   23  N1  UNL     1      25.320   2.548  50.307  1.00  0.00    -0.386 N 
HETATM   24  H8  UNL     1      25.667   1.780  49.673  1.00  0.00     0.160 HD
BRANCH  23  25
HETATM   25  C6  UNL     1      25.013   1.983  51.587  1.00  0.00     0.158 C 
BRANCH  25  26
HETATM   26  C5  UNL     1      26.087   1.162  52.145  1.00  0.00    -0.041 A 
HETATM   27  C4  UNL     1      26.233  -0.190  52.293  1.00  0.00     0.009 A 
HETATM   28  C3  UNL     1      27.353  -0.766  52.840  1.00  0.00     0.007 A 
HETATM   29  C2  UNL     1      28.419  -0.021  53.283  1.00  0.00    -0.062 A 
HETATM   30  C1  UNL     1      29.604  -0.703  53.855  1.00  0.00     0.048 C 
HETATM   31  C24 UNL     1      28.313   1.359  53.154  1.00  0.00     0.007 A 
HETATM   32  C23 UNL     1      27.173   1.895  52.599  1.00  0.00     0.009 A 
ENDBRANCH  25  26
ENDBRANCH  23  25
ENDBRANCH   1  23
TORSDOF 5
ENDMDL
MODEL 6
REMARK VINA RESULT:      -9.4      3.428      6.529
REMARK  5 active torsions:
REMARK  status: ('A' for Active; 'I' for Inactive)
REMARK    1  A    between atoms: C5_5  and  C6_6 
REMARK    2  A    between atoms: C6_6  and  N1_7 
REMARK    3  A    between atoms: N1_7  and  C7_8 
REMARK    4  A    between atoms: C12_13  and  N2_14 
REMARK    5  A    between atoms: N2_14  and  C13_15 
ROOT
HETATM    1  C7  UNL     1      25.992   4.076  49.510  1.00  0.00     0.030 A 
HETATM    2  C8  UNL     1      24.660   4.309  49.264  1.00  0.00     0.030 A 
HETATM    3  C9  UNL     1      24.132   5.461  48.719  1.00  0.00     0.011 A 
HETATM    4  C10 UNL     1      25.061   6.455  48.402  1.00  0.00    -0.035 A 
HETATM    5  C11 UNL     1      24.537   7.730  47.793  1.00  0.00     0.050 C 
HETATM    6  C12 UNL     1      26.408   6.245  48.640  1.00  0.00     0.043 A 
HETATM    7  C22 UNL     1      26.863   5.089  49.179  1.00  0.00     0.059 A 
ENDROOT
BRANCH   6   8
HETATM    8  N2  UNL     1      27.191   7.356  48.244  1.00  0.00    -0.319 N 
HETATM    9  H14 UNL     1      26.678   8.238  47.934  1.00  0.00     0.169 HD
BRANCH   8  10
HETATM   10  C13 UNL     1      28.585   7.324  48.251  1.00  0.00     0.272 C 
HETATM   11  N3  UNL     1      29.141   8.261  48.959  1.00  0.00    -0.219 NA
HETATM   12  C14 UNL     1      30.572   8.400  49.092  1.00  0.00     0.123 C 
HETATM   13  C15 UNL     1      31.525   7.514  48.743  1.00  0.00     0.054 C 
HETATM   14  C16 UNL     1      31.479   6.188  48.148  1.00  0.00     0.097 C 
HETATM   15  C17 UNL     1      32.666   5.366  48.136  1.00  0.00     0.012 A 
HETATM   16  N5  UNL     1      30.403   5.730  47.621  1.00  0.00    -0.124 NA
HETATM   17  C18 UNL     1      33.910   5.622  48.634  1.00  0.00     0.017 A 
HETATM   18  C21 UNL     1      32.533   4.119  47.516  1.00  0.00     0.130 A 
HETATM   19  C19 UNL     1      34.941   4.701  48.519  1.00  0.00     0.020 A 
HETATM   20  C20 UNL     1      34.721   3.491  47.887  1.00  0.00     0.116 A 
HETATM   21  N4  UNL     1      33.506   3.206  47.386  1.00  0.00    -0.272 NA
HETATM   22  O1  UNL     1      29.158   6.283  47.490  1.00  0.00    -0.174 OA
ENDBRANCH   8  10
ENDBRANCH   6   8
BRANCH   1  23
HETATM   23  N1  UNL     1      26.482   2.876  50.048  1.00  0.00    -0.386 N 
HETATM   24  H8  UNL     1      26.767   2.144  49.345  1.00  0.00     0.160 HD
BRANCH  23  25
HETATM   25  C6  UNL     1      26.709   2.361  51.365  1.00  0.00     0.158 C 
BRANCH  25  26
HETATM   26  C5  UNL     1      25.565   1.640  51.924  1.00  0.00    -0.041 A 
HETATM   27  C4  UNL     1      24.217   1.872  51.878  1.00  0.00     0.009 A 
HETATM   28  C3  UNL     1      23.295   1.044  52.470  1.00  0.00     0.007 A 
HETATM   29  C2  UNL     1      23.661  -0.088  53.157  1.00  0.00    -0.062 A 
HETATM   30  C1  UNL     1      22.618  -0.947  53.765  1.00  0.00     0.048 C 
HETATM   31  C24 UNL     1      25.022  -0.363  53.230  1.00  0.00     0.007 A 
HETATM   32  C23 UNL     1      25.912   0.494  52.622  1.00  0.00     0.009 A 
ENDBRANCH  25  26
ENDBRANCH  23  25
ENDBRANCH   1  23
TORSDOF 5
ENDMDL
MODEL 7
REMARK VINA RESULT:      -9.4      2.576      6.323
REMARK  5 active torsions:
REMARK  status: ('A' for Active; 'I' for Inactive)
REMARK    1  A    between atoms: C5_5  and  C6_6 
REMARK    2  A    between atoms: C6_6  and  N1_7 
REMARK    3  A    between atoms: N1_7  and  C7_8 
REMARK    4  A    between atoms: C12_13  and  N2_14 
REMARK    5  A    between atoms: N2_14  and  C13_15 
ROOT
HETATM    1  C7  UNL     1      19.817   1.374  49.834  1.00  0.00     0.030 A 
HETATM    2  C8  UNL     1      18.647   0.706  50.109  1.00  0.00     0.030 A 
HETATM    3  C9  UNL     1      18.377  -0.003  51.261  1.00  0.00     0.011 A 
HETATM    4  C10 UNL     1      19.405  -0.024  52.206  1.00  0.00    -0.035 A 
HETATM    5  C11 UNL     1      19.157  -0.776  53.489  1.00  0.00     0.050 C 
HETATM    6  C12 UNL     1      20.593   0.640  51.954  1.00  0.00     0.043 A 
HETATM    7  C22 UNL     1      20.795   1.320  50.800  1.00  0.00     0.059 A 
ENDROOT
BRANCH   6   8
HETATM    8  N2  UNL     1      21.504   0.515  53.030  1.00  0.00    -0.319 N 
HETATM    9  H14 UNL     1      21.126   0.156  53.960  1.00  0.00     0.169 HD
BRANCH   8  10
HETATM   10  C13 UNL     1      22.853   0.843  52.904  1.00  0.00     0.272 C 
HETATM   11  N3  UNL     1      23.118   2.103  53.073  1.00  0.00    -0.219 NA
HETATM   12  C14 UNL     1      24.454   2.644  52.983  1.00  0.00     0.123 C 
HETATM   13  C15 UNL     1      25.620   1.968  52.955  1.00  0.00     0.054 C 
HETATM   14  C16 UNL     1      25.949   0.552  53.003  1.00  0.00     0.097 C 
HETATM   15  C17 UNL     1      27.316   0.141  53.226  1.00  0.00     0.012 A 
HETATM   16  N5  UNL     1      25.049  -0.348  52.842  1.00  0.00    -0.124 NA
HETATM   17  C18 UNL     1      28.432   0.897  53.430  1.00  0.00     0.017 A 
HETATM   18  C21 UNL     1      27.540  -1.240  53.225  1.00  0.00     0.130 A 
HETATM   19  C19 UNL     1      29.677   0.316  53.618  1.00  0.00     0.020 A 
HETATM   20  C20 UNL     1      29.808  -1.060  53.602  1.00  0.00     0.116 A 
HETATM   21  N4  UNL     1      28.727  -1.836  53.403  1.00  0.00    -0.272 NA
HETATM   22  O1  UNL     1      23.704  -0.246  52.615  1.00  0.00    -0.174 OA
ENDBRANCH   8  10
ENDBRANCH   6   8
BRANCH   1  23
HETATM   23  N1  UNL     1      20.035   2.100  48.653  1.00  0.00    -0.386 N 
HETATM   24  H8  UNL     1      19.215   2.664  48.307  1.00  0.00     0.160 HD
BRANCH  23  25
HETATM   25  C6  UNL     1      21.133   2.286  47.752  1.00  0.00     0.158 C 
BRANCH  25  26
HETATM   26  C5  UNL     1      22.136   3.238  48.229  1.00  0.00    -0.041 A 
HETATM   27  C4  UNL     1      22.195   4.604  48.207  1.00  0.00     0.009 A 
HETATM   28  C3  UNL     1      23.243   5.316  48.736  1.00  0.00     0.007 A 
HETATM   29  C2  UNL     1      24.319   4.704  49.332  1.00  0.00    -0.062 A 
HETATM   30  C1  UNL     1      25.414   5.529  49.894  1.00  0.00     0.048 C 
HETATM   31  C24 UNL     1      24.301   3.314  49.377  1.00  0.00     0.007 A 
HETATM   32  C23 UNL     1      23.231   2.640  48.835  1.00  0.00     0.009 A 
ENDBRANCH  25  26
ENDBRANCH  23  25
ENDBRANCH   1  23
TORSDOF 5
ENDMDL
MODEL 8
REMARK VINA RESULT:      -9.3      1.997      7.054
REMARK  5 active torsions:
REMARK  status: ('A' for Active; 'I' for Inactive)
REMARK    1  A    between atoms: C5_5  and  C6_6 
REMARK    2  A    between atoms: C6_6  and  N1_7 
REMARK    3  A    between atoms: N1_7  and  C7_8 
REMARK    4  A    between atoms: C12_13  and  N2_14 
REMARK    5  A    between atoms: N2_14  and  C13_15 
ROOT
HETATM    1  C7  UNL     1      23.734   5.598  49.285  1.00  0.00     0.030 A 
HETATM    2  C8  UNL     1      22.437   5.610  48.828  1.00  0.00     0.030 A 
HETATM    3  C9  UNL     1      21.338   5.138  49.515  1.00  0.00     0.011 A 
HETATM    4  C10 UNL     1      21.602   4.610  50.781  1.00  0.00    -0.035 A 
HETATM    5  C11 UNL     1      20.433   4.092  51.578  1.00  0.00     0.050 C 
HETATM    6  C12 UNL     1      22.899   4.586  51.264  1.00  0.00     0.043 A 
HETATM    7  C22 UNL     1      23.937   5.066  50.538  1.00  0.00     0.059 A 
ENDROOT
BRANCH   6   8
HETATM    8  N2  UNL     1      22.966   4.027  52.563  1.00  0.00    -0.319 N 
HETATM    9  H14 UNL     1      22.472   4.548  53.352  1.00  0.00     0.169 HD
BRANCH   8  10
HETATM   10  C13 UNL     1      23.645   2.839  52.828  1.00  0.00     0.272 C 
HETATM   11  N3  UNL     1      23.009   1.764  52.471  1.00  0.00    -0.219 NA
HETATM   12  C14 UNL     1      23.544   0.436  52.660  1.00  0.00     0.123 C 
HETATM   13  C15 UNL     1      24.804   0.091  52.987  1.00  0.00     0.054 C 
HETATM   14  C16 UNL     1      26.009   0.861  53.252  1.00  0.00     0.097 C 
HETATM   15  C17 UNL     1      27.287   0.192  53.317  1.00  0.00     0.012 A 
HETATM   16  N5  UNL     1      25.962   2.129  53.439  1.00  0.00    -0.124 NA
HETATM   17  C18 UNL     1      27.593  -1.126  53.148  1.00  0.00     0.017 A 
HETATM   18  C21 UNL     1      28.384   1.011  53.607  1.00  0.00     0.130 A 
HETATM   19  C19 UNL     1      28.895  -1.589  53.259  1.00  0.00     0.020 A 
HETATM   20  C20 UNL     1      29.920  -0.708  53.550  1.00  0.00     0.116 A 
HETATM   21  N4  UNL     1      29.654   0.599  53.724  1.00  0.00    -0.272 NA
HETATM   22  O1  UNL     1      24.908   3.001  53.438  1.00  0.00    -0.174 OA
ENDBRANCH   8  10
ENDBRANCH   6   8
BRANCH   1  23
HETATM   23  N1  UNL     1      24.817   6.109  48.555  1.00  0.00    -0.386 N 
HETATM   24  H8  UNL     1      24.967   5.682  47.603  1.00  0.00     0.160 HD
BRANCH  23  25
HETATM   25  C6  UNL     1      25.820   7.109  48.772  1.00  0.00     0.158 C 
BRANCH  25  26
HETATM   26  C5  UNL     1      27.179   6.659  48.474  1.00  0.00    -0.041 A 
HETATM   27  C4  UNL     1      27.777   5.430  48.532  1.00  0.00     0.009 A 
HETATM   28  C3  UNL     1      29.089   5.219  48.185  1.00  0.00     0.007 A 
HETATM   29  C2  UNL     1      29.905   6.235  47.750  1.00  0.00    -0.062 A 
HETATM   30  C1  UNL     1      31.309   5.941  47.380  1.00  0.00     0.048 C 
HETATM   31  C24 UNL     1      29.338   7.503  47.675  1.00  0.00     0.007 A 
HETATM   32  C23 UNL     1      28.019   7.670  48.033  1.00  0.00     0.009 A 
ENDBRANCH  25  26
ENDBRANCH  23  25
ENDBRANCH   1  23
TORSDOF 5
ENDMDL
MODEL 9
REMARK VINA RESULT:      -9.2      2.945      8.787
REMARK  5 active torsions:
REMARK  status: ('A' for Active; 'I' for Inactive)
REMARK    1  A    between atoms: C5_5  and  C6_6 
REMARK    2  A    between atoms: C6_6  and  N1_7 
REMARK    3  A    between atoms: N1_7  and  C7_8 
REMARK    4  A    between atoms: C12_13  and  N2_14 
REMARK    5  A    between atoms: N2_14  and  C13_15 
ROOT
HETATM    1  C7  UNL     1      25.293   2.839  51.630  1.00  0.00     0.030 A 
HETATM    2  C8  UNL     1      26.458   2.131  51.449  1.00  0.00     0.030 A 
HETATM    3  C9  UNL     1      26.709   0.861  51.927  1.00  0.00     0.011 A 
HETATM    4  C10 UNL     1      25.669   0.276  52.652  1.00  0.00    -0.035 A 
HETATM    5  C11 UNL     1      25.889  -1.116  53.187  1.00  0.00     0.050 C 
HETATM    6  C12 UNL     1      24.487   0.968  52.849  1.00  0.00     0.043 A 
HETATM    7  C22 UNL     1      24.302   2.215  52.352  1.00  0.00     0.059 A 
ENDROOT
BRANCH   6   8
HETATM    8  N2  UNL     1      23.552   0.210  53.594  1.00  0.00    -0.319 N 
HETATM    9  H14 UNL     1      23.929  -0.424  54.364  1.00  0.00     0.169 HD
BRANCH   8  10
HETATM   10  C13 UNL     1      22.181   0.272  53.350  1.00  0.00     0.272 C 
HETATM   11  N3  UNL     1      21.827   1.184  52.495  1.00  0.00    -0.219 NA
HETATM   12  C14 UNL     1      20.454   1.408  52.108  1.00  0.00     0.123 C 
HETATM   13  C15 UNL     1      19.388   0.619  52.348  1.00  0.00     0.054 C 
HETATM   14  C16 UNL     1      19.228  -0.655  53.031  1.00  0.00     0.097 C 
HETATM   15  C17 UNL     1      17.993  -1.392  52.893  1.00  0.00     0.012 A 
HETATM   16  N5  UNL     1      20.161  -1.141  53.765  1.00  0.00    -0.124 NA
HETATM   17  C18 UNL     1      16.874  -1.093  52.173  1.00  0.00     0.017 A 
HETATM   18  C21 UNL     1      17.921  -2.590  53.611  1.00  0.00     0.130 A 
HETATM   19  C19 UNL     1      15.768  -1.930  52.171  1.00  0.00     0.020 A 
HETATM   20  C20 UNL     1      15.783  -3.097  52.912  1.00  0.00     0.116 A 
HETATM   21  N4  UNL     1      16.870  -3.422  53.633  1.00  0.00    -0.272 NA
HETATM   22  O1  UNL     1      21.407  -0.664  54.070  1.00  0.00    -0.174 OA
ENDBRANCH   8  10
ENDBRANCH   6   8
BRANCH   1  23
HETATM   23  N1  UNL     1      25.078   4.123  51.105  1.00  0.00    -0.386 N 
HETATM   24  H8  UNL     1      25.040   4.903  51.813  1.00  0.00     0.160 HD
BRANCH  23  25
HETATM   25  C6  UNL     1      24.891   4.678  49.798  1.00  0.00     0.158 C 
BRANCH  25  26
HETATM   26  C5  UNL     1      26.124   5.165  49.180  1.00  0.00    -0.041 A 
HETATM   27  C4  UNL     1      27.313   4.555  48.890  1.00  0.00     0.009 A 
HETATM   28  C3  UNL     1      28.358   5.205  48.280  1.00  0.00     0.007 A 
HETATM   29  C2  UNL     1      28.284   6.526  47.911  1.00  0.00    -0.062 A 
HETATM   30  C1  UNL     1      29.443   7.168  47.246  1.00  0.00     0.048 C 
HETATM   31  C24 UNL     1      27.092   7.187  48.187  1.00  0.00     0.007 A 
HETATM   32  C23 UNL     1      26.071   6.497  48.800  1.00  0.00     0.009 A 
ENDBRANCH  25  26
ENDBRANCH  23  25
ENDBRANCH   1  23
TORSDOF 5
ENDMDL
