MODEL 1
REMARK VINA RESULT:      -7.0      0.000      0.000
REMARK  9 active torsions:
REMARK  status: ('A' for Active; 'I' for Inactive)
REMARK    1  A    between atoms: O1_2  and  C2_3 
REMARK    2  A    between atoms: C4_5  and  N1_6 
REMARK    3  A    between atoms: N1_6  and  C5_7 
REMARK    4  A    between atoms: C6_8  and  C7_9 
REMARK    5  A    between atoms: C7_9  and  O2_10 
REMARK    6  A    between atoms: C9_12  and  C10_13 
REMARK    7  A    between atoms: C12_15  and  N2_16 
REMARK    8  A    between atoms: C15_20  and  P1_21 
REMARK    9  A    between atoms: C16_22  and  O3_23 
ROOT
HETATM    1  C2  UNL     1      23.120   3.209  51.331  1.00  0.00     0.104 C 
HETATM    2  C3  UNL     1      24.332   3.475  50.726  1.00  0.00     0.072 C 
HETATM    3  C4  UNL     1      25.475   2.702  50.690  1.00  0.00     0.070 C 
HETATM    4  C8  UNL     1      25.777   1.698  51.615  1.00  0.00     0.041 C 
HETATM    5  C9  UNL     1      24.991   1.040  52.578  1.00  0.00    -0.031 C 
HETATM    6  C15 UNL     1      23.613   1.097  52.588  1.00  0.00     0.007 C 
HETATM    7  C16 UNL     1      22.788   2.139  52.171  1.00  0.00     0.112 C 
ENDROOT
BRANCH   5   8
HETATM    8  C10 UNL     1      25.701   0.284  53.589  1.00  0.00     0.069 A 
HETATM    9  C11 UNL     1      26.534   0.987  54.545  1.00  0.00     0.017 A 
HETATM   10  C12 UNL     1      27.764   0.441  54.451  1.00  0.00     0.044 A 
HETATM   11  C13 UNL     1      27.789  -0.604  53.459  1.00  0.00     0.057 A 
HETATM   12 CL1  UNL     1      29.185  -1.577  53.012  1.00  0.00    -0.082 Cl
HETATM   13  C14 UNL     1      26.593  -0.732  52.923  1.00  0.00     0.013 A 
BRANCH  10  14
HETATM   14  N2  UNL     1      28.831   0.915  55.271  1.00  0.00    -0.398 N 
HETATM   15  H11 UNL     1      28.843   1.498  56.160  1.00  0.00     0.156 HD
HETATM   16  H12 UNL     1      29.861   0.805  55.196  1.00  0.00     0.156 HD
ENDBRANCH  10  14
ENDBRANCH   5   8
BRANCH   6  17
HETATM   17  P1  UNL     1      22.834  -0.417  53.241  1.00  0.00    -0.103 P 
HETATM   18  H14 UNL     1      23.063  -0.579  54.661  1.00  0.00     0.059 HD
HETATM   19  H15 UNL     1      21.396  -0.328  53.039  1.00  0.00     0.059 HD
ENDBRANCH   6  17
BRANCH   3  20
HETATM   20  N1  UNL     1      26.327   2.910  49.744  1.00  0.00    -0.198 NA
BRANCH  20  21
HETATM   21  C5  UNL     1      26.628   4.192  49.275  1.00  0.00     0.037 C 
HETATM   22  C6  UNL     1      26.871   5.303  48.876  1.00  0.00    -0.056 C 
BRANCH  22  23
HETATM   23  C7  UNL     1      27.172   6.646  48.369  1.00  0.00     0.259 C 
BRANCH  23  24
HETATM   24  O2  UNL     1      28.030   7.265  49.281  1.00  0.00    -0.389 OA
HETATM   25  H7  UNL     1      28.937   7.372  48.889  1.00  0.00     0.210 HD
ENDBRANCH  23  24
ENDBRANCH  22  23
ENDBRANCH  20  21
ENDBRANCH   3  20
BRANCH   7  26
HETATM   26  O3  UNL     1      21.494   2.053  52.685  1.00  0.00    -0.352 OA
HETATM   27  C17 UNL     1      20.439   1.659  51.799  1.00  0.00     0.210 C 
ENDBRANCH   7  26
BRANCH   1  28
HETATM   28  O1  UNL     1      22.071   4.089  51.100  1.00  0.00    -0.353 OA
HETATM   29  C1  UNL     1      22.235   5.431  51.519  1.00  0.00     0.210 C 
ENDBRANCH   1  28
TORSDOF 9
ENDMDL
MODEL 2
REMARK VINA RESULT:      -6.8      3.334      5.971
REMARK  9 active torsions:
REMARK  status: ('A' for Active; 'I' for Inactive)
REMARK    1  A    between atoms: O1_2  and  C2_3 
REMARK    2  A    between atoms: C4_5  and  N1_6 
REMARK    3  A    between atoms: N1_6  and  C5_7 
REMARK    4  A    between atoms: C6_8  and  C7_9 
REMARK    5  A    between atoms: C7_9  and  O2_10 
REMARK    6  A    between atoms: C9_12  and  C10_13 
REMARK    7  A    between atoms: C12_15  and  N2_16 
REMARK    8  A    between atoms: C15_20  and  P1_21 
REMARK    9  A    between atoms: C16_22  and  O3_23 
ROOT
HETATM    1  C2  UNL     1      23.302   0.103  53.215  1.00  0.00     0.104 C 
HETATM    2  C3  UNL     1      24.671   0.055  53.389  1.00  0.00     0.072 C 
HETATM    3  C4  UNL     1      25.623   1.000  53.064  1.00  0.00     0.070 C 
HETATM    4  C8  UNL     1      25.443   2.005  52.109  1.00  0.00     0.041 C 
HETATM    5  C9  UNL     1      24.292   2.495  51.465  1.00  0.00    -0.031 C 
HETATM    6  C15 UNL     1      23.014   2.220  51.902  1.00  0.00     0.007 C 
HETATM    7  C16 UNL     1      22.548   1.076  52.547  1.00  0.00     0.112 C 
ENDROOT
BRANCH   5   8
HETATM    8  C10 UNL     1      24.505   3.316  50.292  1.00  0.00     0.069 A 
HETATM    9  C11 UNL     1      25.752   3.199  49.561  1.00  0.00     0.017 A 
HETATM   10  C12 UNL     1      26.280   4.440  49.510  1.00  0.00     0.044 A 
HETATM   11  C13 UNL     1      25.432   5.388  50.187  1.00  0.00     0.057 A 
HETATM   12 CL1  UNL     1      25.737   7.112  50.362  1.00  0.00    -0.082 Cl
HETATM   13  C14 UNL     1      24.372   4.771  50.665  1.00  0.00     0.013 A 
BRANCH  10  14
HETATM   14  N2  UNL     1      27.524   4.671  48.851  1.00  0.00    -0.398 N 
HETATM   15  H11 UNL     1      28.522   4.396  49.094  1.00  0.00     0.156 HD
HETATM   16  H12 UNL     1      27.758   5.169  47.970  1.00  0.00     0.156 HD
ENDBRANCH  10  14
ENDBRANCH   5   8
BRANCH   6  17
HETATM   17  P1  UNL     1      21.831   3.567  51.564  1.00  0.00    -0.103 P 
HETATM   18  H14 UNL     1      22.296   4.450  50.516  1.00  0.00     0.059 HD
HETATM   19  H15 UNL     1      20.575   2.985  51.117  1.00  0.00     0.059 HD
ENDBRANCH   6  17
BRANCH   3  20
HETATM   20  N1  UNL     1      26.757   0.965  53.678  1.00  0.00    -0.198 NA
BRANCH  20  21
HETATM   21  C5  UNL     1      27.648  -0.104  53.543  1.00  0.00     0.037 C 
HETATM   22  C6  UNL     1      28.415  -1.024  53.409  1.00  0.00    -0.056 C 
BRANCH  22  23
HETATM   23  C7  UNL     1      29.335  -2.156  53.260  1.00  0.00     0.259 C 
BRANCH  23  24
HETATM   24  O2  UNL     1      28.583  -3.332  53.332  1.00  0.00    -0.389 OA
HETATM   25  H7  UNL     1      27.674  -3.143  53.686  1.00  0.00     0.210 HD
ENDBRANCH  23  24
ENDBRANCH  22  23
ENDBRANCH  20  21
ENDBRANCH   3  20
BRANCH   7  26
HETATM   26  O3  UNL     1      21.161   0.938  52.483  1.00  0.00    -0.352 OA
HETATM   27  C17 UNL     1      20.596   0.299  51.332  1.00  0.00     0.210 C 
ENDBRANCH   7  26
BRANCH   1  28
HETATM   28  O1  UNL     1      22.541  -0.922  53.759  1.00  0.00    -0.353 OA
HETATM   29  C1  UNL     1      22.770  -1.264  55.114  1.00  0.00     0.210 C 
ENDBRANCH   1  28
TORSDOF 9
ENDMDL
MODEL 3
REMARK VINA RESULT:      -6.8      1.489      1.919
REMARK  9 active torsions:
REMARK  status: ('A' for Active; 'I' for Inactive)
REMARK    1  A    between atoms: O1_2  and  C2_3 
REMARK    2  A    between atoms: C4_5  and  N1_6 
REMARK    3  A    between atoms: N1_6  and  C5_7 
REMARK    4  A    between atoms: C6_8  and  C7_9 
REMARK    5  A    between atoms: C7_9  and  O2_10 
REMARK    6  A    between atoms: C9_12  and  C10_13 
REMARK    7  A    between atoms: C12_15  and  N2_16 
REMARK    8  A    between atoms: C15_20  and  P1_21 
REMARK    9  A    between atoms: C16_22  and  O3_23 
ROOT
HETATM    1  C2  UNL     1      23.969   4.526  49.836  1.00  0.00     0.104 C 
HETATM    2  C3  UNL     1      25.302   4.601  49.486  1.00  0.00     0.072 C 
HETATM    3  C4  UNL     1      26.321   3.705  49.742  1.00  0.00     0.070 C 
HETATM    4  C8  UNL     1      26.299   2.760  50.771  1.00  0.00     0.041 C 
HETATM    5  C9  UNL     1      25.257   2.280  51.585  1.00  0.00    -0.031 C 
HETATM    6  C15 UNL     1      23.925   2.491  51.299  1.00  0.00     0.007 C 
HETATM    7  C16 UNL     1      23.340   3.578  50.653  1.00  0.00     0.112 C 
ENDROOT
BRANCH   5   8
HETATM    8  C10 UNL     1      25.646   1.542  52.769  1.00  0.00     0.069 A 
HETATM    9  C11 UNL     1      26.543   2.159  53.726  1.00  0.00     0.017 A 
HETATM   10  C12 UNL     1      27.588   1.317  53.865  1.00  0.00     0.044 A 
HETATM   11  C13 UNL     1      27.427   0.155  53.028  1.00  0.00     0.057 A 
HETATM   12 CL1  UNL     1      28.551  -1.192  52.896  1.00  0.00    -0.082 Cl
HETATM   13  C14 UNL     1      26.295   0.244  52.362  1.00  0.00     0.013 A 
BRANCH  10  14
HETATM   14  N2  UNL     1      28.663   1.635  54.748  1.00  0.00    -0.398 N 
HETATM   15  H11 UNL     1      29.678   1.320  54.779  1.00  0.00     0.156 HD
HETATM   16  H12 UNL     1      28.713   2.254  55.580  1.00  0.00     0.156 HD
ENDBRANCH  10  14
ENDBRANCH   5   8
BRANCH   6  17
HETATM   17  P1  UNL     1      22.844   1.136  51.867  1.00  0.00    -0.103 P 
HETATM   18  H14 UNL     1      23.564  -0.110  52.018  1.00  0.00     0.059 HD
HETATM   19  H15 UNL     1      22.301   1.486  53.171  1.00  0.00     0.059 HD
ENDBRANCH   6  17
BRANCH   3  20
HETATM   20  N1  UNL     1      27.367   3.733  48.987  1.00  0.00    -0.198 NA
BRANCH  20  21
HETATM   21  C5  UNL     1      27.981   4.929  48.602  1.00  0.00     0.037 C 
HETATM   22  C6  UNL     1      28.516   5.962  48.286  1.00  0.00    -0.056 C 
BRANCH  22  23
HETATM   23  C7  UNL     1      29.147   7.226  47.894  1.00  0.00     0.259 C 
BRANCH  23  24
HETATM   24  O2  UNL     1      29.545   7.886  49.059  1.00  0.00    -0.389 OA
HETATM   25  H7  UNL     1      28.808   7.890  49.726  1.00  0.00     0.210 HD
ENDBRANCH  23  24
ENDBRANCH  22  23
ENDBRANCH  20  21
ENDBRANCH   3  20
BRANCH   7  26
HETATM   26  O3  UNL     1      21.969   3.681  50.885  1.00  0.00    -0.352 OA
HETATM   27  C17 UNL     1      21.525   4.517  51.960  1.00  0.00     0.210 C 
ENDBRANCH   7  26
BRANCH   1  28
HETATM   28  O1  UNL     1      23.109   5.493  49.333  1.00  0.00    -0.353 OA
HETATM   29  C1  UNL     1      23.521   6.203  48.180  1.00  0.00     0.210 C 
ENDBRANCH   1  28
TORSDOF 9
ENDMDL
MODEL 4
REMARK VINA RESULT:      -6.6      3.818      5.794
REMARK  9 active torsions:
REMARK  status: ('A' for Active; 'I' for Inactive)
REMARK    1  A    between atoms: O1_2  and  C2_3 
REMARK    2  A    between atoms: C4_5  and  N1_6 
REMARK    3  A    between atoms: N1_6  and  C5_7 
REMARK    4  A    between atoms: C6_8  and  C7_9 
REMARK    5  A    between atoms: C7_9  and  O2_10 
REMARK    6  A    between atoms: C9_12  and  C10_13 
REMARK    7  A    between atoms: C12_15  and  N2_16 
REMARK    8  A    between atoms: C15_20  and  P1_21 
REMARK    9  A    between atoms: C16_22  and  O3_23 
ROOT
HETATM    1  C2  UNL     1      25.221   1.929  53.482  1.00  0.00     0.104 C 
HETATM    2  C3  UNL     1      24.783   3.161  53.039  1.00  0.00     0.072 C 
HETATM    3  C4  UNL     1      23.537   3.524  52.568  1.00  0.00     0.070 C 
HETATM    4  C8  UNL     1      22.601   2.629  52.043  1.00  0.00     0.041 C 
HETATM    5  C9  UNL     1      22.517   1.226  52.083  1.00  0.00    -0.031 C 
HETATM    6  C15 UNL     1      23.265   0.454  52.947  1.00  0.00     0.007 C 
HETATM    7  C16 UNL     1      24.543   0.705  53.444  1.00  0.00     0.112 C 
ENDROOT
BRANCH   5   8
HETATM    8  C10 UNL     1      21.594   0.604  51.157  1.00  0.00     0.069 A 
HETATM    9  C11 UNL     1      21.597   1.019  49.767  1.00  0.00     0.017 A 
HETATM   10  C12 UNL     1      20.334   1.401  49.482  1.00  0.00     0.044 A 
HETATM   11  C13 UNL     1      19.482   1.263  50.636  1.00  0.00     0.057 A 
HETATM   12 CL1  UNL     1      17.767   1.648  50.710  1.00  0.00    -0.082 Cl
HETATM   13  C14 UNL     1      20.182   0.796  51.648  1.00  0.00     0.013 A 
BRANCH  10  14
HETATM   14  N2  UNL     1      19.997   1.871  48.178  1.00  0.00    -0.398 N 
HETATM   15  H11 UNL     1      19.088   2.238  47.764  1.00  0.00     0.156 HD
HETATM   16  H12 UNL     1      20.560   1.966  47.310  1.00  0.00     0.156 HD
ENDBRANCH  10  14
ENDBRANCH   5   8
BRANCH   6  17
HETATM   17  P1  UNL     1      22.417  -1.074  53.467  1.00  0.00    -0.103 P 
HETATM   18  H14 UNL     1      22.970  -2.249  52.828  1.00  0.00     0.059 HD
HETATM   19  H15 UNL     1      22.587  -1.239  54.902  1.00  0.00     0.059 HD
ENDBRANCH   6  17
BRANCH   3  20
HETATM   20  N1  UNL     1      23.203   4.770  52.613  1.00  0.00    -0.198 NA
BRANCH  20  21
HETATM   21  C5  UNL     1      23.846   5.746  51.846  1.00  0.00     0.037 C 
HETATM   22  C6  UNL     1      24.388   6.598  51.188  1.00  0.00    -0.056 C 
BRANCH  22  23
HETATM   23  C7  UNL     1      25.045   7.623  50.371  1.00  0.00     0.259 C 
BRANCH  23  24
HETATM   24  O2  UNL     1      26.361   7.752  50.822  1.00  0.00    -0.389 OA
HETATM   25  H7  UNL     1      26.708   8.663  50.629  1.00  0.00     0.210 HD
ENDBRANCH  23  24
ENDBRANCH  22  23
ENDBRANCH  20  21
ENDBRANCH   3  20
BRANCH   7  26
HETATM   26  O3  UNL     1      25.168  -0.437  53.947  1.00  0.00    -0.352 OA
HETATM   27  C17 UNL     1      26.075  -1.144  53.093  1.00  0.00     0.210 C 
ENDBRANCH   7  26
BRANCH   1  28
HETATM   28  O1  UNL     1      26.488   1.853  54.044  1.00  0.00    -0.353 OA
HETATM   29  C1  UNL     1      27.590   2.212  53.231  1.00  0.00     0.210 C 
ENDBRANCH   1  28
TORSDOF 9
ENDMDL
MODEL 5
REMARK VINA RESULT:      -6.6      3.044      4.749
REMARK  9 active torsions:
REMARK  status: ('A' for Active; 'I' for Inactive)
REMARK    1  A    between atoms: O1_2  and  C2_3 
REMARK    2  A    between atoms: C4_5  and  N1_6 
REMARK    3  A    between atoms: N1_6  and  C5_7 
REMARK    4  A    between atoms: C6_8  and  C7_9 
REMARK    5  A    between atoms: C7_9  and  O2_10 
REMARK    6  A    between atoms: C9_12  and  C10_13 
REMARK    7  A    between atoms: C12_15  and  N2_16 
REMARK    8  A    between atoms: C15_20  and  P1_21 
REMARK    9  A    between atoms: C16_22  and  O3_23 
ROOT
HETATM    1  C2  UNL     1      23.752   4.374  50.355  1.00  0.00     0.104 C 
HETATM    2  C3  UNL     1      24.923   3.993  50.978  1.00  0.00     0.072 C 
HETATM    3  C4  UNL     1      25.330   2.733  51.371  1.00  0.00     0.070 C 
HETATM    4  C8  UNL     1      24.463   1.663  51.607  1.00  0.00     0.041 C 
HETATM    5  C9  UNL     1      23.109   1.461  51.285  1.00  0.00    -0.031 C 
HETATM    6  C15 UNL     1      22.429   2.244  50.376  1.00  0.00     0.007 C 
HETATM    7  C16 UNL     1      22.623   3.592  50.080  1.00  0.00     0.112 C 
ENDROOT
BRANCH   5   8
HETATM    8  C10 UNL     1      22.434   0.376  51.967  1.00  0.00     0.069 A 
HETATM    9  C11 UNL     1      21.288   0.669  52.806  1.00  0.00     0.017 A 
HETATM   10  C12 UNL     1      21.570   0.162  54.025  1.00  0.00     0.044 A 
HETATM   11  C13 UNL     1      22.870  -0.460  54.035  1.00  0.00     0.057 A 
HETATM   12 CL1  UNL     1      23.634  -1.243  55.412  1.00  0.00    -0.082 Cl
HETATM   13  C14 UNL     1      23.418  -0.357  52.842  1.00  0.00     0.013 A 
BRANCH  10  14
HETATM   14  N2  UNL     1      20.634   0.284  55.094  1.00  0.00    -0.398 N 
HETATM   15  H11 UNL     1      19.862  -0.360  55.444  1.00  0.00     0.156 HD
HETATM   16  H12 UNL     1      20.477   1.035  55.793  1.00  0.00     0.156 HD
ENDBRANCH  10  14
ENDBRANCH   5   8
BRANCH   6  17
HETATM   17  P1  UNL     1      21.124   1.339  49.479  1.00  0.00    -0.103 P 
HETATM   18  H14 UNL     1      21.625   0.708  48.277  1.00  0.00     0.059 HD
HETATM   19  H15 UNL     1      20.609   0.285  50.341  1.00  0.00     0.059 HD
ENDBRANCH   6  17
BRANCH   3  20
HETATM   20  N1  UNL     1      26.592   2.519  51.532  1.00  0.00    -0.198 NA
BRANCH  20  21
HETATM   21  C5  UNL     1      27.083   1.622  52.485  1.00  0.00     0.037 C 
HETATM   22  C6  UNL     1      27.496   0.855  53.318  1.00  0.00    -0.056 C 
BRANCH  22  23
HETATM   23  C7  UNL     1      28.020  -0.070  54.328  1.00  0.00     0.259 C 
BRANCH  23  24
HETATM   24  O2  UNL     1      26.987  -0.354  55.225  1.00  0.00    -0.389 OA
HETATM   25  H7  UNL     1      26.584  -1.240  55.024  1.00  0.00     0.210 HD
ENDBRANCH  23  24
ENDBRANCH  22  23
ENDBRANCH  20  21
ENDBRANCH   3  20
BRANCH   7  26
HETATM   26  O3  UNL     1      21.531   4.174  49.436  1.00  0.00    -0.352 OA
HETATM   27  C17 UNL     1      20.533   4.813  50.241  1.00  0.00     0.210 C 
ENDBRANCH   7  26
BRANCH   1  28
HETATM   28  O1  UNL     1      23.640   5.691  49.931  1.00  0.00    -0.353 OA
HETATM   29  C1  UNL     1      23.733   6.708  50.912  1.00  0.00     0.210 C 
ENDBRANCH   1  28
TORSDOF 9
ENDMDL
MODEL 6
REMARK VINA RESULT:      -6.5      4.379      7.397
REMARK  9 active torsions:
REMARK  status: ('A' for Active; 'I' for Inactive)
REMARK    1  A    between atoms: O1_2  and  C2_3 
REMARK    2  A    between atoms: C4_5  and  N1_6 
REMARK    3  A    between atoms: N1_6  and  C5_7 
REMARK    4  A    between atoms: C6_8  and  C7_9 
REMARK    5  A    between atoms: C7_9  and  O2_10 
REMARK    6  A    between atoms: C9_12  and  C10_13 
REMARK    7  A    between atoms: C12_15  and  N2_16 
REMARK    8  A    between atoms: C15_20  and  P1_21 
REMARK    9  A    between atoms: C16_22  and  O3_23 
ROOT
HETATM    1  C2  UNL     1      23.233  -0.005  53.272  1.00  0.00     0.104 C 
HETATM    2  C3  UNL     1      22.001   0.173  52.674  1.00  0.00     0.072 C 
HETATM    3  C4  UNL     1      21.667   0.957  51.588  1.00  0.00     0.070 C 
HETATM    4  C8  UNL     1      22.413   2.054  51.149  1.00  0.00     0.041 C 
HETATM    5  C9  UNL     1      23.720   2.482  51.446  1.00  0.00    -0.031 C 
HETATM    6  C15 UNL     1      24.650   1.676  52.068  1.00  0.00     0.007 C 
HETATM    7  C16 UNL     1      24.431   0.668  53.005  1.00  0.00     0.112 C 
ENDROOT
BRANCH   5   8
HETATM    8  C10 UNL     1      24.061   3.838  51.068  1.00  0.00     0.069 A 
HETATM    9  C11 UNL     1      23.495   4.945  51.815  1.00  0.00     0.017 A 
HETATM   10  C12 UNL     1      22.868   5.731  50.915  1.00  0.00     0.044 A 
HETATM   11  C13 UNL     1      22.988   5.186  49.586  1.00  0.00     0.057 A 
HETATM   12 CL1  UNL     1      22.321   5.884  48.115  1.00  0.00    -0.082 Cl
HETATM   13  C14 UNL     1      23.684   4.069  49.627  1.00  0.00     0.013 A 
BRANCH  10  14
HETATM   14  N2  UNL     1      22.200   6.920  51.332  1.00  0.00    -0.398 N 
HETATM   15  H11 UNL     1      22.053   7.860  50.856  1.00  0.00     0.156 HD
HETATM   16  H12 UNL     1      21.694   7.158  52.207  1.00  0.00     0.156 HD
ENDBRANCH  10  14
ENDBRANCH   5   8
BRANCH   6  17
HETATM   17  P1  UNL     1      26.364   2.026  51.556  1.00  0.00    -0.103 P 
HETATM   18  H14 UNL     1      26.509   2.053  50.116  1.00  0.00     0.059 HD
HETATM   19  H15 UNL     1      26.744   3.339  52.055  1.00  0.00     0.059 HD
ENDBRANCH   6  17
BRANCH   3  20
HETATM   20  N1  UNL     1      20.597   0.667  50.928  1.00  0.00    -0.198 NA
BRANCH  20  21
HETATM   21  C5  UNL     1      19.464   0.123  51.539  1.00  0.00     0.037 C 
HETATM   22  C6  UNL     1      18.487  -0.359  52.054  1.00  0.00    -0.056 C 
BRANCH  22  23
HETATM   23  C7  UNL     1      17.287  -0.925  52.679  1.00  0.00     0.259 C 
BRANCH  23  24
HETATM   24  O2  UNL     1      17.588  -1.199  54.015  1.00  0.00    -0.389 OA
HETATM   25  H7  UNL     1      18.182  -0.496  54.390  1.00  0.00     0.210 HD
ENDBRANCH  23  24
ENDBRANCH  22  23
ENDBRANCH  20  21
ENDBRANCH   3  20
BRANCH   7  26
HETATM   26  O3  UNL     1      25.576   0.337  53.730  1.00  0.00    -0.352 OA
HETATM   27  C17 UNL     1      26.261  -0.876  53.395  1.00  0.00     0.210 C 
ENDBRANCH   7  26
BRANCH   1  28
HETATM   28  O1  UNL     1      23.338  -0.966  54.269  1.00  0.00    -0.353 OA
HETATM   29  C1  UNL     1      22.138  -1.467  54.828  1.00  0.00     0.210 C 
ENDBRANCH   1  28
TORSDOF 9
ENDMDL
MODEL 7
REMARK VINA RESULT:      -6.4      4.915      8.561
REMARK  9 active torsions:
REMARK  status: ('A' for Active; 'I' for Inactive)
REMARK    1  A    between atoms: O1_2  and  C2_3 
REMARK    2  A    between atoms: C4_5  and  N1_6 
REMARK    3  A    between atoms: N1_6  and  C5_7 
REMARK    4  A    between atoms: C6_8  and  C7_9 
REMARK    5  A    between atoms: C7_9  and  O2_10 
REMARK    6  A    between atoms: C9_12  and  C10_13 
REMARK    7  A    between atoms: C12_15  and  N2_16 
REMARK    8  A    between atoms: C15_20  and  P1_21 
REMARK    9  A    between atoms: C16_22  and  O3_23 
ROOT
HETATM    1  C2  UNL     1      27.908   7.950  48.485  1.00  0.00     0.104 C 
HETATM    2  C3  UNL     1      27.487   6.643  48.339  1.00  0.00     0.072 C 
HETATM    3  C4  UNL     1      28.220   5.477  48.437  1.00  0.00     0.070 C 
HETATM    4  C8  UNL     1      29.606   5.401  48.277  1.00  0.00     0.041 C 
HETATM    5  C9  UNL     1      30.606   6.390  48.256  1.00  0.00    -0.031 C 
HETATM    6  C15 UNL     1      30.392   7.681  48.691  1.00  0.00     0.007 C 
HETATM    7  C16 UNL     1      29.215   8.425  48.644  1.00  0.00     0.112 C 
ENDROOT
BRANCH   5   8
HETATM    8  C10 UNL     1      31.901   5.994  47.743  1.00  0.00     0.069 A 
HETATM    9  C11 UNL     1      32.107   5.935  46.309  1.00  0.00     0.017 A 
HETATM   10  C12 UNL     1      32.537   4.685  46.038  1.00  0.00     0.044 A 
HETATM   11  C13 UNL     1      32.622   3.898  47.243  1.00  0.00     0.057 A 
HETATM   12 CL1  UNL     1      33.136   2.219  47.350  1.00  0.00    -0.082 Cl
HETATM   13  C14 UNL     1      32.256   4.629  48.274  1.00  0.00     0.013 A 
BRANCH  10  14
HETATM   14  N2  UNL     1      32.835   4.295  44.698  1.00  0.00    -0.398 N 
HETATM   15  H11 UNL     1      32.311   3.691  43.998  1.00  0.00     0.156 HD
HETATM   16  H12 UNL     1      33.642   4.509  44.080  1.00  0.00     0.156 HD
ENDBRANCH  10  14
ENDBRANCH   5   8
BRANCH   6  17
HETATM   17  P1  UNL     1      31.880   8.455  49.408  1.00  0.00    -0.103 P 
HETATM   18  H14 UNL     1      32.378   7.722  50.552  1.00  0.00     0.059 HD
HETATM   19  H15 UNL     1      32.933   8.464  48.404  1.00  0.00     0.059 HD
ENDBRANCH   6  17
BRANCH   3  20
HETATM   20  N1  UNL     1      27.593   4.379  48.694  1.00  0.00    -0.198 NA
BRANCH  20  21
HETATM   21  C5  UNL     1      26.401   4.350  49.423  1.00  0.00     0.037 C 
HETATM   22  C6  UNL     1      25.381   4.318  50.065  1.00  0.00    -0.056 C 
BRANCH  22  23
HETATM   23  C7  UNL     1      24.130   4.268  50.829  1.00  0.00     0.259 C 
BRANCH  23  24
HETATM   24  O2  UNL     1      24.349   4.906  52.052  1.00  0.00    -0.389 OA
HETATM   25  H7  UNL     1      25.305   4.836  52.315  1.00  0.00     0.210 HD
ENDBRANCH  23  24
ENDBRANCH  22  23
ENDBRANCH  20  21
ENDBRANCH   3  20
BRANCH   7  26
HETATM   26  O3  UNL     1      29.430   9.798  48.776  1.00  0.00    -0.352 OA
HETATM   27  C17 UNL     1      29.562  10.580  47.583  1.00  0.00     0.210 C 
ENDBRANCH   7  26
BRANCH   1  28
HETATM   28  O1  UNL     1      26.943   8.948  48.481  1.00  0.00    -0.353 OA
HETATM   29  C1  UNL     1      26.107   9.059  49.618  1.00  0.00     0.210 C 
ENDBRANCH   1  28
TORSDOF 9
ENDMDL
MODEL 8
REMARK VINA RESULT:      -6.3      6.159      8.698
REMARK  9 active torsions:
REMARK  status: ('A' for Active; 'I' for Inactive)
REMARK    1  A    between atoms: O1_2  and  C2_3 
REMARK    2  A    between atoms: C4_5  and  N1_6 
REMARK    3  A    between atoms: N1_6  and  C5_7 
REMARK    4  A    between atoms: C6_8  and  C7_9 
REMARK    5  A    between atoms: C7_9  and  O2_10 
REMARK    6  A    between atoms: C9_12  and  C10_13 
REMARK    7  A    between atoms: C12_15  and  N2_16 
REMARK    8  A    between atoms: C15_20  and  P1_21 
REMARK    9  A    between atoms: C16_22  and  O3_23 
ROOT
HETATM    1  C2  UNL     1      30.204   8.513  47.961  1.00  0.00     0.104 C 
HETATM    2  C3  UNL     1      30.594   7.224  48.264  1.00  0.00     0.072 C 
HETATM    3  C4  UNL     1      29.860   6.056  48.207  1.00  0.00     0.070 C 
HETATM    4  C8  UNL     1      28.465   5.999  48.245  1.00  0.00     0.041 C 
HETATM    5  C9  UNL     1      27.479   6.989  48.082  1.00  0.00    -0.031 C 
HETATM    6  C15 UNL     1      27.746   8.234  47.553  1.00  0.00     0.007 C 
HETATM    7  C16 UNL     1      28.922   8.976  47.639  1.00  0.00     0.112 C 
ENDROOT
BRANCH   5   8
HETATM    8  C10 UNL     1      26.138   6.646  48.509  1.00  0.00     0.069 A 
HETATM    9  C11 UNL     1      25.542   7.362  49.620  1.00  0.00     0.017 A 
HETATM   10  C12 UNL     1      25.180   6.428  50.524  1.00  0.00     0.044 A 
HETATM   11  C13 UNL     1      25.517   5.106  50.060  1.00  0.00     0.057 A 
HETATM   12 CL1  UNL     1      25.225   3.599  50.920  1.00  0.00    -0.082 Cl
HETATM   13  C14 UNL     1      26.085   5.185  48.875  1.00  0.00     0.013 A 
BRANCH  10  14
HETATM   14  N2  UNL     1      24.556   6.808  51.749  1.00  0.00    -0.398 N 
HETATM   15  H11 UNL     1      24.167   7.737  52.093  1.00  0.00     0.156 HD
HETATM   16  H12 UNL     1      24.330   6.268  52.607  1.00  0.00     0.156 HD
ENDBRANCH  10  14
ENDBRANCH   5   8
BRANCH   6  17
HETATM   17  P1  UNL     1      26.339   8.943  46.634  1.00  0.00    -0.103 P 
HETATM   18  H14 UNL     1      25.235   9.285  47.506  1.00  0.00     0.059 HD
HETATM   19  H15 UNL     1      26.775  10.169  45.984  1.00  0.00     0.059 HD
ENDBRANCH   6  17
BRANCH   3  20
HETATM   20  N1  UNL     1      30.495   4.937  48.109  1.00  0.00    -0.198 NA
BRANCH  20  21
HETATM   21  C5  UNL     1      31.890   4.869  48.056  1.00  0.00     0.037 C 
HETATM   22  C6  UNL     1      33.092   4.798  48.000  1.00  0.00    -0.056 C 
BRANCH  22  23
HETATM   23  C7  UNL     1      34.555   4.708  47.954  1.00  0.00     0.259 C 
BRANCH  23  24
HETATM   24  O2  UNL     1      34.946   3.652  48.779  1.00  0.00    -0.389 OA
HETATM   25  H7  UNL     1      35.936   3.562  48.785  1.00  0.00     0.210 HD
ENDBRANCH  23  24
ENDBRANCH  22  23
ENDBRANCH  20  21
ENDBRANCH   3  20
BRANCH   7  26
HETATM   26  O3  UNL     1      28.737  10.331  47.363  1.00  0.00    -0.352 OA
HETATM   27  C17 UNL     1      28.540  11.225  48.465  1.00  0.00     0.210 C 
ENDBRANCH   7  26
BRANCH   1  28
HETATM   28  O1  UNL     1      31.176   9.504  47.963  1.00  0.00    -0.353 OA
HETATM   29  C1  UNL     1      32.523   9.104  47.790  1.00  0.00     0.210 C 
ENDBRANCH   1  28
TORSDOF 9
ENDMDL
MODEL 9
REMARK VINA RESULT:      -6.2      4.182      5.472
REMARK  9 active torsions:
REMARK  status: ('A' for Active; 'I' for Inactive)
REMARK    1  A    between atoms: O1_2  and  C2_3 
REMARK    2  A    between atoms: C4_5  and  N1_6 
REMARK    3  A    between atoms: N1_6  and  C5_7 
REMARK    4  A    between atoms: C6_8  and  C7_9 
REMARK    5  A    between atoms: C7_9  and  O2_10 
REMARK    6  A    between atoms: C9_12  and  C10_13 
REMARK    7  A    between atoms: C12_15  and  N2_16 
REMARK    8  A    between atoms: C15_20  and  P1_21 
REMARK    9  A    between atoms: C16_22  and  O3_23 
ROOT
HETATM    1  C2  UNL     1      20.240   0.239  52.316  1.00  0.00     0.104 C 
HETATM    2  C3  UNL     1      19.946   0.792  51.086  1.00  0.00     0.072 C 
HETATM    3  C4  UNL     1      20.801   1.348  50.156  1.00  0.00     0.070 C 
HETATM    4  C8  UNL     1      22.071   1.851  50.453  1.00  0.00     0.041 C 
HETATM    5  C9  UNL     1      22.897   1.710  51.583  1.00  0.00    -0.031 C 
HETATM    6  C15 UNL     1      22.681   0.757  52.555  1.00  0.00     0.007 C 
HETATM    7  C16 UNL     1      21.470   0.219  52.985  1.00  0.00     0.112 C 
ENDROOT
BRANCH   5   8
HETATM    8  C10 UNL     1      24.008   2.632  51.693  1.00  0.00     0.069 A 
HETATM    9  C11 UNL     1      23.838   3.862  52.443  1.00  0.00     0.017 A 
HETATM   10  C12 UNL     1      24.160   4.867  51.602  1.00  0.00     0.044 A 
HETATM   11  C13 UNL     1      24.537   4.355  50.308  1.00  0.00     0.057 A 
HETATM   12 CL1  UNL     1      25.027   5.312  48.917  1.00  0.00    -0.082 Cl
HETATM   13  C14 UNL     1      24.462   3.040  50.315  1.00  0.00     0.013 A 
BRANCH  10  14
HETATM   14  N2  UNL     1      24.096   6.224  52.037  1.00  0.00    -0.398 N 
HETATM   15  H11 UNL     1      24.009   7.141  51.504  1.00  0.00     0.156 HD
HETATM   16  H12 UNL     1      24.122   6.648  52.985  1.00  0.00     0.156 HD
ENDBRANCH  10  14
ENDBRANCH   5   8
BRANCH   6  17
HETATM   17  P1  UNL     1      24.219   0.167  53.339  1.00  0.00    -0.103 P 
HETATM   18  H14 UNL     1      25.253   1.180  53.343  1.00  0.00     0.059 HD
HETATM   19  H15 UNL     1      23.937  -0.172  54.725  1.00  0.00     0.059 HD
ENDBRANCH   6  17
BRANCH   3  20
HETATM   20  N1  UNL     1      20.413   1.412  48.926  1.00  0.00    -0.198 NA
BRANCH  20  21
HETATM   21  C5  UNL     1      20.929   2.348  48.026  1.00  0.00     0.037 C 
HETATM   22  C6  UNL     1      21.389   3.149  47.252  1.00  0.00    -0.056 C 
BRANCH  22  23
HETATM   23  C7  UNL     1      21.940   4.141  46.323  1.00  0.00     0.259 C 
BRANCH  23  24
HETATM   24  O2  UNL     1      22.052   3.537  45.068  1.00  0.00    -0.389 OA
HETATM   25  H7  UNL     1      21.452   3.981  44.412  1.00  0.00     0.210 HD
ENDBRANCH  23  24
ENDBRANCH  22  23
ENDBRANCH  20  21
ENDBRANCH   3  20
BRANCH   7  26
HETATM   26  O3  UNL     1      21.557  -0.397  54.234  1.00  0.00    -0.352 OA
HETATM   27  C17 UNL     1      21.544  -1.829  54.285  1.00  0.00     0.210 C 
ENDBRANCH   7  26
BRANCH   1  28
HETATM   28  O1  UNL     1      19.213  -0.388  53.009  1.00  0.00    -0.353 OA
HETATM   29  C1  UNL     1      18.044  -0.728  52.286  1.00  0.00     0.210 C 
ENDBRANCH   1  28
TORSDOF 9
ENDMDL
