MODEL 1
REMARK VINA RESULT:      -8.8      0.000      0.000
REMARK  8 active torsions:
REMARK  status: ('A' for Active; 'I' for Inactive)
REMARK    1  A    between atoms: C2_2  and  O1_3 
REMARK    2  A    between atoms: O1_3  and  C3_4 
REMARK    3  A    between atoms: C9_12  and  N3_13 
REMARK    4  A    between atoms: N3_13  and  C10_14 
REMARK    5  A    between atoms: C17_22  and  N4_23 
REMARK       I    between atoms: N4_23  and  C18_24 
REMARK    6  A    between atoms: C18_24  and  C19_26 
REMARK    7  A    between atoms: C20_27  and  C21_28 
REMARK    8  A    between atoms: C21_28  and  N5_29 
ROOT
HETATM    1  C3  UNL     1      23.935   3.012  50.227  1.00  0.00     0.097 A 
HETATM    2  C4  UNL     1      23.156   1.992  50.769  1.00  0.00     0.071 A 
HETATM    3  C5  UNL     1      23.602   1.317  51.885  1.00  0.00     0.071 A 
HETATM    4  N1  UNL     1      22.821   0.324  52.397  1.00  0.00    -0.259 NA
HETATM    5  C6  UNL     1      23.247  -0.346  53.493  1.00  0.00     0.142 A 
HETATM    6  C7  UNL     1      24.441  -0.029  54.075  1.00  0.00     0.089 A 
HETATM    7  C8  UNL     1      24.870  -0.750  55.229  1.00  0.00     0.103 C 
HETATM    8  N2  UNL     1      25.219  -1.323  56.179  1.00  0.00    -0.191 NA
HETATM    9  C9  UNL     1      25.266   0.971  53.592  1.00  0.00     0.067 A 
HETATM   10  C15 UNL     1      24.809   1.643  52.467  1.00  0.00     0.023 A 
HETATM   11  C16 UNL     1      25.597   2.650  51.946  1.00  0.00     0.048 A 
HETATM   12  C17 UNL     1      25.161   3.337  50.825  1.00  0.00     0.069 A 
ENDROOT
BRANCH   9  13
HETATM   13  N3  UNL     1      26.522   1.322  54.182  1.00  0.00    -0.357 N 
HETATM   14  H8  UNL     1      26.525   2.174  54.745  1.00  0.00     0.166 HD
BRANCH  13  15
HETATM   15  C10 UNL     1      27.670   0.499  53.968  1.00  0.00     0.016 A 
HETATM   16  C11 UNL     1      28.888   0.818  54.404  1.00  0.00     0.028 A 
HETATM   17  C12 UNL     1      29.734  -0.302  53.961  1.00  0.00     0.040 A 
HETATM   18  C13 UNL     1      29.072  -1.237  53.298  1.00  0.00     0.099 A 
HETATM   19  F1  UNL     1      29.518  -2.399  52.744  1.00  0.00    -0.210 F 
HETATM   20  C14 UNL     1      27.665  -0.799  53.243  1.00  0.00     0.127 A 
ENDBRANCH  13  15
ENDBRANCH   9  13
BRANCH  12  21
HETATM   21  N4  UNL     1      25.892   4.392  50.212  1.00  0.00    -0.321 N 
HETATM   22  C18 UNL     1      26.929   4.324  49.254  1.00  0.00     0.245 C 
HETATM   23  O2  UNL     1      27.144   3.124  48.990  1.00  0.00    -0.268 OA
HETATM   24  H14 UNL     1      25.486   5.251  50.633  1.00  0.00     0.169 HD
BRANCH  22  25
HETATM   25  C19 UNL     1      27.547   5.535  48.750  1.00  0.00     0.072 C 
HETATM   26  C20 UNL     1      28.706   5.895  48.299  1.00  0.00     0.008 C 
BRANCH  26  27
HETATM   27  C21 UNL     1      30.100   5.552  47.954  1.00  0.00     0.299 C 
BRANCH  27  28
HETATM   28  N5  UNL     1      31.040   5.981  48.957  1.00  0.00     0.083 N 
HETATM   29  C22 UNL     1      31.226   7.414  48.974  1.00  0.00     0.309 C 
HETATM   30  C23 UNL     1      32.343   5.399  48.642  1.00  0.00     0.309 C 
ENDBRANCH  27  28
ENDBRANCH  26  27
ENDBRANCH  22  25
ENDBRANCH  12  21
BRANCH   1  31
HETATM   31  O1  UNL     1      23.437   3.658  49.102  1.00  0.00    -0.349 OA
BRANCH  31  32
HETATM   32  C2  UNL     1      22.490   3.075  48.238  1.00  0.00     0.171 C 
HETATM   33  C1  UNL     1      22.127   3.999  47.095  1.00  0.00     0.034 C 
ENDBRANCH  31  32
ENDBRANCH   1  31
TORSDOF 8
ENDMDL
MODEL 2
REMARK VINA RESULT:      -8.7      1.973      2.615
REMARK  8 active torsions:
REMARK  status: ('A' for Active; 'I' for Inactive)
REMARK    1  A    between atoms: C2_2  and  O1_3 
REMARK    2  A    between atoms: O1_3  and  C3_4 
REMARK    3  A    between atoms: C9_12  and  N3_13 
REMARK    4  A    between atoms: N3_13  and  C10_14 
REMARK    5  A    between atoms: C17_22  and  N4_23 
REMARK       I    between atoms: N4_23  and  C18_24 
REMARK    6  A    between atoms: C18_24  and  C19_26 
REMARK    7  A    between atoms: C20_27  and  C21_28 
REMARK    8  A    between atoms: C21_28  and  N5_29 
ROOT
HETATM    1  C3  UNL     1      23.127   2.702  49.598  1.00  0.00     0.097 A 
HETATM    2  C4  UNL     1      22.176   1.799  50.069  1.00  0.00     0.071 A 
HETATM    3  C5  UNL     1      22.412   1.114  51.242  1.00  0.00     0.071 A 
HETATM    4  N1  UNL     1      21.467   0.237  51.682  1.00  0.00    -0.259 NA
HETATM    5  C6  UNL     1      21.686  -0.441  52.832  1.00  0.00     0.142 A 
HETATM    6  C7  UNL     1      22.837  -0.247  53.540  1.00  0.00     0.089 A 
HETATM    7  C8  UNL     1      23.047  -0.974  54.749  1.00  0.00     0.103 C 
HETATM    8  N2  UNL     1      23.218  -1.552  55.743  1.00  0.00    -0.191 NA
HETATM    9  C9  UNL     1      23.825   0.633  53.133  1.00  0.00     0.067 A 
HETATM   10  C15 UNL     1      23.578   1.316  51.951  1.00  0.00     0.023 A 
HETATM   11  C16 UNL     1      24.534   2.206  51.502  1.00  0.00     0.048 A 
HETATM   12  C17 UNL     1      24.310   2.901  50.325  1.00  0.00     0.069 A 
ENDROOT
BRANCH   9  13
HETATM   13  N3  UNL     1      25.040   0.854  53.854  1.00  0.00    -0.357 N 
HETATM   14  H8  UNL     1      25.007   1.584  54.567  1.00  0.00     0.166 HD
BRANCH  13  15
HETATM   15  C10 UNL     1      26.201   0.075  53.560  1.00  0.00     0.016 A 
HETATM   16  C11 UNL     1      26.164  -1.045  52.838  1.00  0.00     0.028 A 
HETATM   17  C12 UNL     1      27.565  -1.493  52.796  1.00  0.00     0.040 A 
HETATM   18  C13 UNL     1      28.396  -0.699  53.450  1.00  0.00     0.099 A 
HETATM   19  F1  UNL     1      29.743  -0.795  53.626  1.00  0.00    -0.210 F 
HETATM   20  C14 UNL     1      27.581   0.398  54.008  1.00  0.00     0.127 A 
ENDBRANCH  13  15
ENDBRANCH   9  13
BRANCH  12  21
HETATM   21  N4  UNL     1      25.225   3.842  49.778  1.00  0.00    -0.321 N 
HETATM   22  C18 UNL     1      26.567   3.658  49.377  1.00  0.00     0.245 C 
HETATM   23  O2  UNL     1      26.879   2.467  49.580  1.00  0.00    -0.268 OA
HETATM   24  H14 UNL     1      24.676   4.724  49.734  1.00  0.00     0.169 HD
BRANCH  22  25
HETATM   25  C19 UNL     1      27.334   4.763  48.835  1.00  0.00     0.072 C 
HETATM   26  C20 UNL     1      27.152   6.024  48.606  1.00  0.00     0.008 C 
BRANCH  26  27
HETATM   27  C21 UNL     1      26.278   7.213  48.650  1.00  0.00     0.299 C 
BRANCH  27  28
HETATM   28  N5  UNL     1      26.133   7.744  49.980  1.00  0.00     0.083 N 
HETATM   29  C22 UNL     1      24.903   7.333  50.618  1.00  0.00     0.309 C 
HETATM   30  C23 UNL     1      26.082   9.202  49.887  1.00  0.00     0.309 C 
ENDBRANCH  27  28
ENDBRANCH  26  27
ENDBRANCH  22  25
ENDBRANCH  12  21
BRANCH   1  31
HETATM   31  O1  UNL     1      22.837   3.364  48.412  1.00  0.00    -0.349 OA
BRANCH  31  32
HETATM   32  C2  UNL     1      22.284   2.720  47.288  1.00  0.00     0.171 C 
HETATM   33  C1  UNL     1      21.873   3.708  46.218  1.00  0.00     0.034 C 
ENDBRANCH  31  32
ENDBRANCH   1  31
TORSDOF 8
ENDMDL
MODEL 3
REMARK VINA RESULT:      -8.5      3.145      5.864
REMARK  8 active torsions:
REMARK  status: ('A' for Active; 'I' for Inactive)
REMARK    1  A    between atoms: C2_2  and  O1_3 
REMARK    2  A    between atoms: O1_3  and  C3_4 
REMARK    3  A    between atoms: C9_12  and  N3_13 
REMARK    4  A    between atoms: N3_13  and  C10_14 
REMARK    5  A    between atoms: C17_22  and  N4_23 
REMARK       I    between atoms: N4_23  and  C18_24 
REMARK    6  A    between atoms: C18_24  and  C19_26 
REMARK    7  A    between atoms: C20_27  and  C21_28 
REMARK    8  A    between atoms: C21_28  and  N5_29 
ROOT
HETATM    1  C3  UNL     1      26.923   0.997  53.108  1.00  0.00     0.097 A 
HETATM    2  C4  UNL     1      26.433   0.235  54.167  1.00  0.00     0.071 A 
HETATM    3  C5  UNL     1      25.118  -0.177  54.155  1.00  0.00     0.071 A 
HETATM    4  N1  UNL     1      24.663  -0.923  55.202  1.00  0.00    -0.259 NA
HETATM    5  C6  UNL     1      23.374  -1.334  55.204  1.00  0.00     0.142 A 
HETATM    6  C7  UNL     1      22.544  -1.007  54.170  1.00  0.00     0.089 A 
HETATM    7  C8  UNL     1      21.188  -1.451  54.194  1.00  0.00     0.103 C 
HETATM    8  N2  UNL     1      20.086  -1.821  54.199  1.00  0.00    -0.191 NA
HETATM    9  C9  UNL     1      22.960  -0.253  53.087  1.00  0.00     0.067 A 
HETATM   10  C15 UNL     1      24.285   0.158  53.108  1.00  0.00     0.023 A 
HETATM   11  C16 UNL     1      24.750   0.913  52.049  1.00  0.00     0.048 A 
HETATM   12  C17 UNL     1      26.069   1.333  52.047  1.00  0.00     0.069 A 
ENDROOT
BRANCH   9  13
HETATM   13  N3  UNL     1      22.111   0.105  51.992  1.00  0.00    -0.357 N 
HETATM   14  H8  UNL     1      21.975  -0.616  51.282  1.00  0.00     0.166 HD
BRANCH  13  15
HETATM   15  C10 UNL     1      21.513   1.402  51.943  1.00  0.00     0.016 A 
HETATM   16  C11 UNL     1      20.726   1.879  52.907  1.00  0.00     0.028 A 
HETATM   17  C12 UNL     1      20.351   3.221  52.434  1.00  0.00     0.040 A 
HETATM   18  C13 UNL     1      20.875   3.535  51.261  1.00  0.00     0.099 A 
HETATM   19  F1  UNL     1      20.749   4.674  50.523  1.00  0.00    -0.210 F 
HETATM   20  C14 UNL     1      21.682   2.376  50.834  1.00  0.00     0.127 A 
ENDBRANCH  13  15
ENDBRANCH   9  13
BRANCH  12  21
HETATM   21  N4  UNL     1      26.649   2.110  51.005  1.00  0.00    -0.321 N 
HETATM   22  C18 UNL     1      26.204   3.327  50.442  1.00  0.00     0.245 C 
HETATM   23  O2  UNL     1      25.150   3.666  51.018  1.00  0.00    -0.268 OA
HETATM   24  H14 UNL     1      27.498   1.572  50.739  1.00  0.00     0.169 HD
BRANCH  22  25
HETATM   25  C19 UNL     1      26.952   3.962  49.375  1.00  0.00     0.072 C 
HETATM   26  C20 UNL     1      26.996   5.124  48.805  1.00  0.00     0.008 C 
BRANCH  26  27
HETATM   27  C21 UNL     1      26.497   6.509  48.699  1.00  0.00     0.299 C 
BRANCH  27  28
HETATM   28  N5  UNL     1      26.132   7.065  49.975  1.00  0.00     0.083 N 
HETATM   29  C22 UNL     1      24.703   7.087  50.191  1.00  0.00     0.309 C 
HETATM   30  C23 UNL     1      26.576   8.457  50.011  1.00  0.00     0.309 C 
ENDBRANCH  27  28
ENDBRANCH  26  27
ENDBRANCH  22  25
ENDBRANCH  12  21
BRANCH   1  31
HETATM   31  O1  UNL     1      28.255   1.384  53.171  1.00  0.00    -0.349 OA
BRANCH  31  32
HETATM   32  C2  UNL     1      29.171   0.838  54.090  1.00  0.00     0.171 C 
HETATM   33  C1  UNL     1      29.924  -0.337  53.503  1.00  0.00     0.034 C 
ENDBRANCH  31  32
ENDBRANCH   1  31
TORSDOF 8
ENDMDL
MODEL 4
REMARK VINA RESULT:      -7.8      3.484      7.150
REMARK  8 active torsions:
REMARK  status: ('A' for Active; 'I' for Inactive)
REMARK    1  A    between atoms: C2_2  and  O1_3 
REMARK    2  A    between atoms: O1_3  and  C3_4 
REMARK    3  A    between atoms: C9_12  and  N3_13 
REMARK    4  A    between atoms: N3_13  and  C10_14 
REMARK    5  A    between atoms: C17_22  and  N4_23 
REMARK       I    between atoms: N4_23  and  C18_24 
REMARK    6  A    between atoms: C18_24  and  C19_26 
REMARK    7  A    between atoms: C20_27  and  C21_28 
REMARK    8  A    between atoms: C21_28  and  N5_29 
ROOT
HETATM    1  C3  UNL     1      21.161   1.384  52.077  1.00  0.00     0.097 A 
HETATM    2  C4  UNL     1      20.269   2.140  51.320  1.00  0.00     0.071 A 
HETATM    3  C5  UNL     1      20.570   3.453  51.027  1.00  0.00     0.071 A 
HETATM    4  N1  UNL     1      19.681   4.171  50.284  1.00  0.00    -0.259 NA
HETATM    5  C6  UNL     1      19.964   5.461  49.989  1.00  0.00     0.142 A 
HETATM    6  C7  UNL     1      21.123   6.031  50.430  1.00  0.00     0.089 A 
HETATM    7  C8  UNL     1      21.400   7.393  50.108  1.00  0.00     0.103 C 
HETATM    8  N2  UNL     1      21.639   8.498  49.837  1.00  0.00    -0.191 NA
HETATM    9  C9  UNL     1      22.055   5.342  51.186  1.00  0.00     0.067 A 
HETATM   10  C15 UNL     1      21.743   4.022  51.477  1.00  0.00     0.023 A 
HETATM   11  C16 UNL     1      22.640   3.291  52.229  1.00  0.00     0.048 A 
HETATM   12  C17 UNL     1      22.352   1.970  52.531  1.00  0.00     0.069 A 
ENDROOT
BRANCH   9  13
HETATM   13  N3  UNL     1      23.276   5.916  51.662  1.00  0.00    -0.357 N 
HETATM   14  H8  UNL     1      23.275   6.217  52.637  1.00  0.00     0.166 HD
BRANCH  13  15
HETATM   15  C10 UNL     1      24.400   6.036  50.787  1.00  0.00     0.016 A 
HETATM   16  C11 UNL     1      25.026   7.190  50.557  1.00  0.00     0.028 A 
HETATM   17  C12 UNL     1      26.098   6.836  49.613  1.00  0.00     0.040 A 
HETATM   18  C13 UNL     1      26.119   5.553  49.291  1.00  0.00     0.099 A 
HETATM   19  F1  UNL     1      26.955   4.874  48.457  1.00  0.00    -0.210 F 
HETATM   20  C14 UNL     1      25.013   4.914  50.029  1.00  0.00     0.127 A 
ENDBRANCH  13  15
ENDBRANCH   9  13
BRANCH  12  21
HETATM   21  N4  UNL     1      23.208   1.129  53.293  1.00  0.00    -0.321 N 
HETATM   22  C18 UNL     1      24.453   0.562  52.941  1.00  0.00     0.245 C 
HETATM   23  O2  UNL     1      24.733   0.919  51.778  1.00  0.00    -0.268 OA
HETATM   24  H14 UNL     1      22.705   1.017  54.196  1.00  0.00     0.169 HD
BRANCH  22  25
HETATM   25  C19 UNL     1      25.174  -0.277  53.879  1.00  0.00     0.072 C 
HETATM   26  C20 UNL     1      26.308  -0.249  54.503  1.00  0.00     0.008 C 
BRANCH  26  27
HETATM   27  C21 UNL     1      27.584   0.434  54.794  1.00  0.00     0.299 C 
BRANCH  27  28
HETATM   28  N5  UNL     1      28.369   0.667  53.610  1.00  0.00     0.083 N 
HETATM   29  C22 UNL     1      29.656   0.012  53.652  1.00  0.00     0.309 C 
HETATM   30  C23 UNL     1      28.639   2.100  53.516  1.00  0.00     0.309 C 
ENDBRANCH  27  28
ENDBRANCH  26  27
ENDBRANCH  22  25
ENDBRANCH  12  21
BRANCH   1  31
HETATM   31  O1  UNL     1      20.808   0.067  52.342  1.00  0.00    -0.349 OA
BRANCH  31  32
HETATM   32  C2  UNL     1      19.871  -0.293  53.331  1.00  0.00     0.171 C 
HETATM   33  C1  UNL     1      18.549  -0.717  52.727  1.00  0.00     0.034 C 
ENDBRANCH  31  32
ENDBRANCH   1  31
TORSDOF 8
ENDMDL
MODEL 5
REMARK VINA RESULT:      -7.8      2.238      2.664
REMARK  8 active torsions:
REMARK  status: ('A' for Active; 'I' for Inactive)
REMARK    1  A    between atoms: C2_2  and  O1_3 
REMARK    2  A    between atoms: O1_3  and  C3_4 
REMARK    3  A    between atoms: C9_12  and  N3_13 
REMARK    4  A    between atoms: N3_13  and  C10_14 
REMARK    5  A    between atoms: C17_22  and  N4_23 
REMARK       I    between atoms: N4_23  and  C18_24 
REMARK    6  A    between atoms: C18_24  and  C19_26 
REMARK    7  A    between atoms: C20_27  and  C21_28 
REMARK    8  A    between atoms: C21_28  and  N5_29 
ROOT
HETATM    1  C3  UNL     1      24.464   5.592  50.367  1.00  0.00     0.097 A 
HETATM    2  C4  UNL     1      23.496   4.931  51.120  1.00  0.00     0.071 A 
HETATM    3  C5  UNL     1      23.764   3.673  51.617  1.00  0.00     0.071 A 
HETATM    4  N1  UNL     1      22.801   3.048  52.351  1.00  0.00    -0.259 NA
HETATM    5  C6  UNL     1      23.051   1.814  52.845  1.00  0.00     0.142 A 
HETATM    6  C7  UNL     1      24.250   1.206  52.610  1.00  0.00     0.089 A 
HETATM    7  C8  UNL     1      24.491  -0.097  53.139  1.00  0.00     0.103 C 
HETATM    8  N2  UNL     1      24.700  -1.152  53.580  1.00  0.00    -0.191 NA
HETATM    9  C9  UNL     1      25.258   1.801  51.871  1.00  0.00     0.067 A 
HETATM   10  C15 UNL     1      24.978   3.066  51.374  1.00  0.00     0.023 A 
HETATM   11  C16 UNL     1      25.951   3.703  50.630  1.00  0.00     0.048 A 
HETATM   12  C17 UNL     1      25.697   4.968  50.125  1.00  0.00     0.069 A 
ENDROOT
BRANCH   9  13
HETATM   13  N3  UNL     1      26.523   1.186  51.609  1.00  0.00    -0.357 N 
HETATM   14  H8  UNL     1      26.645   0.804  50.670  1.00  0.00     0.166 HD
BRANCH  13  15
HETATM   15  C10 UNL     1      27.522   1.138  52.630  1.00  0.00     0.016 A 
HETATM   16  C11 UNL     1      27.986  -0.001  53.142  1.00  0.00     0.028 A 
HETATM   17  C12 UNL     1      28.978   0.431  54.140  1.00  0.00     0.040 A 
HETATM   18  C13 UNL     1      29.105   1.744  54.227  1.00  0.00     0.099 A 
HETATM   19  F1  UNL     1      29.912   2.495  55.029  1.00  0.00    -0.210 F 
HETATM   20  C14 UNL     1      28.166   2.325  53.249  1.00  0.00     0.127 A 
ENDBRANCH  13  15
ENDBRANCH   9  13
BRANCH  12  21
HETATM   21  N4  UNL     1      26.630   5.712  49.352  1.00  0.00    -0.321 N 
HETATM   22  C18 UNL     1      27.730   5.254  48.592  1.00  0.00     0.245 C 
HETATM   23  O2  UNL     1      27.789   4.012  48.693  1.00  0.00    -0.268 OA
HETATM   24  H14 UNL     1      26.318   6.697  49.468  1.00  0.00     0.169 HD
BRANCH  22  25
HETATM   25  C19 UNL     1      28.565   6.191  47.867  1.00  0.00     0.072 C 
HETATM   26  C20 UNL     1      29.829   6.446  47.749  1.00  0.00     0.008 C 
BRANCH  26  27
HETATM   27  C21 UNL     1      31.228   6.142  48.112  1.00  0.00     0.299 C 
BRANCH  27  28
HETATM   28  N5  UNL     1      32.019   7.328  48.310  1.00  0.00     0.083 N 
HETATM   29  C22 UNL     1      33.413   7.039  48.553  1.00  0.00     0.309 C 
HETATM   30  C23 UNL     1      31.525   8.013  49.503  1.00  0.00     0.309 C 
ENDBRANCH  27  28
ENDBRANCH  26  27
ENDBRANCH  22  25
ENDBRANCH  12  21
BRANCH   1  31
HETATM   31  O1  UNL     1      24.141   6.857  49.892  1.00  0.00    -0.349 OA
BRANCH  31  32
HETATM   32  C2  UNL     1      23.297   7.745  50.586  1.00  0.00     0.171 C 
HETATM   33  C1  UNL     1      22.396   8.516  49.645  1.00  0.00     0.034 C 
ENDBRANCH  31  32
ENDBRANCH   1  31
TORSDOF 8
ENDMDL
MODEL 6
REMARK VINA RESULT:      -7.7      3.632      5.884
REMARK  8 active torsions:
REMARK  status: ('A' for Active; 'I' for Inactive)
REMARK    1  A    between atoms: C2_2  and  O1_3 
REMARK    2  A    between atoms: O1_3  and  C3_4 
REMARK    3  A    between atoms: C9_12  and  N3_13 
REMARK    4  A    between atoms: N3_13  and  C10_14 
REMARK    5  A    between atoms: C17_22  and  N4_23 
REMARK       I    between atoms: N4_23  and  C18_24 
REMARK    6  A    between atoms: C18_24  and  C19_26 
REMARK    7  A    between atoms: C20_27  and  C21_28 
REMARK    8  A    between atoms: C21_28  and  N5_29 
ROOT
HETATM    1  C3  UNL     1      24.938   3.457  51.047  1.00  0.00     0.097 A 
HETATM    2  C4  UNL     1      25.475   2.261  51.518  1.00  0.00     0.071 A 
HETATM    3  C5  UNL     1      24.682   1.402  52.248  1.00  0.00     0.071 A 
HETATM    4  N1  UNL     1      25.230   0.237  52.697  1.00  0.00    -0.259 NA
HETATM    5  C6  UNL     1      24.463  -0.615  53.415  1.00  0.00     0.142 A 
HETATM    6  C7  UNL     1      23.159  -0.312  53.683  1.00  0.00     0.089 A 
HETATM    7  C8  UNL     1      22.369  -1.226  54.443  1.00  0.00     0.103 C 
HETATM    8  N2  UNL     1      21.715  -1.972  55.048  1.00  0.00    -0.191 NA
HETATM    9  C9  UNL     1      22.559   0.857  53.248  1.00  0.00     0.067 A 
HETATM   10  C15 UNL     1      23.366   1.716  52.516  1.00  0.00     0.023 A 
HETATM   11  C16 UNL     1      22.814   2.896  52.059  1.00  0.00     0.048 A 
HETATM   12  C17 UNL     1      23.598   3.769  51.323  1.00  0.00     0.069 A 
ENDROOT
BRANCH   9  13
HETATM   13  N3  UNL     1      21.196   1.200  53.516  1.00  0.00    -0.357 N 
HETATM   14  H8  UNL     1      21.044   1.834  54.302  1.00  0.00     0.166 HD
BRANCH  13  15
HETATM   15  C10 UNL     1      20.149   0.664  52.704  1.00  0.00     0.016 A 
HETATM   16  C11 UNL     1      19.979   0.992  51.424  1.00  0.00     0.028 A 
HETATM   17  C12 UNL     1      18.803   0.211  51.006  1.00  0.00     0.040 A 
HETATM   18  C13 UNL     1      18.294  -0.539  51.969  1.00  0.00     0.099 A 
HETATM   19  F1  UNL     1      17.222  -1.379  51.951  1.00  0.00    -0.210 F 
HETATM   20  C14 UNL     1      19.127  -0.312  53.166  1.00  0.00     0.127 A 
ENDBRANCH  13  15
ENDBRANCH   9  13
BRANCH  12  21
HETATM   21  N4  UNL     1      23.128   5.006  50.803  1.00  0.00    -0.321 N 
HETATM   22  C18 UNL     1      22.392   5.261  49.625  1.00  0.00     0.245 C 
HETATM   23  O2  UNL     1      22.188   4.175  49.045  1.00  0.00    -0.268 OA
HETATM   24  H14 UNL     1      23.453   5.707  51.500  1.00  0.00     0.169 HD
BRANCH  22  25
HETATM   25  C19 UNL     1      22.006   6.614  49.274  1.00  0.00     0.072 C 
HETATM   26  C20 UNL     1      22.568   7.779  49.216  1.00  0.00     0.008 C 
BRANCH  26  27
HETATM   27  C21 UNL     1      23.767   8.624  49.389  1.00  0.00     0.299 C 
BRANCH  27  28
HETATM   28  N5  UNL     1      24.992   7.881  49.253  1.00  0.00     0.083 N 
HETATM   29  C22 UNL     1      26.110   8.516  49.912  1.00  0.00     0.309 C 
HETATM   30  C23 UNL     1      25.333   7.816  47.833  1.00  0.00     0.309 C 
ENDBRANCH  27  28
ENDBRANCH  26  27
ENDBRANCH  22  25
ENDBRANCH  12  21
BRANCH   1  31
HETATM   31  O1  UNL     1      25.781   4.284  50.317  1.00  0.00    -0.349 OA
BRANCH  31  32
HETATM   32  C2  UNL     1      26.773   3.794  49.446  1.00  0.00     0.171 C 
HETATM   33  C1  UNL     1      27.460   4.911  48.689  1.00  0.00     0.034 C 
ENDBRANCH  31  32
ENDBRANCH   1  31
TORSDOF 8
ENDMDL
MODEL 7
REMARK VINA RESULT:      -7.7      1.951      2.544
REMARK  8 active torsions:
REMARK  status: ('A' for Active; 'I' for Inactive)
REMARK    1  A    between atoms: C2_2  and  O1_3 
REMARK    2  A    between atoms: O1_3  and  C3_4 
REMARK    3  A    between atoms: C9_12  and  N3_13 
REMARK    4  A    between atoms: N3_13  and  C10_14 
REMARK    5  A    between atoms: C17_22  and  N4_23 
REMARK       I    between atoms: N4_23  and  C18_24 
REMARK    6  A    between atoms: C18_24  and  C19_26 
REMARK    7  A    between atoms: C20_27  and  C21_28 
REMARK    8  A    between atoms: C21_28  and  N5_29 
ROOT
HETATM    1  C3  UNL     1      23.258   3.791  49.074  1.00  0.00     0.097 A 
HETATM    2  C4  UNL     1      22.351   2.750  49.260  1.00  0.00     0.071 A 
HETATM    3  C5  UNL     1      22.453   1.951  50.378  1.00  0.00     0.071 A 
HETATM    4  N1  UNL     1      21.553   0.940  50.537  1.00  0.00    -0.259 NA
HETATM    5  C6  UNL     1      21.642   0.148  51.631  1.00  0.00     0.142 A 
HETATM    6  C7  UNL     1      22.619   0.362  52.560  1.00  0.00     0.089 A 
HETATM    7  C8  UNL     1      22.693  -0.486  53.706  1.00  0.00     0.103 C 
HETATM    8  N2  UNL     1      22.752  -1.163  54.648  1.00  0.00    -0.191 NA
HETATM    9  C9  UNL     1      23.553   1.376  52.442  1.00  0.00     0.067 A 
HETATM   10  C15 UNL     1      23.443   2.173  51.312  1.00  0.00     0.023 A 
HETATM   11  C16 UNL     1      24.353   3.199  51.148  1.00  0.00     0.048 A 
HETATM   12  C17 UNL     1      24.262   4.010  50.029  1.00  0.00     0.069 A 
ENDROOT
BRANCH   9  13
HETATM   13  N3  UNL     1      24.587   1.621  53.400  1.00  0.00    -0.357 N 
HETATM   14  H8  UNL     1      24.402   2.367  54.073  1.00  0.00     0.166 HD
BRANCH  13  15
HETATM   15  C10 UNL     1      25.786   0.842  53.378  1.00  0.00     0.016 A 
HETATM   16  C11 UNL     1      26.170   0.126  52.322  1.00  0.00     0.028 A 
HETATM   17  C12 UNL     1      27.434  -0.495  52.749  1.00  0.00     0.040 A 
HETATM   18  C13 UNL     1      27.791  -0.176  53.982  1.00  0.00     0.099 A 
HETATM   19  F1  UNL     1      28.883  -0.558  54.703  1.00  0.00    -0.210 F 
HETATM   20  C14 UNL     1      26.748   0.726  54.504  1.00  0.00     0.127 A 
ENDBRANCH  13  15
ENDBRANCH   9  13
BRANCH  12  21
HETATM   21  N4  UNL     1      25.143   5.095  49.766  1.00  0.00    -0.321 N 
HETATM   22  C18 UNL     1      25.092   6.426  50.238  1.00  0.00     0.245 C 
HETATM   23  O2  UNL     1      24.093   6.544  50.976  1.00  0.00    -0.268 OA
HETATM   24  H14 UNL     1      25.858   4.684  49.132  1.00  0.00     0.169 HD
BRANCH  22  25
HETATM   25  C19 UNL     1      26.104   7.386  49.845  1.00  0.00     0.072 C 
HETATM   26  C20 UNL     1      27.098   7.437  49.016  1.00  0.00     0.008 C 
BRANCH  26  27
HETATM   27  C21 UNL     1      27.926   6.787  47.981  1.00  0.00     0.299 C 
BRANCH  27  28
HETATM   28  N5  UNL     1      28.998   7.629  47.519  1.00  0.00     0.083 N 
HETATM   29  C22 UNL     1      29.976   7.907  48.546  1.00  0.00     0.309 C 
HETATM   30  C23 UNL     1      28.430   8.918  47.130  1.00  0.00     0.309 C 
ENDBRANCH  27  28
ENDBRANCH  26  27
ENDBRANCH  22  25
ENDBRANCH  12  21
BRANCH   1  31
HETATM   31  O1  UNL     1      23.108   4.564  47.930  1.00  0.00    -0.349 OA
BRANCH  31  32
HETATM   32  C2  UNL     1      21.886   4.686  47.240  1.00  0.00     0.171 C 
HETATM   33  C1  UNL     1      21.988   4.175  45.819  1.00  0.00     0.034 C 
ENDBRANCH  31  32
ENDBRANCH   1  31
TORSDOF 8
ENDMDL
MODEL 8
REMARK VINA RESULT:      -7.7      2.323      2.942
REMARK  8 active torsions:
REMARK  status: ('A' for Active; 'I' for Inactive)
REMARK    1  A    between atoms: C2_2  and  O1_3 
REMARK    2  A    between atoms: O1_3  and  C3_4 
REMARK    3  A    between atoms: C9_12  and  N3_13 
REMARK    4  A    between atoms: N3_13  and  C10_14 
REMARK    5  A    between atoms: C17_22  and  N4_23 
REMARK       I    between atoms: N4_23  and  C18_24 
REMARK    6  A    between atoms: C18_24  and  C19_26 
REMARK    7  A    between atoms: C20_27  and  C21_28 
REMARK    8  A    between atoms: C21_28  and  N5_29 
ROOT
HETATM    1  C3  UNL     1      23.011   5.622  51.305  1.00  0.00     0.097 A 
HETATM    2  C4  UNL     1      21.913   4.977  51.869  1.00  0.00     0.071 A 
HETATM    3  C5  UNL     1      21.980   3.625  52.131  1.00  0.00     0.071 A 
HETATM    4  N1  UNL     1      20.892   3.018  52.685  1.00  0.00    -0.259 NA
HETATM    5  C6  UNL     1      20.945   1.692  52.948  1.00  0.00     0.142 A 
HETATM    6  C7  UNL     1      22.071   0.976  52.663  1.00  0.00     0.089 A 
HETATM    7  C8  UNL     1      22.103  -0.422  52.948  1.00  0.00     0.103 C 
HETATM    8  N2  UNL     1      22.142  -1.558  53.191  1.00  0.00    -0.191 NA
HETATM    9  C9  UNL     1      23.199   1.549  52.102  1.00  0.00     0.067 A 
HETATM   10  C15 UNL     1      23.122   2.909  51.840  1.00  0.00     0.023 A 
HETATM   11  C16 UNL     1      24.221   3.528  51.280  1.00  0.00     0.048 A 
HETATM   12  C17 UNL     1      24.169   4.886  51.012  1.00  0.00     0.069 A 
ENDROOT
BRANCH   9  13
HETATM   13  N3  UNL     1      24.392   0.821  51.793  1.00  0.00    -0.357 N 
HETATM   14  H8  UNL     1      24.378   0.296  50.917  1.00  0.00     0.166 HD
BRANCH  13  15
HETATM   15  C10 UNL     1      25.508   0.861  52.685  1.00  0.00     0.016 A 
HETATM   16  C11 UNL     1      25.437   0.477  53.959  1.00  0.00     0.028 A 
HETATM   17  C12 UNL     1      26.798   0.690  54.476  1.00  0.00     0.040 A 
HETATM   18  C13 UNL     1      27.638   1.172  53.575  1.00  0.00     0.099 A 
HETATM   19  F1  UNL     1      28.958   1.490  53.690  1.00  0.00    -0.210 F 
HETATM   20  C14 UNL     1      26.872   1.327  52.324  1.00  0.00     0.127 A 
ENDBRANCH  13  15
ENDBRANCH   9  13
BRANCH  12  21
HETATM   21  N4  UNL     1      25.245   5.620  50.441  1.00  0.00    -0.321 N 
HETATM   22  C18 UNL     1      25.484   5.953  49.089  1.00  0.00     0.245 C 
HETATM   23  O2  UNL     1      24.558   5.484  48.398  1.00  0.00    -0.268 OA
HETATM   24  H14 UNL     1      25.837   5.867  51.259  1.00  0.00     0.169 HD
BRANCH  22  25
HETATM   25  C19 UNL     1      26.656   6.721  48.715  1.00  0.00     0.072 C 
HETATM   26  C20 UNL     1      27.888   6.481  48.397  1.00  0.00     0.008 C 
BRANCH  26  27
HETATM   27  C21 UNL     1      28.979   5.513  48.168  1.00  0.00     0.299 C 
BRANCH  27  28
HETATM   28  N5  UNL     1      30.261   6.012  48.591  1.00  0.00     0.083 N 
HETATM   29  C22 UNL     1      30.435   7.419  48.311  1.00  0.00     0.309 C 
HETATM   30  C23 UNL     1      31.296   5.309  47.837  1.00  0.00     0.309 C 
ENDBRANCH  27  28
ENDBRANCH  26  27
ENDBRANCH  22  25
ENDBRANCH  12  21
BRANCH   1  31
HETATM   31  O1  UNL     1      22.889   6.984  51.062  1.00  0.00    -0.349 OA
BRANCH  31  32
HETATM   32  C2  UNL     1      21.958   7.521  50.151  1.00  0.00     0.171 C 
HETATM   33  C1  UNL     1      22.602   8.516  49.209  1.00  0.00     0.034 C 
ENDBRANCH  31  32
ENDBRANCH   1  31
TORSDOF 8
ENDMDL
MODEL 9
REMARK VINA RESULT:      -7.6      3.787      6.607
REMARK  8 active torsions:
REMARK  status: ('A' for Active; 'I' for Inactive)
REMARK    1  A    between atoms: C2_2  and  O1_3 
REMARK    2  A    between atoms: O1_3  and  C3_4 
REMARK    3  A    between atoms: C9_12  and  N3_13 
REMARK    4  A    between atoms: N3_13  and  C10_14 
REMARK    5  A    between atoms: C17_22  and  N4_23 
REMARK       I    between atoms: N4_23  and  C18_24 
REMARK    6  A    between atoms: C18_24  and  C19_26 
REMARK    7  A    between atoms: C20_27  and  C21_28 
REMARK    8  A    between atoms: C21_28  and  N5_29 
ROOT
HETATM    1  C3  UNL     1      20.775   0.632  51.585  1.00  0.00     0.097 A 
HETATM    2  C4  UNL     1      21.567  -0.282  52.276  1.00  0.00     0.071 A 
HETATM    3  C5  UNL     1      22.814   0.100  52.721  1.00  0.00     0.071 A 
HETATM    4  N1  UNL     1      23.569  -0.812  53.396  1.00  0.00    -0.259 NA
HETATM    5  C6  UNL     1      24.796  -0.450  53.839  1.00  0.00     0.142 A 
HETATM    6  C7  UNL     1      25.267   0.811  53.612  1.00  0.00     0.089 A 
HETATM    7  C8  UNL     1      26.563   1.171  54.087  1.00  0.00     0.103 C 
HETATM    8  N2  UNL     1      27.613   1.475  54.484  1.00  0.00    -0.191 NA
HETATM    9  C9  UNL     1      24.537   1.771  52.933  1.00  0.00     0.067 A 
HETATM   10  C15 UNL     1      23.283   1.376  52.488  1.00  0.00     0.023 A 
HETATM   11  C16 UNL     1      22.515   2.298  51.804  1.00  0.00     0.048 A 
HETATM   12  C17 UNL     1      21.259   1.928  51.352  1.00  0.00     0.069 A 
ENDROOT
BRANCH   9  13
HETATM   13  N3  UNL     1      25.006   3.099  52.681  1.00  0.00    -0.357 N 
HETATM   14  H8  UNL     1      24.955   3.745  53.470  1.00  0.00     0.166 HD
BRANCH  13  15
HETATM   15  C10 UNL     1      25.508   3.449  51.389  1.00  0.00     0.016 A 
HETATM   16  C11 UNL     1      26.427   2.731  50.745  1.00  0.00     0.028 A 
HETATM   17  C12 UNL     1      26.630   3.458  49.481  1.00  0.00     0.040 A 
HETATM   18  C13 UNL     1      25.884   4.544  49.368  1.00  0.00     0.099 A 
HETATM   19  F1  UNL     1      25.806   5.450  48.354  1.00  0.00    -0.210 F 
HETATM   20  C14 UNL     1      25.083   4.637  50.603  1.00  0.00     0.127 A 
ENDBRANCH  13  15
ENDBRANCH   9  13
BRANCH  12  21
HETATM   21  N4  UNL     1      20.387   2.799  50.642  1.00  0.00    -0.321 N 
HETATM   22  C18 UNL     1      19.350   3.623  51.134  1.00  0.00     0.245 C 
HETATM   23  O2  UNL     1      19.286   3.480  52.371  1.00  0.00    -0.268 OA
HETATM   24  H14 UNL     1      20.687   2.697  49.652  1.00  0.00     0.169 HD
BRANCH  22  25
HETATM   25  C19 UNL     1      18.571   4.446  50.229  1.00  0.00     0.072 C 
HETATM   26  C20 UNL     1      18.753   5.514  49.520  1.00  0.00     0.008 C 
BRANCH  26  27
HETATM   27  C21 UNL     1      19.637   6.606  49.067  1.00  0.00     0.299 C 
BRANCH  27  28
HETATM   28  N5  UNL     1      20.435   6.236  47.928  1.00  0.00     0.083 N 
HETATM   29  C22 UNL     1      19.727   5.386  46.998  1.00  0.00     0.309 C 
HETATM   30  C23 UNL     1      21.580   5.462  48.404  1.00  0.00     0.309 C 
ENDBRANCH  27  28
ENDBRANCH  26  27
ENDBRANCH  22  25
ENDBRANCH  12  21
BRANCH   1  31
HETATM   31  O1  UNL     1      19.528   0.194  51.160  1.00  0.00    -0.349 OA
BRANCH  31  32
HETATM   32  C2  UNL     1      18.549  -0.309  52.040  1.00  0.00     0.171 C 
HETATM   33  C1  UNL     1      17.186  -0.381  51.385  1.00  0.00     0.034 C 
ENDBRANCH  31  32
ENDBRANCH   1  31
TORSDOF 8
ENDMDL
