MODEL 1
REMARK VINA RESULT:      -8.6      0.000      0.000
REMARK  8 active torsions:
REMARK  status: ('A' for Active; 'I' for Inactive)
REMARK    1  A    between atoms: N2_5  and  C4_6 
REMARK    2  A    between atoms: C4_6  and  C5_7 
REMARK    3  A    between atoms: C5_7  and  C6_8 
REMARK    4  A    between atoms: C7_9  and  C8_10 
REMARK    5  A    between atoms: C12_14  and  O1_15 
REMARK    6  A    between atoms: O1_15  and  C13_16 
REMARK    7  A    between atoms: C19_22  and  C20_23 
REMARK    8  A    between atoms: C20_23  and  N3_24 
ROOT
HETATM    1  N3  UNL     1      27.415   0.267  52.707  1.00  0.00    -0.190 NA
HETATM    2  C21 UNL     1      27.256  -0.049  54.069  1.00  0.00     0.205 C 
HETATM    3  N4  UNL     1      27.134  -0.321  55.167  1.00  0.00    -0.170 NA
ENDROOT
BRANCH   1   4
HETATM    4  C20 UNL     1      26.411   0.356  51.919  1.00  0.00     0.110 C 
BRANCH   4   5
HETATM    5  C19 UNL     1      25.754   1.737  51.917  1.00  0.00     0.066 C 
HETATM    6  C12 UNL     1      24.255   1.532  51.616  1.00  0.00     0.113 C 
HETATM    7  C11 UNL     1      24.235   2.460  50.805  1.00  0.00     0.032 C 
HETATM    8  C10 UNL     1      23.955   3.530  49.785  1.00  0.00     0.009 C 
HETATM    9  C9  UNL     1      25.146   4.517  50.095  1.00  0.00     0.005 C 
HETATM   10  C8  UNL     1      26.322   3.520  50.088  1.00  0.00    -0.048 C 
HETATM   11  C22 UNL     1      26.585   2.732  51.362  1.00  0.00     0.018 C 
BRANCH   6  12
HETATM   12  O1  UNL     1      24.065   0.509  52.441  1.00  0.00    -0.336 OA
BRANCH  12  13
HETATM   13  C13 UNL     1      22.859  -0.002  53.003  1.00  0.00     0.070 A 
HETATM   14  C14 UNL     1      21.597   0.054  52.650  1.00  0.00     0.037 A 
HETATM   15  C15 UNL     1      20.684  -0.638  53.518  1.00  0.00     0.003 A 
HETATM   16  C16 UNL     1      21.240  -1.319  54.649  1.00  0.00     0.000 A 
HETATM   17  C17 UNL     1      22.605  -1.276  54.866  1.00  0.00     0.003 A 
HETATM   18  C18 UNL     1      23.470  -0.612  54.055  1.00  0.00     0.037 A 
ENDBRANCH  12  13
ENDBRANCH   6  12
BRANCH  10  19
HETATM   19  C7  UNL     1      26.986   3.678  48.850  1.00  0.00     0.014 C 
HETATM   20  C6  UNL     1      27.503   4.995  48.926  1.00  0.00     0.025 C 
BRANCH  20  21
HETATM   21  C5  UNL     1      28.139   5.928  48.511  1.00  0.00     0.015 C 
BRANCH  21  22
HETATM   22  C4  UNL     1      28.855   7.070  47.959  1.00  0.00     0.131 C 
BRANCH  22  23
HETATM   23  N2  UNL     1      29.746   7.928  48.594  1.00  0.00    -0.349 N 
HETATM   24  C3  UNL     1      31.132   7.418  48.618  1.00  0.00     0.156 C 
HETATM   25  C2  UNL     1      32.103   8.552  48.338  1.00  0.00     0.292 C 
HETATM   26  N1  UNL     1      31.371   9.711  47.869  1.00  0.00     0.094 N 
HETATM   27  C1  UNL     1      32.160  10.606  47.130  1.00  0.00     0.310 C 
HETATM   28  C24 UNL     1      30.598  10.250  48.956  1.00  0.00     0.374 C 
HETATM   29  C23 UNL     1      29.487   9.227  49.192  1.00  0.00     0.248 C 
HETATM   30  O2  UNL     1      28.408   9.303  49.798  1.00  0.00    -0.271 OA
ENDBRANCH  22  23
ENDBRANCH  21  22
ENDBRANCH  20  21
ENDBRANCH  10  19
ENDBRANCH   4   5
ENDBRANCH   1   4
TORSDOF 8
ENDMDL
MODEL 2
REMARK VINA RESULT:      -8.5      4.565      7.109
REMARK  8 active torsions:
REMARK  status: ('A' for Active; 'I' for Inactive)
REMARK    1  A    between atoms: N2_5  and  C4_6 
REMARK    2  A    between atoms: C4_6  and  C5_7 
REMARK    3  A    between atoms: C5_7  and  C6_8 
REMARK    4  A    between atoms: C7_9  and  C8_10 
REMARK    5  A    between atoms: C12_14  and  O1_15 
REMARK    6  A    between atoms: O1_15  and  C13_16 
REMARK    7  A    between atoms: C19_22  and  C20_23 
REMARK    8  A    between atoms: C20_23  and  N3_24 
ROOT
HETATM    1  N3  UNL     1      25.232   2.604  50.952  1.00  0.00    -0.190 NA
HETATM    2  C21 UNL     1      26.157   3.207  50.080  1.00  0.00     0.205 C 
HETATM    3  N4  UNL     1      26.900   3.683  49.362  1.00  0.00    -0.170 NA
ENDROOT
BRANCH   1   4
HETATM    4  C20 UNL     1      25.613   1.883  51.937  1.00  0.00     0.110 C 
BRANCH   4   5
HETATM    5  C19 UNL     1      24.472   1.454  52.861  1.00  0.00     0.066 C 
HETATM    6  C12 UNL     1      24.855   0.087  53.462  1.00  0.00     0.113 C 
HETATM    7  C11 UNL     1      23.732  -0.378  53.262  1.00  0.00     0.032 C 
HETATM    8  C10 UNL     1      22.459  -1.168  53.125  1.00  0.00     0.009 C 
HETATM    9  C9  UNL     1      21.419   0.014  53.015  1.00  0.00     0.005 C 
HETATM   10  C8  UNL     1      22.101   0.864  51.924  1.00  0.00    -0.048 C 
HETATM   11  C22 UNL     1      23.204   1.816  52.359  1.00  0.00     0.018 C 
BRANCH   6  12
HETATM   12  O1  UNL     1      26.113   0.392  53.761  1.00  0.00    -0.336 OA
BRANCH  12  13
HETATM   13  C13 UNL     1      27.307  -0.364  53.575  1.00  0.00     0.070 A 
HETATM   14  C14 UNL     1      27.576  -1.512  53.002  1.00  0.00     0.037 A 
HETATM   15  C15 UNL     1      28.959  -1.901  53.023  1.00  0.00     0.003 A 
HETATM   16  C16 UNL     1      29.887  -1.002  53.641  1.00  0.00     0.000 A 
HETATM   17  C17 UNL     1      29.425   0.178  54.195  1.00  0.00     0.003 A 
HETATM   18  C18 UNL     1      28.115   0.544  54.189  1.00  0.00     0.037 A 
ENDBRANCH  12  13
ENDBRANCH   6  12
BRANCH  10  19
HETATM   19  C7  UNL     1      21.406   0.617  50.717  1.00  0.00     0.014 C 
HETATM   20  C6  UNL     1      21.975   1.554  49.819  1.00  0.00     0.025 C 
BRANCH  20  21
HETATM   21  C5  UNL     1      22.112   2.064  48.738  1.00  0.00     0.015 C 
BRANCH  21  22
HETATM   22  C4  UNL     1      22.280   2.614  47.401  1.00  0.00     0.131 C 
BRANCH  22  23
HETATM   23  N2  UNL     1      21.787   3.806  46.881  1.00  0.00    -0.349 N 
HETATM   24  C3  UNL     1      21.113   4.649  47.890  1.00  0.00     0.156 C 
HETATM   25  C2  UNL     1      21.488   6.105  47.679  1.00  0.00     0.292 C 
HETATM   26  N1  UNL     1      22.589   6.190  46.741  1.00  0.00     0.094 N 
HETATM   27  C1  UNL     1      23.323   7.381  46.850  1.00  0.00     0.310 C 
HETATM   28  C24 UNL     1      22.123   5.815  45.433  1.00  0.00     0.374 C 
HETATM   29  C23 UNL     1      21.876   4.309  45.521  1.00  0.00     0.248 C 
HETATM   30  O2  UNL     1      21.738   3.442  44.646  1.00  0.00    -0.271 OA
ENDBRANCH  22  23
ENDBRANCH  21  22
ENDBRANCH  20  21
ENDBRANCH  10  19
ENDBRANCH   4   5
ENDBRANCH   1   4
TORSDOF 8
ENDMDL
MODEL 3
REMARK VINA RESULT:      -8.4      1.147      1.427
REMARK  8 active torsions:
REMARK  status: ('A' for Active; 'I' for Inactive)
REMARK    1  A    between atoms: N2_5  and  C4_6 
REMARK    2  A    between atoms: C4_6  and  C5_7 
REMARK    3  A    between atoms: C5_7  and  C6_8 
REMARK    4  A    between atoms: C7_9  and  C8_10 
REMARK    5  A    between atoms: C12_14  and  O1_15 
REMARK    6  A    between atoms: O1_15  and  C13_16 
REMARK    7  A    between atoms: C19_22  and  C20_23 
REMARK    8  A    between atoms: C20_23  and  N3_24 
ROOT
HETATM    1  N3  UNL     1      27.257   0.324  52.468  1.00  0.00    -0.190 NA
HETATM    2  C21 UNL     1      27.794  -0.038  53.717  1.00  0.00     0.205 C 
HETATM    3  N4  UNL     1      28.234  -0.347  54.720  1.00  0.00    -0.170 NA
ENDROOT
BRANCH   1   4
HETATM    4  C20 UNL     1      25.997   0.309  52.252  1.00  0.00     0.110 C 
BRANCH   4   5
HETATM    5  C19 UNL     1      25.385   1.703  52.097  1.00  0.00     0.066 C 
HETATM    6  C12 UNL     1      23.905   1.514  51.706  1.00  0.00     0.113 C 
HETATM    7  C11 UNL     1      23.971   2.376  50.828  1.00  0.00     0.032 C 
HETATM    8  C10 UNL     1      23.795   3.369  49.711  1.00  0.00     0.009 C 
HETATM    9  C9  UNL     1      24.992   4.346  50.029  1.00  0.00     0.005 C 
HETATM   10  C8  UNL     1      26.134   3.321  50.182  1.00  0.00    -0.048 C 
HETATM   11  C22 UNL     1      26.284   2.629  51.528  1.00  0.00     0.018 C 
BRANCH   6  12
HETATM   12  O1  UNL     1      23.627   0.565  52.592  1.00  0.00    -0.336 OA
BRANCH  12  13
HETATM   13  C13 UNL     1      22.368   0.034  52.999  1.00  0.00     0.070 A 
HETATM   14  C14 UNL     1      21.129   0.246  52.628  1.00  0.00     0.037 A 
HETATM   15  C15 UNL     1      20.138  -0.544  53.306  1.00  0.00     0.003 A 
HETATM   16  C16 UNL     1      20.602  -1.477  54.289  1.00  0.00     0.000 A 
HETATM   17  C17 UNL     1      21.956  -1.574  54.551  1.00  0.00     0.003 A 
HETATM   18  C18 UNL     1      22.895  -0.819  53.921  1.00  0.00     0.037 A 
ENDBRANCH  12  13
ENDBRANCH   6  12
BRANCH  10  19
HETATM   19  C7  UNL     1      26.887   3.364  48.985  1.00  0.00     0.014 C 
HETATM   20  C6  UNL     1      27.323   4.711  48.926  1.00  0.00     0.025 C 
BRANCH  20  21
HETATM   21  C5  UNL     1      27.937   5.624  48.439  1.00  0.00     0.015 C 
BRANCH  21  22
HETATM   22  C4  UNL     1      28.735   6.682  47.837  1.00  0.00     0.131 C 
BRANCH  22  23
HETATM   23  N2  UNL     1      30.027   7.087  48.154  1.00  0.00    -0.349 N 
HETATM   24  C3  UNL     1      30.823   6.032  48.815  1.00  0.00     0.156 C 
HETATM   25  C2  UNL     1      32.241   6.039  48.269  1.00  0.00     0.292 C 
HETATM   26  N1  UNL     1      32.302   6.881  47.091  1.00  0.00     0.094 N 
HETATM   27  C1  UNL     1      33.379   6.579  46.246  1.00  0.00     0.310 C 
HETATM   28  C24 UNL     1      32.133   8.254  47.486  1.00  0.00     0.374 C 
HETATM   29  C23 UNL     1      30.666   8.367  47.900  1.00  0.00     0.248 C 
HETATM   30  O2  UNL     1      29.924   9.348  48.059  1.00  0.00    -0.271 OA
ENDBRANCH  22  23
ENDBRANCH  21  22
ENDBRANCH  20  21
ENDBRANCH  10  19
ENDBRANCH   4   5
ENDBRANCH   1   4
TORSDOF 8
ENDMDL
MODEL 4
REMARK VINA RESULT:      -8.2      5.344      8.129
REMARK  8 active torsions:
REMARK  status: ('A' for Active; 'I' for Inactive)
REMARK    1  A    between atoms: N2_5  and  C4_6 
REMARK    2  A    between atoms: C4_6  and  C5_7 
REMARK    3  A    between atoms: C5_7  and  C6_8 
REMARK    4  A    between atoms: C7_9  and  C8_10 
REMARK    5  A    between atoms: C12_14  and  O1_15 
REMARK    6  A    between atoms: O1_15  and  C13_16 
REMARK    7  A    between atoms: C19_22  and  C20_23 
REMARK    8  A    between atoms: C20_23  and  N3_24 
ROOT
HETATM    1  N3  UNL     1      23.727   2.100  50.949  1.00  0.00    -0.190 NA
HETATM    2  C21 UNL     1      24.155   3.369  50.517  1.00  0.00     0.205 C 
HETATM    3  N4  UNL     1      24.502   4.388  50.150  1.00  0.00    -0.170 NA
ENDROOT
BRANCH   1   4
HETATM    4  C20 UNL     1      24.481   1.343  51.652  1.00  0.00     0.110 C 
BRANCH   4   5
HETATM    5  C19 UNL     1      23.923   1.044  53.044  1.00  0.00     0.066 C 
HETATM    6  C12 UNL     1      24.553  -0.282  53.518  1.00  0.00     0.113 C 
HETATM    7  C11 UNL     1      23.473  -0.714  53.923  1.00  0.00     0.032 C 
HETATM    8  C10 UNL     1      22.293  -1.458  54.485  1.00  0.00     0.009 C 
HETATM    9  C9  UNL     1      21.322  -0.248  54.772  1.00  0.00     0.005 C 
HETATM   10  C8  UNL     1      21.396   0.476  53.412  1.00  0.00    -0.048 C 
HETATM   11  C22 UNL     1      22.569   1.414  53.176  1.00  0.00     0.018 C 
BRANCH   6  12
HETATM   12  O1  UNL     1      25.800  -0.005  53.150  1.00  0.00    -0.336 OA
BRANCH  12  13
HETATM   13  C13 UNL     1      26.955  -0.839  53.135  1.00  0.00     0.070 A 
HETATM   14  C14 UNL     1      27.185  -2.067  52.737  1.00  0.00     0.037 A 
HETATM   15  C15 UNL     1      28.541  -2.520  52.890  1.00  0.00     0.003 A 
HETATM   16  C16 UNL     1      29.487  -1.593  53.436  1.00  0.00     0.000 A 
HETATM   17  C17 UNL     1      29.067  -0.327  53.799  1.00  0.00     0.003 A 
HETATM   18  C18 UNL     1      27.783   0.101  53.669  1.00  0.00     0.037 A 
ENDBRANCH  12  13
ENDBRANCH   6  12
BRANCH  10  19
HETATM   19  C7  UNL     1      20.209   0.156  52.713  1.00  0.00     0.014 C 
HETATM   20  C6  UNL     1      20.258   1.012  51.585  1.00  0.00     0.025 C 
BRANCH  20  21
HETATM   21  C5  UNL     1      19.848   1.438  50.537  1.00  0.00     0.015 C 
BRANCH  21  22
HETATM   22  C4  UNL     1      19.348   1.885  49.244  1.00  0.00     0.131 C 
BRANCH  22  23
HETATM   23  N2  UNL     1      20.041   2.506  48.211  1.00  0.00    -0.349 N 
HETATM   24  C3  UNL     1      19.214   3.460  47.443  1.00  0.00     0.156 C 
HETATM   25  C2  UNL     1      20.024   4.706  47.128  1.00  0.00     0.292 C 
HETATM   26  N1  UNL     1      21.251   4.694  47.900  1.00  0.00     0.094 N 
HETATM   27  C1  UNL     1      21.812   5.968  48.072  1.00  0.00     0.310 C 
HETATM   28  C24 UNL     1      22.109   3.653  47.402  1.00  0.00     0.374 C 
HETATM   29  C23 UNL     1      21.434   2.349  47.829  1.00  0.00     0.248 C 
HETATM   30  O2  UNL     1      21.858   1.187  47.909  1.00  0.00    -0.271 OA
ENDBRANCH  22  23
ENDBRANCH  21  22
ENDBRANCH  20  21
ENDBRANCH  10  19
ENDBRANCH   4   5
ENDBRANCH   1   4
TORSDOF 8
ENDMDL
MODEL 5
REMARK VINA RESULT:      -8.2      6.026     10.875
REMARK  8 active torsions:
REMARK  status: ('A' for Active; 'I' for Inactive)
REMARK    1  A    between atoms: N2_5  and  C4_6 
REMARK    2  A    between atoms: C4_6  and  C5_7 
REMARK    3  A    between atoms: C5_7  and  C6_8 
REMARK    4  A    between atoms: C7_9  and  C8_10 
REMARK    5  A    between atoms: C12_14  and  O1_15 
REMARK    6  A    between atoms: O1_15  and  C13_16 
REMARK    7  A    between atoms: C19_22  and  C20_23 
REMARK    8  A    between atoms: C20_23  and  N3_24 
ROOT
HETATM    1  N3  UNL     1      22.723   2.117  50.689  1.00  0.00    -0.190 NA
HETATM    2  C21 UNL     1      22.013   1.485  49.651  1.00  0.00     0.205 C 
HETATM    3  N4  UNL     1      21.425   0.971  48.824  1.00  0.00    -0.170 NA
ENDROOT
BRANCH   1   4
HETATM    4  C20 UNL     1      23.720   1.554  51.257  1.00  0.00     0.110 C 
BRANCH   4   5
HETATM    5  C19 UNL     1      23.490   1.248  52.738  1.00  0.00     0.066 C 
HETATM    6  C12 UNL     1      24.451   0.106  53.127  1.00  0.00     0.113 C 
HETATM    7  C11 UNL     1      23.571  -0.499  53.741  1.00  0.00     0.032 C 
HETATM    8  C10 UNL     1      22.686  -1.420  54.536  1.00  0.00     0.009 C 
HETATM    9  C9  UNL     1      21.555  -0.405  54.961  1.00  0.00     0.005 C 
HETATM   10  C8  UNL     1      21.238   0.224  53.590  1.00  0.00    -0.048 C 
HETATM   11  C22 UNL     1      22.133   1.355  53.109  1.00  0.00     0.018 C 
BRANCH   6  12
HETATM   12  O1  UNL     1      25.530   0.595  52.525  1.00  0.00    -0.336 OA
BRANCH  12  13
HETATM   13  C13 UNL     1      26.891   0.596  52.947  1.00  0.00     0.070 A 
HETATM   14  C14 UNL     1      27.716   1.531  53.353  1.00  0.00     0.037 A 
HETATM   15  C15 UNL     1      29.032   1.077  53.711  1.00  0.00     0.003 A 
HETATM   16  C16 UNL     1      29.296  -0.327  53.605  1.00  0.00     0.000 A 
HETATM   17  C17 UNL     1      28.299  -1.175  53.160  1.00  0.00     0.003 A 
HETATM   18  C18 UNL     1      27.057  -0.748  52.808  1.00  0.00     0.037 A 
ENDBRANCH  12  13
ENDBRANCH   6  12
BRANCH  10  19
HETATM   19  C7  UNL     1      20.037  -0.369  53.134  1.00  0.00     0.014 C 
HETATM   20  C6  UNL     1      19.449   0.653  52.348  1.00  0.00     0.025 C 
BRANCH  20  21
HETATM   21  C5  UNL     1      18.606   1.098  51.615  1.00  0.00     0.015 C 
BRANCH  21  22
HETATM   22  C4  UNL     1      17.616   1.702  50.734  1.00  0.00     0.131 C 
BRANCH  22  23
HETATM   23  N2  UNL     1      16.360   2.207  51.051  1.00  0.00    -0.349 N 
HETATM   24  C3  UNL     1      15.270   1.608  50.254  1.00  0.00     0.156 C 
HETATM   25  C2  UNL     1      14.067   1.345  51.142  1.00  0.00     0.292 C 
HETATM   26  N1  UNL     1      14.447   1.504  52.531  1.00  0.00     0.094 N 
HETATM   27  C1  UNL     1      13.601   0.825  53.421  1.00  0.00     0.310 C 
HETATM   28  C24 UNL     1      14.704   2.895  52.792  1.00  0.00     0.374 C 
HETATM   29  C23 UNL     1      16.007   3.198  52.053  1.00  0.00     0.248 C 
HETATM   30  O2  UNL     1      16.816   4.133  52.153  1.00  0.00    -0.271 OA
ENDBRANCH  22  23
ENDBRANCH  21  22
ENDBRANCH  20  21
ENDBRANCH  10  19
ENDBRANCH   4   5
ENDBRANCH   1   4
TORSDOF 8
ENDMDL
MODEL 6
REMARK VINA RESULT:      -8.0      2.549      3.505
REMARK  8 active torsions:
REMARK  status: ('A' for Active; 'I' for Inactive)
REMARK    1  A    between atoms: N2_5  and  C4_6 
REMARK    2  A    between atoms: C4_6  and  C5_7 
REMARK    3  A    between atoms: C5_7  and  C6_8 
REMARK    4  A    between atoms: C7_9  and  C8_10 
REMARK    5  A    between atoms: C12_14  and  O1_15 
REMARK    6  A    between atoms: O1_15  and  C13_16 
REMARK    7  A    between atoms: C19_22  and  C20_23 
REMARK    8  A    between atoms: C20_23  and  N3_24 
ROOT
HETATM    1  N3  UNL     1      21.646   4.249  49.932  1.00  0.00    -0.190 NA
HETATM    2  C21 UNL     1      21.660   5.479  50.615  1.00  0.00     0.205 C 
HETATM    3  N4  UNL     1      21.686   6.478  51.159  1.00  0.00    -0.170 NA
ENDROOT
BRANCH   1   4
HETATM    4  C20 UNL     1      21.921   3.150  50.525  1.00  0.00     0.110 C 
BRANCH   4   5
HETATM    5  C19 UNL     1      23.258   2.541  50.099  1.00  0.00     0.066 C 
HETATM    6  C12 UNL     1      23.838   1.801  51.322  1.00  0.00     0.113 C 
HETATM    7  C11 UNL     1      24.963   2.269  51.141  1.00  0.00     0.032 C 
HETATM    8  C10 UNL     1      26.404   2.702  51.137  1.00  0.00     0.009 C 
HETATM    9  C9  UNL     1      26.551   3.133  49.626  1.00  0.00     0.005 C 
HETATM   10  C8  UNL     1      25.313   4.041  49.489  1.00  0.00    -0.048 C 
HETATM   11  C22 UNL     1      23.975   3.373  49.214  1.00  0.00     0.018 C 
BRANCH   6  12
HETATM   12  O1  UNL     1      22.714   1.196  51.688  1.00  0.00    -0.336 OA
BRANCH  12  13
HETATM   13  C13 UNL     1      22.466   0.304  52.772  1.00  0.00     0.070 A 
HETATM   14  C14 UNL     1      23.232  -0.279  53.663  1.00  0.00     0.037 A 
HETATM   15  C15 UNL     1      22.546  -1.107  54.617  1.00  0.00     0.003 A 
HETATM   16  C16 UNL     1      21.120  -1.194  54.508  1.00  0.00     0.000 A 
HETATM   17  C17 UNL     1      20.471  -0.501  53.503  1.00  0.00     0.003 A 
HETATM   18  C18 UNL     1      21.117   0.272  52.590  1.00  0.00     0.037 A 
ENDBRANCH  12  13
ENDBRANCH   6  12
BRANCH  10  19
HETATM   19  C7  UNL     1      25.777   5.377  49.542  1.00  0.00     0.014 C 
HETATM   20  C6  UNL     1      26.994   5.325  48.818  1.00  0.00     0.025 C 
BRANCH  20  21
HETATM   21  C5  UNL     1      27.974   5.815  48.322  1.00  0.00     0.015 C 
BRANCH  21  22
HETATM   22  C4  UNL     1      29.166   6.453  47.780  1.00  0.00     0.131 C 
BRANCH  22  23
HETATM   23  N2  UNL     1      30.295   6.904  48.454  1.00  0.00    -0.349 N 
HETATM   24  C3  UNL     1      31.108   5.812  49.028  1.00  0.00     0.156 C 
HETATM   25  C2  UNL     1      32.584   6.106  48.822  1.00  0.00     0.292 C 
HETATM   26  N1  UNL     1      32.733   7.214  47.899  1.00  0.00     0.094 N 
HETATM   27  C1  UNL     1      33.984   7.246  47.267  1.00  0.00     0.310 C 
HETATM   28  C24 UNL     1      32.280   8.421  48.537  1.00  0.00     0.374 C 
HETATM   29  C23 UNL     1      30.762   8.269  48.632  1.00  0.00     0.248 C 
HETATM   30  O2  UNL     1      29.859   9.095  48.834  1.00  0.00    -0.271 OA
ENDBRANCH  22  23
ENDBRANCH  21  22
ENDBRANCH  20  21
ENDBRANCH  10  19
ENDBRANCH   4   5
ENDBRANCH   1   4
TORSDOF 8
ENDMDL
MODEL 7
REMARK VINA RESULT:      -7.7      2.684      3.582
REMARK  8 active torsions:
REMARK  status: ('A' for Active; 'I' for Inactive)
REMARK    1  A    between atoms: N2_5  and  C4_6 
REMARK    2  A    between atoms: C4_6  and  C5_7 
REMARK    3  A    between atoms: C5_7  and  C6_8 
REMARK    4  A    between atoms: C7_9  and  C8_10 
REMARK    5  A    between atoms: C12_14  and  O1_15 
REMARK    6  A    between atoms: O1_15  and  C13_16 
REMARK    7  A    between atoms: C19_22  and  C20_23 
REMARK    8  A    between atoms: C20_23  and  N3_24 
ROOT
HETATM    1  N3  UNL     1      21.522   4.448  49.822  1.00  0.00    -0.190 NA
HETATM    2  C21 UNL     1      21.705   5.702  50.434  1.00  0.00     0.205 C 
HETATM    3  N4  UNL     1      21.867   6.718  50.918  1.00  0.00    -0.170 NA
ENDROOT
BRANCH   1   4
HETATM    4  C20 UNL     1      21.773   3.358  50.442  1.00  0.00     0.110 C 
BRANCH   4   5
HETATM    5  C19 UNL     1      23.070   2.683  49.993  1.00  0.00     0.066 C 
HETATM    6  C12 UNL     1      23.593   1.853  51.183  1.00  0.00     0.113 C 
HETATM    7  C11 UNL     1      24.747   2.254  51.027  1.00  0.00     0.032 C 
HETATM    8  C10 UNL     1      26.213   2.593  51.047  1.00  0.00     0.009 C 
HETATM    9  C9  UNL     1      26.398   3.080  49.557  1.00  0.00     0.005 C 
HETATM   10  C8  UNL     1      25.222   4.072  49.458  1.00  0.00    -0.048 C 
HETATM   11  C22 UNL     1      23.845   3.505  49.149  1.00  0.00     0.018 C 
BRANCH   6  12
HETATM   12  O1  UNL     1      22.430   1.306  51.518  1.00  0.00    -0.336 OA
BRANCH  12  13
HETATM   13  C13 UNL     1      22.005   0.748  52.759  1.00  0.00     0.070 A 
HETATM   14  C14 UNL     1      20.932   0.887  53.499  1.00  0.00     0.037 A 
HETATM   15  C15 UNL     1      20.904   0.097  54.698  1.00  0.00     0.003 A 
HETATM   16  C16 UNL     1      22.024  -0.760  54.949  1.00  0.00     0.000 A 
HETATM   17  C17 UNL     1      23.075  -0.785  54.051  1.00  0.00     0.003 A 
HETATM   18  C18 UNL     1      23.112  -0.029  52.921  1.00  0.00     0.037 A 
ENDBRANCH  12  13
ENDBRANCH   6  12
BRANCH  10  19
HETATM   19  C7  UNL     1      25.771   5.371  49.572  1.00  0.00     0.014 C 
HETATM   20  C6  UNL     1      27.002   5.263  48.878  1.00  0.00     0.025 C 
BRANCH  20  21
HETATM   21  C5  UNL     1      28.026   5.704  48.427  1.00  0.00     0.015 C 
BRANCH  21  22
HETATM   22  C4  UNL     1      29.257   6.194  47.822  1.00  0.00     0.131 C 
BRANCH  22  23
HETATM   23  N2  UNL     1      29.810   7.469  47.883  1.00  0.00    -0.349 N 
HETATM   24  C3  UNL     1      29.512   8.292  46.693  1.00  0.00     0.156 C 
HETATM   25  C2  UNL     1      29.190   9.714  47.119  1.00  0.00     0.292 C 
HETATM   26  N1  UNL     1      29.008   9.760  48.556  1.00  0.00     0.094 N 
HETATM   27  C1  UNL     1      28.245  10.856  48.986  1.00  0.00     0.310 C 
HETATM   28  C24 UNL     1      30.277   9.542  49.198  1.00  0.00     0.374 C 
HETATM   29  C23 UNL     1      30.595   8.068  48.949  1.00  0.00     0.248 C 
HETATM   30  O2  UNL     1      31.398   7.292  49.489  1.00  0.00    -0.271 OA
ENDBRANCH  22  23
ENDBRANCH  21  22
ENDBRANCH  20  21
ENDBRANCH  10  19
ENDBRANCH   4   5
ENDBRANCH   1   4
TORSDOF 8
ENDMDL
MODEL 8
REMARK VINA RESULT:      -7.7      5.250      7.279
REMARK  8 active torsions:
REMARK  status: ('A' for Active; 'I' for Inactive)
REMARK    1  A    between atoms: N2_5  and  C4_6 
REMARK    2  A    between atoms: C4_6  and  C5_7 
REMARK    3  A    between atoms: C5_7  and  C6_8 
REMARK    4  A    between atoms: C7_9  and  C8_10 
REMARK    5  A    between atoms: C12_14  and  O1_15 
REMARK    6  A    between atoms: O1_15  and  C13_16 
REMARK    7  A    between atoms: C19_22  and  C20_23 
REMARK    8  A    between atoms: C20_23  and  N3_24 
ROOT
HETATM    1  N3  UNL     1      19.445   1.558  50.869  1.00  0.00    -0.190 NA
HETATM    2  C21 UNL     1      19.521   2.952  50.698  1.00  0.00     0.205 C 
HETATM    3  N4  UNL     1      19.600   4.079  50.555  1.00  0.00    -0.170 NA
ENDROOT
BRANCH   1   4
HETATM    4  C20 UNL     1      19.312   1.033  52.027  1.00  0.00     0.110 C 
BRANCH   4   5
HETATM    5  C19 UNL     1      20.298  -0.105  52.302  1.00  0.00     0.066 C 
HETATM    6  C12 UNL     1      19.895  -0.749  53.644  1.00  0.00     0.113 C 
HETATM    7  C11 UNL     1      21.061  -0.783  54.040  1.00  0.00     0.032 C 
HETATM    8  C10 UNL     1      22.382  -0.931  54.745  1.00  0.00     0.009 C 
HETATM    9  C9  UNL     1      23.355  -0.896  53.503  1.00  0.00     0.005 C 
HETATM   10  C8  UNL     1      22.825   0.363  52.789  1.00  0.00    -0.048 C 
HETATM   11  C22 UNL     1      21.610   0.205  51.889  1.00  0.00     0.018 C 
BRANCH   6  12
HETATM   12  O1  UNL     1      18.589  -0.804  53.408  1.00  0.00    -0.336 OA
BRANCH  12  13
HETATM   13  C13 UNL     1      17.724  -1.932  53.305  1.00  0.00     0.070 A 
HETATM   14  C14 UNL     1      17.782  -3.165  53.747  1.00  0.00     0.037 A 
HETATM   15  C15 UNL     1      16.650  -3.989  53.422  1.00  0.00     0.003 A 
HETATM   16  C16 UNL     1      15.588  -3.384  52.677  1.00  0.00     0.000 A 
HETATM   17  C17 UNL     1      15.693  -2.059  52.295  1.00  0.00     0.003 A 
HETATM   18  C18 UNL     1      16.767  -1.280  52.589  1.00  0.00     0.037 A 
ENDBRANCH  12  13
ENDBRANCH   6  12
BRANCH  10  19
HETATM   19  C7  UNL     1      23.733   1.409  53.076  1.00  0.00     0.014 C 
HETATM   20  C6  UNL     1      23.096   2.550  52.526  1.00  0.00     0.025 C 
BRANCH  20  21
HETATM   21  C5  UNL     1      23.004   3.727  52.298  1.00  0.00     0.015 C 
BRANCH  21  22
HETATM   22  C4  UNL     1      22.821   5.148  52.039  1.00  0.00     0.131 C 
BRANCH  22  23
HETATM   23  N2  UNL     1      22.975   5.842  50.843  1.00  0.00    -0.349 N 
HETATM   24  C3  UNL     1      24.254   5.553  50.160  1.00  0.00     0.156 C 
HETATM   25  C2  UNL     1      24.021   5.421  48.665  1.00  0.00     0.292 C 
HETATM   26  N1  UNL     1      22.599   5.347  48.402  1.00  0.00     0.094 N 
HETATM   27  C1  UNL     1      22.291   4.742  47.174  1.00  0.00     0.310 C 
HETATM   28  C24 UNL     1      22.002   6.626  48.679  1.00  0.00     0.374 C 
HETATM   29  C23 UNL     1      22.051   6.761  50.201  1.00  0.00     0.248 C 
HETATM   30  O2  UNL     1      21.449   7.509  50.984  1.00  0.00    -0.271 OA
ENDBRANCH  22  23
ENDBRANCH  21  22
ENDBRANCH  20  21
ENDBRANCH  10  19
ENDBRANCH   4   5
ENDBRANCH   1   4
TORSDOF 8
ENDMDL
MODEL 9
REMARK VINA RESULT:      -7.7      1.614      2.383
REMARK  8 active torsions:
REMARK  status: ('A' for Active; 'I' for Inactive)
REMARK    1  A    between atoms: N2_5  and  C4_6 
REMARK    2  A    between atoms: C4_6  and  C5_7 
REMARK    3  A    between atoms: C5_7  and  C6_8 
REMARK    4  A    between atoms: C7_9  and  C8_10 
REMARK    5  A    between atoms: C12_14  and  O1_15 
REMARK    6  A    between atoms: O1_15  and  C13_16 
REMARK    7  A    between atoms: C19_22  and  C20_23 
REMARK    8  A    between atoms: C20_23  and  N3_24 
ROOT
HETATM    1  N3  UNL     1      26.125   1.163  52.776  1.00  0.00    -0.190 NA
HETATM    2  C21 UNL     1      26.333  -0.160  53.206  1.00  0.00     0.205 C 
HETATM    3  N4  UNL     1      26.491  -1.236  53.540  1.00  0.00    -0.170 NA
ENDROOT
BRANCH   1   4
HETATM    4  C20 UNL     1      25.324   1.949  53.390  1.00  0.00     0.110 C 
BRANCH   4   5
HETATM    5  C19 UNL     1      24.489   2.827  52.456  1.00  0.00     0.066 C 
HETATM    6  C12 UNL     1      23.256   2.005  52.031  1.00  0.00     0.113 C 
HETATM    7  C11 UNL     1      23.373   2.337  50.850  1.00  0.00     0.032 C 
HETATM    8  C10 UNL     1      23.303   2.588  49.369  1.00  0.00     0.009 C 
HETATM    9  C9  UNL     1      24.120   3.935  49.285  1.00  0.00     0.005 C 
HETATM   10  C8  UNL     1      25.369   3.536  50.096  1.00  0.00    -0.048 C 
HETATM   11  C22 UNL     1      25.285   3.628  51.611  1.00  0.00     0.018 C 
BRANCH   6  12
HETATM   12  O1  UNL     1      22.956   1.533  53.236  1.00  0.00    -0.336 OA
BRANCH  12  13
HETATM   13  C13 UNL     1      22.315   0.316  53.609  1.00  0.00     0.070 A 
HETATM   14  C14 UNL     1      22.745  -0.839  54.055  1.00  0.00     0.037 A 
HETATM   15  C15 UNL     1      21.724  -1.811  54.333  1.00  0.00     0.003 A 
HETATM   16  C16 UNL     1      20.364  -1.418  54.113  1.00  0.00     0.000 A 
HETATM   17  C17 UNL     1      20.091  -0.148  53.641  1.00  0.00     0.003 A 
HETATM   18  C18 UNL     1      21.054   0.770  53.365  1.00  0.00     0.037 A 
ENDBRANCH  12  13
ENDBRANCH   6  12
BRANCH  10  19
HETATM   19  C7  UNL     1      26.397   3.272  49.161  1.00  0.00     0.014 C 
HETATM   20  C6  UNL     1      27.078   4.512  49.072  1.00  0.00     0.025 C 
BRANCH  20  21
HETATM   21  C5  UNL     1      27.956   5.233  48.676  1.00  0.00     0.015 C 
BRANCH  21  22
HETATM   22  C4  UNL     1      28.970   6.159  48.192  1.00  0.00     0.131 C 
BRANCH  22  23
HETATM   23  N2  UNL     1      28.829   7.497  47.838  1.00  0.00    -0.349 N 
HETATM   24  C3  UNL     1      27.857   7.713  46.747  1.00  0.00     0.156 C 
HETATM   25  C2  UNL     1      27.017   8.944  47.042  1.00  0.00     0.292 C 
HETATM   26  N1  UNL     1      27.237   9.363  48.411  1.00  0.00     0.094 N 
HETATM   27  C1  UNL     1      26.189  10.139  48.931  1.00  0.00     0.310 C 
HETATM   28  C24 UNL     1      28.572   9.883  48.536  1.00  0.00     0.374 C 
HETATM   29  C23 UNL     1      29.482   8.661  48.411  1.00  0.00     0.248 C 
HETATM   30  O2  UNL     1      30.673   8.483  48.709  1.00  0.00    -0.271 OA
ENDBRANCH  22  23
ENDBRANCH  21  22
ENDBRANCH  20  21
ENDBRANCH  10  19
ENDBRANCH   4   5
ENDBRANCH   1   4
TORSDOF 8
ENDMDL
