MODEL 1
REMARK VINA RESULT:      -7.6      0.000      0.000
REMARK  6 active torsions:
REMARK  status: ('A' for Active; 'I' for Inactive)
REMARK    1  A    between atoms: O1_2  and  C2_3 
REMARK    2  A    between atoms: C6_8  and  N2_9 
REMARK    3  A    between atoms: N2_9  and  C7_10 
REMARK    4  A    between atoms: C10_14  and  N4_15 
REMARK    5  A    between atoms: N4_15  and  C11_16 
REMARK    6  A    between atoms: C16_21  and  O2_22 
ROOT
HETATM    1  C7  UNL     1      21.947  -0.279  52.994  1.00  0.00     0.148 A 
HETATM    2  C8  UNL     1      21.735  -0.902  54.206  1.00  0.00     0.071 A 
HETATM    3  C9  UNL     1      22.807  -1.187  55.052  1.00  0.00     0.140 A 
HETATM    4  N3  UNL     1      24.046  -0.826  54.625  1.00  0.00    -0.075 NA
HETATM    5  C10 UNL     1      24.257  -0.218  53.441  1.00  0.00     0.728 A 
HETATM    6  N5  UNL     1      23.212   0.064  52.609  1.00  0.00    -0.045 NA
ENDROOT
BRANCH   1   7
HETATM    7  N2  UNL     1      20.843  -0.009  52.155  1.00  0.00    -0.336 N 
HETATM    8  H7  UNL     1      20.151  -0.731  51.887  1.00  0.00     0.168 HD
BRANCH   7   9
HETATM    9  C6  UNL     1      20.711   1.318  51.676  1.00  0.00     0.098 C 
HETATM   10  C2  UNL     1      21.222   1.962  50.455  1.00  0.00     0.095 C 
HETATM   11  C3  UNL     1      21.349   3.275  50.529  1.00  0.00     0.034 C 
HETATM   12  C4  UNL     1      21.008   4.066  51.746  1.00  0.00     0.179 C 
HETATM   13  N1  UNL     1      20.310   3.278  52.714  1.00  0.00    -0.281 NA
HETATM   14  C5  UNL     1      20.008   2.074  52.495  1.00  0.00     0.111 C 
BRANCH  10  15
HETATM   15  O1  UNL     1      21.478   1.051  49.441  1.00  0.00    -0.354 OA
HETATM   16  C1  UNL     1      21.981   1.539  48.190  1.00  0.00     0.210 C 
ENDBRANCH  10  15
ENDBRANCH   7   9
ENDBRANCH   1   7
BRANCH   5  17
HETATM   17  N4  UNL     1      25.615   0.086  53.160  1.00  0.00    -0.185 N 
HETATM   18  H10 UNL     1      25.518   1.088  52.861  1.00  0.00     0.184 HD
BRANCH  17  19
HETATM   19  C11 UNL     1      26.867  -0.581  53.195  1.00  0.00     0.082 A 
HETATM   20  C12 UNL     1      26.957  -1.883  52.755  1.00  0.00     0.033 A 
HETATM   21  C13 UNL     1      28.155  -2.562  52.788  1.00  0.00     0.002 A 
HETATM   22  C14 UNL     1      29.231  -1.856  53.286  1.00  0.00     0.003 A 
HETATM   23  C15 UNL     1      29.137  -0.558  53.724  1.00  0.00     0.039 A 
HETATM   24  C16 UNL     1      27.944   0.122  53.691  1.00  0.00     0.095 A 
BRANCH  24  25
HETATM   25  O2  UNL     1      27.836   1.429  54.129  1.00  0.00    -0.354 OA
HETATM   26  C17 UNL     1      28.642   2.499  53.710  1.00  0.00     0.210 C 
ENDBRANCH  24  25
ENDBRANCH  17  19
ENDBRANCH   5  17
TORSDOF 6
ENDMDL
MODEL 2
REMARK VINA RESULT:      -7.3      3.857      7.083
REMARK  6 active torsions:
REMARK  status: ('A' for Active; 'I' for Inactive)
REMARK    1  A    between atoms: O1_2  and  C2_3 
REMARK    2  A    between atoms: C6_8  and  N2_9 
REMARK    3  A    between atoms: N2_9  and  C7_10 
REMARK    4  A    between atoms: C10_14  and  N4_15 
REMARK    5  A    between atoms: N4_15  and  C11_16 
REMARK    6  A    between atoms: C16_21  and  O2_22 
ROOT
HETATM    1  C7  UNL     1      24.838   1.998  52.783  1.00  0.00     0.148 A 
HETATM    2  C8  UNL     1      23.730   1.192  52.624  1.00  0.00     0.071 A 
HETATM    3  C9  UNL     1      22.970   1.256  51.455  1.00  0.00     0.140 A 
HETATM    4  N3  UNL     1      23.373   2.138  50.504  1.00  0.00    -0.075 NA
HETATM    5  C10 UNL     1      24.455   2.927  50.656  1.00  0.00     0.728 A 
HETATM    6  N5  UNL     1      25.202   2.868  51.797  1.00  0.00    -0.045 NA
ENDROOT
BRANCH   1   7
HETATM    7  N2  UNL     1      25.584   1.916  53.981  1.00  0.00    -0.336 N 
HETATM    8  H7  UNL     1      25.198   2.187  54.903  1.00  0.00     0.168 HD
BRANCH   7   9
HETATM    9  C6  UNL     1      26.914   1.439  53.875  1.00  0.00     0.098 C 
HETATM   10  C2  UNL     1      27.470   0.084  54.013  1.00  0.00     0.095 C 
HETATM   11  C3  UNL     1      28.751   0.037  54.336  1.00  0.00     0.034 C 
HETATM   12  C4  UNL     1      29.589   1.251  54.551  1.00  0.00     0.179 C 
HETATM   13  N1  UNL     1      28.916   2.442  54.132  1.00  0.00    -0.281 NA
HETATM   14  C5  UNL     1      27.769   2.407  53.610  1.00  0.00     0.111 C 
BRANCH  10  15
HETATM   15  O1  UNL     1      26.527  -0.905  53.775  1.00  0.00    -0.354 OA
HETATM   16  C1  UNL     1      26.668  -1.719  52.603  1.00  0.00     0.210 C 
ENDBRANCH  10  15
ENDBRANCH   7   9
ENDBRANCH   1   7
BRANCH   5  17
HETATM   17  N4  UNL     1      24.726   3.787  49.559  1.00  0.00    -0.185 N 
HETATM   18  H10 UNL     1      23.877   3.602  48.970  1.00  0.00     0.184 HD
BRANCH  17  19
HETATM   19  C11 UNL     1      25.744   4.694  49.165  1.00  0.00     0.082 A 
HETATM   20  C12 UNL     1      27.021   4.229  48.944  1.00  0.00     0.033 A 
HETATM   21  C13 UNL     1      28.035   5.085  48.573  1.00  0.00     0.002 A 
HETATM   22  C14 UNL     1      27.680   6.412  48.445  1.00  0.00     0.003 A 
HETATM   23  C15 UNL     1      26.406   6.873  48.667  1.00  0.00     0.039 A 
HETATM   24  C16 UNL     1      25.393   6.021  49.036  1.00  0.00     0.095 A 
BRANCH  24  25
HETATM   25  O2  UNL     1      24.106   6.472  49.261  1.00  0.00    -0.354 OA
HETATM   26  C17 UNL     1      23.708   7.316  50.308  1.00  0.00     0.210 C 
ENDBRANCH  24  25
ENDBRANCH  17  19
ENDBRANCH   5  17
TORSDOF 6
ENDMDL
MODEL 3
REMARK VINA RESULT:      -7.3      2.457      6.967
REMARK  6 active torsions:
REMARK  status: ('A' for Active; 'I' for Inactive)
REMARK    1  A    between atoms: O1_2  and  C2_3 
REMARK    2  A    between atoms: C6_8  and  N2_9 
REMARK    3  A    between atoms: N2_9  and  C7_10 
REMARK    4  A    between atoms: C10_14  and  N4_15 
REMARK    5  A    between atoms: N4_15  and  C11_16 
REMARK    6  A    between atoms: C16_21  and  O2_22 
ROOT
HETATM    1  C7  UNL     1      24.109   2.960  53.076  1.00  0.00     0.148 A 
HETATM    2  C8  UNL     1      23.634   4.221  52.788  1.00  0.00     0.071 A 
HETATM    3  C9  UNL     1      22.444   4.384  52.076  1.00  0.00     0.140 A 
HETATM    4  N3  UNL     1      21.795   3.254  51.691  1.00  0.00    -0.075 NA
HETATM    5  C10 UNL     1      22.257   2.019  51.970  1.00  0.00     0.728 A 
HETATM    6  N5  UNL     1      23.420   1.854  52.667  1.00  0.00    -0.045 NA
ENDROOT
BRANCH   1   7
HETATM    7  N2  UNL     1      25.321   2.826  53.792  1.00  0.00    -0.336 N 
HETATM    8  H7  UNL     1      25.623   3.501  54.516  1.00  0.00     0.168 HD
BRANCH   7   9
HETATM    9  C6  UNL     1      26.132   1.708  53.474  1.00  0.00     0.098 C 
HETATM   10  C2  UNL     1      26.906   1.387  52.264  1.00  0.00     0.095 C 
HETATM   11  C3  UNL     1      27.148   0.101  52.083  1.00  0.00     0.034 C 
HETATM   12  C4  UNL     1      26.681  -0.963  53.018  1.00  0.00     0.179 C 
HETATM   13  N1  UNL     1      26.167  -0.413  54.234  1.00  0.00    -0.281 NA
HETATM   14  C5  UNL     1      26.171   0.828  54.454  1.00  0.00     0.111 C 
BRANCH  10  15
HETATM   15  O1  UNL     1      27.240   2.516  51.531  1.00  0.00    -0.354 OA
HETATM   16  C1  UNL     1      26.473   2.826  50.360  1.00  0.00     0.210 C 
ENDBRANCH  10  15
ENDBRANCH   7   9
ENDBRANCH   1   7
BRANCH   5  17
HETATM   17  N4  UNL     1      21.449   0.956  51.489  1.00  0.00    -0.185 N 
HETATM   18  H10 UNL     1      22.056   0.606  50.708  1.00  0.00     0.184 HD
BRANCH  17  19
HETATM   19  C11 UNL     1      20.194   0.370  51.800  1.00  0.00     0.082 A 
HETATM   20  C12 UNL     1      19.141   0.513  50.924  1.00  0.00     0.033 A 
HETATM   21  C13 UNL     1      17.907  -0.033  51.202  1.00  0.00     0.002 A 
HETATM   22  C14 UNL     1      17.809  -0.716  52.397  1.00  0.00     0.003 A 
HETATM   23  C15 UNL     1      18.862  -0.856  53.268  1.00  0.00     0.039 A 
HETATM   24  C16 UNL     1      20.094  -0.314  52.993  1.00  0.00     0.095 A 
BRANCH  24  25
HETATM   25  O2  UNL     1      21.161  -0.448  53.861  1.00  0.00    -0.354 OA
HETATM   26  C17 UNL     1      21.596  -1.650  54.439  1.00  0.00     0.210 C 
ENDBRANCH  24  25
ENDBRANCH  17  19
ENDBRANCH   5  17
TORSDOF 6
ENDMDL
MODEL 4
REMARK VINA RESULT:      -7.2      1.911      3.068
REMARK  6 active torsions:
REMARK  status: ('A' for Active; 'I' for Inactive)
REMARK    1  A    between atoms: O1_2  and  C2_3 
REMARK    2  A    between atoms: C6_8  and  N2_9 
REMARK    3  A    between atoms: N2_9  and  C7_10 
REMARK    4  A    between atoms: C10_14  and  N4_15 
REMARK    5  A    between atoms: N4_15  and  C11_16 
REMARK    6  A    between atoms: C16_21  and  O2_22 
ROOT
HETATM    1  C7  UNL     1      23.083   1.277  51.918  1.00  0.00     0.148 A 
HETATM    2  C8  UNL     1      23.026   2.646  52.070  1.00  0.00     0.071 A 
HETATM    3  C9  UNL     1      23.981   3.314  52.837  1.00  0.00     0.140 A 
HETATM    4  N3  UNL     1      24.950   2.556  53.416  1.00  0.00    -0.075 NA
HETATM    5  C10 UNL     1      25.009   1.218  53.270  1.00  0.00     0.728 A 
HETATM    6  N5  UNL     1      24.077   0.559  52.519  1.00  0.00    -0.045 NA
ENDROOT
BRANCH   1   7
HETATM    7  N2  UNL     1      22.097   0.627  51.141  1.00  0.00    -0.336 N 
HETATM    8  H7  UNL     1      22.286   0.248  50.197  1.00  0.00     0.168 HD
BRANCH   7   9
HETATM    9  C6  UNL     1      20.806   0.510  51.713  1.00  0.00     0.098 C 
HETATM   10  C2  UNL     1      20.346  -0.169  52.934  1.00  0.00     0.095 C 
HETATM   11  C3  UNL     1      19.069  -0.505  52.938  1.00  0.00     0.034 C 
HETATM   12  C4  UNL     1      18.143  -0.230  51.802  1.00  0.00     0.179 C 
HETATM   13  N1  UNL     1      18.734   0.643  50.835  1.00  0.00    -0.281 NA
HETATM   14  C5  UNL     1      19.888   1.126  50.995  1.00  0.00     0.111 C 
BRANCH  10  15
HETATM   15  O1  UNL     1      21.361  -0.331  53.867  1.00  0.00    -0.354 OA
HETATM   16  C1  UNL     1      21.504  -1.603  54.511  1.00  0.00     0.210 C 
ENDBRANCH  10  15
ENDBRANCH   7   9
ENDBRANCH   1   7
BRANCH   5  17
HETATM   17  N4  UNL     1      26.089   0.590  53.945  1.00  0.00    -0.185 N 
HETATM   18  H10 UNL     1      25.971   1.007  54.901  1.00  0.00     0.184 HD
BRANCH  17  19
HETATM   19  C11 UNL     1      27.123  -0.332  53.638  1.00  0.00     0.082 A 
HETATM   20  C12 UNL     1      26.807  -1.534  53.043  1.00  0.00     0.033 A 
HETATM   21  C13 UNL     1      27.786  -2.457  52.744  1.00  0.00     0.002 A 
HETATM   22  C14 UNL     1      29.074  -2.093  53.078  1.00  0.00     0.003 A 
HETATM   23  C15 UNL     1      29.384  -0.894  53.671  1.00  0.00     0.039 A 
HETATM   24  C16 UNL     1      28.411   0.028  53.970  1.00  0.00     0.095 A 
BRANCH  24  25
HETATM   25  O2  UNL     1      28.711   1.239  54.566  1.00  0.00    -0.354 OA
HETATM   26  C17 UNL     1      28.984   2.436  53.888  1.00  0.00     0.210 C 
ENDBRANCH  24  25
ENDBRANCH  17  19
ENDBRANCH   5  17
TORSDOF 6
ENDMDL
MODEL 5
REMARK VINA RESULT:      -7.2      1.799      6.518
REMARK  6 active torsions:
REMARK  status: ('A' for Active; 'I' for Inactive)
REMARK    1  A    between atoms: O1_2  and  C2_3 
REMARK    2  A    between atoms: C6_8  and  N2_9 
REMARK    3  A    between atoms: N2_9  and  C7_10 
REMARK    4  A    between atoms: C10_14  and  N4_15 
REMARK    5  A    between atoms: N4_15  and  C11_16 
REMARK    6  A    between atoms: C16_21  and  O2_22 
ROOT
HETATM    1  C7  UNL     1      24.557  -0.633  54.691  1.00  0.00     0.148 A 
HETATM    2  C8  UNL     1      23.589  -1.267  55.441  1.00  0.00     0.071 A 
HETATM    3  C9  UNL     1      22.267  -1.315  54.995  1.00  0.00     0.140 A 
HETATM    4  N3  UNL     1      21.993  -0.716  53.807  1.00  0.00    -0.075 NA
HETATM    5  C10 UNL     1      22.936  -0.096  53.071  1.00  0.00     0.728 A 
HETATM    6  N5  UNL     1      24.231  -0.046  53.502  1.00  0.00    -0.045 NA
ENDROOT
BRANCH   1   7
HETATM    7  N2  UNL     1      25.886  -0.594  55.171  1.00  0.00    -0.336 N 
HETATM    8  H7  UNL     1      26.171  -1.022  56.069  1.00  0.00     0.168 HD
BRANCH   7   9
HETATM    9  C6  UNL     1      26.840   0.072  54.361  1.00  0.00     0.098 C 
HETATM   10  C2  UNL     1      28.047  -0.425  53.682  1.00  0.00     0.095 C 
HETATM   11  C3  UNL     1      28.960   0.495  53.424  1.00  0.00     0.034 C 
HETATM   12  C4  UNL     1      28.802   1.933  53.786  1.00  0.00     0.179 C 
HETATM   13  N1  UNL     1      27.469   2.230  54.211  1.00  0.00    -0.281 NA
HETATM   14  C5  UNL     1      26.564   1.353  54.220  1.00  0.00     0.111 C 
BRANCH  10  15
HETATM   15  O1  UNL     1      27.996  -1.790  53.437  1.00  0.00    -0.354 OA
HETATM   16  C1  UNL     1      27.093  -2.275  52.435  1.00  0.00     0.210 C 
ENDBRANCH  10  15
ENDBRANCH   7   9
ENDBRANCH   1   7
BRANCH   5  17
HETATM   17  N4  UNL     1      22.469   0.474  51.858  1.00  0.00    -0.185 N 
HETATM   18  H10 UNL     1      21.559  -0.040  51.755  1.00  0.00     0.184 HD
BRANCH  17  19
HETATM   19  C11 UNL     1      22.910   1.437  50.913  1.00  0.00     0.082 A 
HETATM   20  C12 UNL     1      24.051   2.166  51.168  1.00  0.00     0.033 A 
HETATM   21  C13 UNL     1      24.500   3.117  50.278  1.00  0.00     0.002 A 
HETATM   22  C14 UNL     1      23.735   3.281  49.141  1.00  0.00     0.003 A 
HETATM   23  C15 UNL     1      22.598   2.553  48.891  1.00  0.00     0.039 A 
HETATM   24  C16 UNL     1      22.150   1.603  49.776  1.00  0.00     0.095 A 
BRANCH  24  25
HETATM   25  O2  UNL     1      21.007   0.863  49.536  1.00  0.00    -0.354 OA
HETATM   26  C17 UNL     1      19.690   1.311  49.718  1.00  0.00     0.210 C 
ENDBRANCH  24  25
ENDBRANCH  17  19
ENDBRANCH   5  17
TORSDOF 6
ENDMDL
MODEL 6
REMARK VINA RESULT:      -7.1      3.477      4.364
REMARK  6 active torsions:
REMARK  status: ('A' for Active; 'I' for Inactive)
REMARK    1  A    between atoms: O1_2  and  C2_3 
REMARK    2  A    between atoms: C6_8  and  N2_9 
REMARK    3  A    between atoms: N2_9  and  C7_10 
REMARK    4  A    between atoms: C10_14  and  N4_15 
REMARK    5  A    between atoms: N4_15  and  C11_16 
REMARK    6  A    between atoms: C16_21  and  O2_22 
ROOT
HETATM    1  C7  UNL     1      24.329   2.570  50.519  1.00  0.00     0.148 A 
HETATM    2  C8  UNL     1      23.022   2.231  50.796  1.00  0.00     0.071 A 
HETATM    3  C9  UNL     1      22.718   1.415  51.887  1.00  0.00     0.140 A 
HETATM    4  N3  UNL     1      23.760   0.981  52.644  1.00  0.00    -0.075 NA
HETATM    5  C10 UNL     1      25.039   1.310  52.376  1.00  0.00     0.728 A 
HETATM    6  N5  UNL     1      25.342   2.109  51.311  1.00  0.00    -0.045 NA
ENDROOT
BRANCH   1   7
HETATM    7  N2  UNL     1      24.607   3.393  49.404  1.00  0.00    -0.336 N 
HETATM    8  H7  UNL     1      24.267   3.179  48.450  1.00  0.00     0.168 HD
BRANCH   7   9
HETATM    9  C6  UNL     1      25.390   4.550  49.641  1.00  0.00     0.098 C 
HETATM   10  C2  UNL     1      25.055   5.828  50.289  1.00  0.00     0.095 C 
HETATM   11  C3  UNL     1      25.815   6.849  49.933  1.00  0.00     0.034 C 
HETATM   12  C4  UNL     1      26.931   6.740  48.951  1.00  0.00     0.179 C 
HETATM   13  N1  UNL     1      27.230   5.376  48.637  1.00  0.00    -0.281 NA
HETATM   14  C5  UNL     1      26.620   4.420  49.186  1.00  0.00     0.111 C 
BRANCH  10  15
HETATM   15  O1  UNL     1      23.986   5.716  51.166  1.00  0.00    -0.354 OA
HETATM   16  C1  UNL     1      22.747   6.351  50.822  1.00  0.00     0.210 C 
ENDBRANCH  10  15
ENDBRANCH   7   9
ENDBRANCH   1   7
BRANCH   5  17
HETATM   17  N4  UNL     1      25.996   0.767  53.273  1.00  0.00    -0.185 N 
HETATM   18  H10 UNL     1      25.774   1.326  54.134  1.00  0.00     0.184 HD
BRANCH  17  19
HETATM   19  C11 UNL     1      27.020  -0.215  53.245  1.00  0.00     0.082 A 
HETATM   20  C12 UNL     1      26.770  -1.442  52.672  1.00  0.00     0.033 A 
HETATM   21  C13 UNL     1      27.738  -2.421  52.640  1.00  0.00     0.002 A 
HETATM   22  C14 UNL     1      28.948  -2.086  53.213  1.00  0.00     0.003 A 
HETATM   23  C15 UNL     1      29.193  -0.862  53.783  1.00  0.00     0.039 A 
HETATM   24  C16 UNL     1      28.230   0.117  53.816  1.00  0.00     0.095 A 
BRANCH  24  25
HETATM   25  O2  UNL     1      28.465   1.354  54.386  1.00  0.00    -0.354 OA
HETATM   26  C17 UNL     1      28.826   2.518  53.691  1.00  0.00     0.210 C 
ENDBRANCH  24  25
ENDBRANCH  17  19
ENDBRANCH   5  17
TORSDOF 6
ENDMDL
MODEL 7
REMARK VINA RESULT:      -7.1      1.912      6.570
REMARK  6 active torsions:
REMARK  status: ('A' for Active; 'I' for Inactive)
REMARK    1  A    between atoms: O1_2  and  C2_3 
REMARK    2  A    between atoms: C6_8  and  N2_9 
REMARK    3  A    between atoms: N2_9  and  C7_10 
REMARK    4  A    between atoms: C10_14  and  N4_15 
REMARK    5  A    between atoms: N4_15  and  C11_16 
REMARK    6  A    between atoms: C16_21  and  O2_22 
ROOT
HETATM    1  C7  UNL     1      23.982  -0.236  53.337  1.00  0.00     0.148 A 
HETATM    2  C8  UNL     1      23.053  -0.813  54.177  1.00  0.00     0.071 A 
HETATM    3  C9  UNL     1      21.773  -0.270  54.296  1.00  0.00     0.140 A 
HETATM    4  N3  UNL     1      21.499   0.836  53.556  1.00  0.00    -0.075 NA
HETATM    5  C10 UNL     1      22.405   1.403  52.734  1.00  0.00     0.728 A 
HETATM    6  N5  UNL     1      23.658   0.875  52.613  1.00  0.00    -0.045 NA
ENDROOT
BRANCH   1   7
HETATM    7  N2  UNL     1      25.273  -0.804  53.243  1.00  0.00    -0.336 N 
HETATM    8  H7  UNL     1      25.435  -1.783  52.948  1.00  0.00     0.168 HD
BRANCH   7   9
HETATM    9  C6  UNL     1      26.367   0.033  53.577  1.00  0.00     0.098 C 
HETATM   10  C2  UNL     1      27.281   0.814  52.729  1.00  0.00     0.095 C 
HETATM   11  C3  UNL     1      28.452   1.086  53.275  1.00  0.00     0.034 C 
HETATM   12  C4  UNL     1      28.843   0.643  54.644  1.00  0.00     0.179 C 
HETATM   13  N1  UNL     1      27.728   0.116  55.370  1.00  0.00    -0.281 NA
HETATM   14  C5  UNL     1      26.568   0.091  54.877  1.00  0.00     0.111 C 
BRANCH  10  15
HETATM   15  O1  UNL     1      26.728   1.122  51.494  1.00  0.00    -0.354 OA
HETATM   16  C1  UNL     1      26.517   2.501  51.161  1.00  0.00     0.210 C 
ENDBRANCH  10  15
ENDBRANCH   7   9
ENDBRANCH   1   7
BRANCH   5  17
HETATM   17  N4  UNL     1      21.944   2.552  52.039  1.00  0.00    -0.185 N 
HETATM   18  H10 UNL     1      20.913   2.473  52.222  1.00  0.00     0.184 HD
BRANCH  17  19
HETATM   19  C11 UNL     1      22.503   3.609  51.274  1.00  0.00     0.082 A 
HETATM   20  C12 UNL     1      22.680   4.847  51.853  1.00  0.00     0.033 A 
HETATM   21  C13 UNL     1      23.208   5.897  51.134  1.00  0.00     0.002 A 
HETATM   22  C14 UNL     1      23.536   5.620  49.823  1.00  0.00     0.003 A 
HETATM   23  C15 UNL     1      23.358   4.385  49.250  1.00  0.00     0.039 A 
HETATM   24  C16 UNL     1      22.832   3.336  49.964  1.00  0.00     0.095 A 
BRANCH  24  25
HETATM   25  O2  UNL     1      22.648   2.087  49.400  1.00  0.00    -0.354 OA
HETATM   26  C17 UNL     1      22.119   1.838  48.124  1.00  0.00     0.210 C 
ENDBRANCH  24  25
ENDBRANCH  17  19
ENDBRANCH   5  17
TORSDOF 6
ENDMDL
MODEL 8
REMARK VINA RESULT:      -7.0      2.354      7.241
REMARK  6 active torsions:
REMARK  status: ('A' for Active; 'I' for Inactive)
REMARK    1  A    between atoms: O1_2  and  C2_3 
REMARK    2  A    between atoms: C6_8  and  N2_9 
REMARK    3  A    between atoms: N2_9  and  C7_10 
REMARK    4  A    between atoms: C10_14  and  N4_15 
REMARK    5  A    between atoms: N4_15  and  C11_16 
REMARK    6  A    between atoms: C16_21  and  O2_22 
ROOT
HETATM    1  C7  UNL     1      24.152   2.931  53.099  1.00  0.00     0.148 A 
HETATM    2  C8  UNL     1      23.668   4.196  52.845  1.00  0.00     0.071 A 
HETATM    3  C9  UNL     1      22.470   4.370  52.149  1.00  0.00     0.140 A 
HETATM    4  N3  UNL     1      21.822   3.246  51.744  1.00  0.00    -0.075 NA
HETATM    5  C10 UNL     1      22.293   2.008  51.990  1.00  0.00     0.728 A 
HETATM    6  N5  UNL     1      23.464   1.832  52.671  1.00  0.00    -0.045 NA
ENDROOT
BRANCH   1   7
HETATM    7  N2  UNL     1      25.371   2.787  53.799  1.00  0.00    -0.336 N 
HETATM    8  H7  UNL     1      25.688   3.459  54.520  1.00  0.00     0.168 HD
BRANCH   7   9
HETATM    9  C6  UNL     1      26.170   1.663  53.471  1.00  0.00     0.098 C 
HETATM   10  C2  UNL     1      26.918   1.333  52.248  1.00  0.00     0.095 C 
HETATM   11  C3  UNL     1      27.149   0.045  52.066  1.00  0.00     0.034 C 
HETATM   12  C4  UNL     1      26.694  -1.013  53.014  1.00  0.00     0.179 C 
HETATM   13  N1  UNL     1      26.206  -0.456  54.238  1.00  0.00    -0.281 NA
HETATM   14  C5  UNL     1      26.222   0.786  54.453  1.00  0.00     0.111 C 
BRANCH  10  15
HETATM   15  O1  UNL     1      27.245   2.457  51.504  1.00  0.00    -0.354 OA
HETATM   16  C1  UNL     1      26.460   2.765  50.344  1.00  0.00     0.210 C 
ENDBRANCH  10  15
ENDBRANCH   7   9
ENDBRANCH   1   7
BRANCH   5  17
HETATM   17  N4  UNL     1      21.485   0.952  51.493  1.00  0.00    -0.185 N 
HETATM   18  H10 UNL     1      22.113   0.585  50.735  1.00  0.00     0.184 HD
BRANCH  17  19
HETATM   19  C11 UNL     1      20.213   0.387  51.768  1.00  0.00     0.082 A 
HETATM   20  C12 UNL     1      20.012  -0.297  52.947  1.00  0.00     0.033 A 
HETATM   21  C13 UNL     1      18.793  -0.868  53.239  1.00  0.00     0.002 A 
HETATM   22  C14 UNL     1      17.813  -0.708  52.281  1.00  0.00     0.003 A 
HETATM   23  C15 UNL     1      18.016  -0.027  51.107  1.00  0.00     0.039 A 
HETATM   24  C16 UNL     1      19.231   0.545  50.814  1.00  0.00     0.095 A 
BRANCH  24  25
HETATM   25  O2  UNL     1      19.448   1.234  49.635  1.00  0.00    -0.354 OA
HETATM   26  C17 UNL     1      18.946   2.508  49.330  1.00  0.00     0.210 C 
ENDBRANCH  24  25
ENDBRANCH  17  19
ENDBRANCH   5  17
TORSDOF 6
ENDMDL
MODEL 9
REMARK VINA RESULT:      -7.0      2.539      7.317
REMARK  6 active torsions:
REMARK  status: ('A' for Active; 'I' for Inactive)
REMARK    1  A    between atoms: O1_2  and  C2_3 
REMARK    2  A    between atoms: C6_8  and  N2_9 
REMARK    3  A    between atoms: N2_9  and  C7_10 
REMARK    4  A    between atoms: C10_14  and  N4_15 
REMARK    5  A    between atoms: N4_15  and  C11_16 
REMARK    6  A    between atoms: C16_21  and  O2_22 
ROOT
HETATM    1  C7  UNL     1      24.646   2.671  52.636  1.00  0.00     0.148 A 
HETATM    2  C8  UNL     1      24.923   2.604  51.287  1.00  0.00     0.071 A 
HETATM    3  C9  UNL     1      23.900   2.377  50.365  1.00  0.00     0.140 A 
HETATM    4  N3  UNL     1      22.643   2.228  50.859  1.00  0.00    -0.075 NA
HETATM    5  C10 UNL     1      22.369   2.292  52.177  1.00  0.00     0.728 A 
HETATM    6  N5  UNL     1      23.365   2.515  53.084  1.00  0.00    -0.045 NA
ENDROOT
BRANCH   1   7
HETATM    7  N2  UNL     1      25.703   2.894  53.547  1.00  0.00    -0.336 N 
HETATM    8  H7  UNL     1      25.747   3.724  54.164  1.00  0.00     0.168 HD
BRANCH   7   9
HETATM    9  C6  UNL     1      26.731   1.920  53.586  1.00  0.00     0.098 C 
HETATM   10  C2  UNL     1      26.773   0.582  54.197  1.00  0.00     0.095 C 
HETATM   11  C3  UNL     1      27.984   0.135  54.478  1.00  0.00     0.034 C 
HETATM   12  C4  UNL     1      29.229   0.910  54.207  1.00  0.00     0.179 C 
HETATM   13  N1  UNL     1      28.972   2.062  53.399  1.00  0.00    -0.281 NA
HETATM   14  C5  UNL     1      27.819   2.320  52.960  1.00  0.00     0.111 C 
BRANCH  10  15
HETATM   15  O1  UNL     1      25.510   0.034  54.366  1.00  0.00    -0.354 OA
HETATM   16  C1  UNL     1      24.994  -0.829  53.343  1.00  0.00     0.210 C 
ENDBRANCH  10  15
ENDBRANCH   7   9
ENDBRANCH   1   7
BRANCH   5  17
HETATM   17  N4  UNL     1      21.001   2.114  52.512  1.00  0.00    -0.185 N 
HETATM   18  H10 UNL     1      20.803   3.040  52.964  1.00  0.00     0.184 HD
BRANCH  17  19
HETATM   19  C11 UNL     1      20.012   1.104  52.380  1.00  0.00     0.082 A 
HETATM   20  C12 UNL     1      19.194   1.094  51.272  1.00  0.00     0.033 A 
HETATM   21  C13 UNL     1      18.216   0.135  51.120  1.00  0.00     0.002 A 
HETATM   22  C14 UNL     1      18.122  -0.791  52.139  1.00  0.00     0.003 A 
HETATM   23  C15 UNL     1      18.939  -0.777  53.242  1.00  0.00     0.039 A 
HETATM   24  C16 UNL     1      19.916   0.177  53.396  1.00  0.00     0.095 A 
BRANCH  24  25
HETATM   25  O2  UNL     1      20.746   0.201  54.501  1.00  0.00    -0.354 OA
HETATM   26  C17 UNL     1      21.678  -0.790  54.843  1.00  0.00     0.210 C 
ENDBRANCH  24  25
ENDBRANCH  17  19
ENDBRANCH   5  17
TORSDOF 6
ENDMDL
