MODEL 1
REMARK VINA RESULT:      -7.1      0.000      0.000
REMARK  8 active torsions:
REMARK  status: ('A' for Active; 'I' for Inactive)
REMARK    1  A    between atoms: C2_2  and  C3_3 
REMARK    2  A    between atoms: C3_3  and  C4_4 
REMARK    3  A    between atoms: C4_4  and  C5_5 
REMARK    4  A    between atoms: C5_5  and  C6_6 
REMARK    5  A    between atoms: C6_6  and  O1_7 
REMARK    6  A    between atoms: O1_7  and  C7_8 
REMARK    7  A    between atoms: C12_14  and  N2_15 
REMARK    8  A    between atoms: N2_15  and  C13_16 
ROOT
HETATM    1  C7  UNL     1      20.791   2.349  51.244  1.00  0.00     0.144 A 
HETATM    2  C8  UNL     1      21.429   3.179  52.133  1.00  0.00     0.069 A 
HETATM    3  C9  UNL     1      22.810   3.029  51.523  1.00  0.00     0.127 A 
HETATM    4  C10 UNL     1      23.470   4.046  50.629  1.00  0.00     0.065 C 
HETATM    5  N1  UNL     1      23.787   5.066  51.352  1.00  0.00    -0.289 NA
HETATM    6  C11 UNL     1      23.395   4.759  52.740  1.00  0.00     0.177 C 
HETATM    7  C12 UNL     1      23.768   3.175  52.619  1.00  0.00     0.140 C 
HETATM    8  C19 UNL     1      23.508   3.157  49.402  1.00  0.00     0.047 C 
HETATM    9  C20 UNL     1      22.692   2.043  49.351  1.00  0.00     0.097 C 
HETATM   10  N3  UNL     1      22.134   2.331  50.617  1.00  0.00    -0.317 N 
ENDROOT
BRANCH   7  11
HETATM   11  N2  UNL     1      25.145   3.184  52.285  1.00  0.00    -0.380 N 
HETATM   12  H18 UNL     1      25.548   4.033  51.852  1.00  0.00     0.160 HD
BRANCH  11  13
HETATM   13  C13 UNL     1      25.991   2.075  52.523  1.00  0.00     0.030 A 
HETATM   14  C14 UNL     1      25.759   0.838  51.954  1.00  0.00     0.032 A 
HETATM   15  C15 UNL     1      26.572  -0.276  52.167  1.00  0.00     0.046 A 
HETATM   16  C16 UNL     1      27.676  -0.150  52.995  1.00  0.00     0.138 A 
HETATM   17  F1  UNL     1      28.464  -1.228  53.203  1.00  0.00    -0.204 F 
HETATM   18  C17 UNL     1      27.924   1.084  53.576  1.00  0.00     0.074 A 
HETATM   19 CL1  UNL     1      29.340   1.180  54.615  1.00  0.00    -0.081 Cl
HETATM   20  C18 UNL     1      27.098   2.172  53.344  1.00  0.00     0.056 A 
ENDBRANCH  11  13
ENDBRANCH   7  11
BRANCH   1  21
HETATM   21  O1  UNL     1      19.507   1.797  50.971  1.00  0.00    -0.336 OA
BRANCH  21  22
HETATM   22  C6  UNL     1      19.339   0.372  51.092  1.00  0.00     0.177 C 
BRANCH  22  23
HETATM   23  C5  UNL     1      18.764   0.018  52.420  1.00  0.00     0.027 C 
BRANCH  23  24
HETATM   24  C4  UNL     1      19.685  -0.620  53.375  1.00  0.00     0.002 C 
BRANCH  24  25
HETATM   25  C3  UNL     1      20.597   0.125  54.235  1.00  0.00    -0.000 C 
BRANCH  25  26
HETATM   26  C2  UNL     1      22.061   0.094  54.054  1.00  0.00    -0.005 C 
HETATM   27  C1  UNL     1      22.526  -0.660  52.843  1.00  0.00     0.005 C 
ENDBRANCH  25  26
ENDBRANCH  24  25
ENDBRANCH  23  24
ENDBRANCH  22  23
ENDBRANCH  21  22
ENDBRANCH   1  21
TORSDOF 8
ENDMDL
MODEL 2
REMARK VINA RESULT:      -6.6      2.627      5.211
REMARK  8 active torsions:
REMARK  status: ('A' for Active; 'I' for Inactive)
REMARK    1  A    between atoms: C2_2  and  C3_3 
REMARK    2  A    between atoms: C3_3  and  C4_4 
REMARK    3  A    between atoms: C4_4  and  C5_5 
REMARK    4  A    between atoms: C5_5  and  C6_6 
REMARK    5  A    between atoms: C6_6  and  O1_7 
REMARK    6  A    between atoms: O1_7  and  C7_8 
REMARK    7  A    between atoms: C12_14  and  N2_15 
REMARK    8  A    between atoms: N2_15  and  C13_16 
ROOT
HETATM    1  C7  UNL     1      23.295   4.043  49.452  1.00  0.00     0.144 A 
HETATM    2  C8  UNL     1      23.455   2.739  49.852  1.00  0.00     0.069 A 
HETATM    3  C9  UNL     1      24.065   3.064  51.202  1.00  0.00     0.127 A 
HETATM    4  C10 UNL     1      23.325   3.014  52.514  1.00  0.00     0.065 C 
HETATM    5  N1  UNL     1      23.101   1.776  52.797  1.00  0.00    -0.289 NA
HETATM    6  C11 UNL     1      23.705   0.964  51.726  1.00  0.00     0.177 C 
HETATM    7  C12 UNL     1      24.977   1.965  51.522  1.00  0.00     0.140 C 
HETATM    8  C19 UNL     1      23.437   4.498  52.799  1.00  0.00     0.047 C 
HETATM    9  C20 UNL     1      23.743   5.362  51.765  1.00  0.00     0.097 C 
HETATM   10  N3  UNL     1      23.783   4.307  50.827  1.00  0.00    -0.317 N 
ENDROOT
BRANCH   7  11
HETATM   11  N2  UNL     1      25.593   1.980  52.799  1.00  0.00    -0.380 N 
HETATM   12  H18 UNL     1      25.172   2.552  53.550  1.00  0.00     0.160 HD
BRANCH  11  13
HETATM   13  C13 UNL     1      26.765   1.239  53.083  1.00  0.00     0.030 A 
HETATM   14  C14 UNL     1      27.899   1.827  53.608  1.00  0.00     0.032 A 
HETATM   15  C15 UNL     1      29.070   1.126  53.899  1.00  0.00     0.046 A 
HETATM   16  C16 UNL     1      29.113  -0.237  53.652  1.00  0.00     0.138 A 
HETATM   17  F1  UNL     1      30.245  -0.916  53.933  1.00  0.00    -0.204 F 
HETATM   18  C17 UNL     1      27.984  -0.845  53.125  1.00  0.00     0.074 A 
HETATM   19 CL1  UNL     1      28.101  -2.576  52.835  1.00  0.00    -0.081 Cl
HETATM   20  C18 UNL     1      26.836  -0.121  52.846  1.00  0.00     0.056 A 
ENDBRANCH  11  13
ENDBRANCH   7  11
BRANCH   1  21
HETATM   21  O1  UNL     1      22.846   4.813  48.341  1.00  0.00    -0.336 OA
BRANCH  21  22
HETATM   22  C6  UNL     1      23.136   6.224  48.330  1.00  0.00     0.177 C 
BRANCH  22  23
HETATM   23  C5  UNL     1      24.527   6.474  47.859  1.00  0.00     0.027 C 
BRANCH  23  24
HETATM   24  C4  UNL     1      25.500   6.864  48.893  1.00  0.00     0.002 C 
BRANCH  24  25
HETATM   25  C3  UNL     1      26.941   6.694  48.749  1.00  0.00    -0.000 C 
BRANCH  25  26
HETATM   26  C2  UNL     1      27.559   5.389  48.448  1.00  0.00    -0.005 C 
HETATM   27  C1  UNL     1      27.003   4.237  49.231  1.00  0.00     0.005 C 
ENDBRANCH  25  26
ENDBRANCH  24  25
ENDBRANCH  23  24
ENDBRANCH  22  23
ENDBRANCH  21  22
ENDBRANCH   1  21
TORSDOF 8
ENDMDL
MODEL 3
REMARK VINA RESULT:      -6.6      3.352      6.027
REMARK  8 active torsions:
REMARK  status: ('A' for Active; 'I' for Inactive)
REMARK    1  A    between atoms: C2_2  and  C3_3 
REMARK    2  A    between atoms: C3_3  and  C4_4 
REMARK    3  A    between atoms: C4_4  and  C5_5 
REMARK    4  A    between atoms: C5_5  and  C6_6 
REMARK    5  A    between atoms: C6_6  and  O1_7 
REMARK    6  A    between atoms: O1_7  and  C7_8 
REMARK    7  A    between atoms: C12_14  and  N2_15 
REMARK    8  A    between atoms: N2_15  and  C13_16 
ROOT
HETATM    1  C7  UNL     1      23.949   4.856  49.237  1.00  0.00     0.144 A 
HETATM    2  C8  UNL     1      23.445   3.580  49.181  1.00  0.00     0.069 A 
HETATM    3  C9  UNL     1      23.432   3.352  50.681  1.00  0.00     0.127 A 
HETATM    4  C10 UNL     1      22.205   3.430  51.551  1.00  0.00     0.065 C 
HETATM    5  N1  UNL     1      21.463   2.409  51.286  1.00  0.00    -0.289 NA
HETATM    6  C11 UNL     1      22.172   1.603  50.275  1.00  0.00     0.177 C 
HETATM    7  C12 UNL     1      23.651   1.920  50.886  1.00  0.00     0.140 C 
HETATM    8  C19 UNL     1      22.678   4.622  52.360  1.00  0.00     0.047 C 
HETATM    9  C20 UNL     1      23.703   5.406  51.869  1.00  0.00     0.097 C 
HETATM   10  N3  UNL     1      23.805   4.628  50.694  1.00  0.00    -0.317 N 
ENDROOT
BRANCH   7  11
HETATM   11  N2  UNL     1      23.570   1.432  52.215  1.00  0.00    -0.380 N 
HETATM   12  H18 UNL     1      22.639   1.327  52.652  1.00  0.00     0.160 HD
BRANCH  11  13
HETATM   13  C13 UNL     1      24.719   1.083  52.964  1.00  0.00     0.030 A 
HETATM   14  C14 UNL     1      24.770  -0.055  53.745  1.00  0.00     0.032 A 
HETATM   15  C15 UNL     1      25.885  -0.428  54.497  1.00  0.00     0.046 A 
HETATM   16  C16 UNL     1      27.012   0.379  54.468  1.00  0.00     0.138 A 
HETATM   17  F1  UNL     1      28.092   0.019  55.194  1.00  0.00    -0.204 F 
HETATM   18  C17 UNL     1      26.979   1.525  53.690  1.00  0.00     0.074 A 
HETATM   19 CL1  UNL     1      28.438   2.507  53.694  1.00  0.00    -0.081 Cl
HETATM   20  C18 UNL     1      25.855   1.869  52.955  1.00  0.00     0.056 A 
ENDBRANCH  11  13
ENDBRANCH   7  11
BRANCH   1  21
HETATM   21  O1  UNL     1      24.361   5.922  48.386  1.00  0.00    -0.336 OA
BRANCH  21  22
HETATM   22  C6  UNL     1      25.704   6.424  48.527  1.00  0.00     0.177 C 
BRANCH  22  23
HETATM   23  C5  UNL     1      26.653   5.317  48.829  1.00  0.00     0.027 C 
BRANCH  23  24
HETATM   24  C4  UNL     1      28.047   5.525  48.402  1.00  0.00     0.002 C 
BRANCH  24  25
HETATM   25  C3  UNL     1      28.522   6.750  47.770  1.00  0.00    -0.000 C 
BRANCH  25  26
HETATM   26  C2  UNL     1      29.405   7.708  48.462  1.00  0.00    -0.005 C 
HETATM   27  C1  UNL     1      28.691   8.836  49.146  1.00  0.00     0.005 C 
ENDBRANCH  25  26
ENDBRANCH  24  25
ENDBRANCH  23  24
ENDBRANCH  22  23
ENDBRANCH  21  22
ENDBRANCH   1  21
TORSDOF 8
ENDMDL
MODEL 4
REMARK VINA RESULT:      -6.5      1.419      2.037
REMARK  8 active torsions:
REMARK  status: ('A' for Active; 'I' for Inactive)
REMARK    1  A    between atoms: C2_2  and  C3_3 
REMARK    2  A    between atoms: C3_3  and  C4_4 
REMARK    3  A    between atoms: C4_4  and  C5_5 
REMARK    4  A    between atoms: C5_5  and  C6_6 
REMARK    5  A    between atoms: C6_6  and  O1_7 
REMARK    6  A    between atoms: O1_7  and  C7_8 
REMARK    7  A    between atoms: C12_14  and  N2_15 
REMARK    8  A    between atoms: N2_15  and  C13_16 
ROOT
HETATM    1  C7  UNL     1      20.639   2.153  51.938  1.00  0.00     0.144 A 
HETATM    2  C8  UNL     1      21.369   3.125  52.578  1.00  0.00     0.069 A 
HETATM    3  C9  UNL     1      22.662   2.868  51.827  1.00  0.00     0.127 A 
HETATM    4  C10 UNL     1      23.179   3.712  50.692  1.00  0.00     0.065 C 
HETATM    5  N1  UNL     1      23.566   4.842  51.179  1.00  0.00    -0.289 NA
HETATM    6  C11 UNL     1      23.363   4.783  52.638  1.00  0.00     0.177 C 
HETATM    7  C12 UNL     1      23.750   3.201  52.747  1.00  0.00     0.140 C 
HETATM    8  C19 UNL     1      23.077   2.622  49.644  1.00  0.00     0.047 C 
HETATM    9  C20 UNL     1      22.285   1.518  49.894  1.00  0.00     0.097 C 
HETATM   10  N3  UNL     1      21.889   2.023  51.153  1.00  0.00    -0.317 N 
ENDROOT
BRANCH   7  11
HETATM   11  N2  UNL     1      25.073   3.150  52.238  1.00  0.00    -0.380 N 
HETATM   12  H18 UNL     1      25.418   3.939  51.666  1.00  0.00     0.160 HD
BRANCH  11  13
HETATM   13  C13 UNL     1      25.938   2.057  52.485  1.00  0.00     0.030 A 
HETATM   14  C14 UNL     1      25.686   0.793  51.990  1.00  0.00     0.032 A 
HETATM   15  C15 UNL     1      26.517  -0.305  52.214  1.00  0.00     0.046 A 
HETATM   16  C16 UNL     1      27.662  -0.133  52.976  1.00  0.00     0.138 A 
HETATM   17  F1  UNL     1      28.468  -1.195  53.194  1.00  0.00    -0.204 F 
HETATM   18  C17 UNL     1      27.931   1.129  53.482  1.00  0.00     0.074 A 
HETATM   19 CL1  UNL     1      29.398   1.283  54.440  1.00  0.00    -0.081 Cl
HETATM   20  C18 UNL     1      27.085   2.200  53.241  1.00  0.00     0.056 A 
ENDBRANCH  11  13
ENDBRANCH   7  11
BRANCH   1  21
HETATM   21  O1  UNL     1      19.342   1.565  51.936  1.00  0.00    -0.336 OA
BRANCH  21  22
HETATM   22  C6  UNL     1      19.211   0.210  51.466  1.00  0.00     0.177 C 
BRANCH  22  23
HETATM   23  C5  UNL     1      18.101  -0.489  52.171  1.00  0.00     0.027 C 
BRANCH  23  24
HETATM   24  C4  UNL     1      18.459  -1.170  53.426  1.00  0.00     0.002 C 
BRANCH  24  25
HETATM   25  C3  UNL     1      18.146  -2.567  53.704  1.00  0.00    -0.000 C 
BRANCH  25  26
HETATM   26  C2  UNL     1      16.853  -3.176  53.344  1.00  0.00    -0.005 C 
HETATM   27  C1  UNL     1      16.807  -4.670  53.475  1.00  0.00     0.005 C 
ENDBRANCH  25  26
ENDBRANCH  24  25
ENDBRANCH  23  24
ENDBRANCH  22  23
ENDBRANCH  21  22
ENDBRANCH   1  21
TORSDOF 8
ENDMDL
MODEL 5
REMARK VINA RESULT:      -6.4      3.920      5.582
REMARK  8 active torsions:
REMARK  status: ('A' for Active; 'I' for Inactive)
REMARK    1  A    between atoms: C2_2  and  C3_3 
REMARK    2  A    between atoms: C3_3  and  C4_4 
REMARK    3  A    between atoms: C4_4  and  C5_5 
REMARK    4  A    between atoms: C5_5  and  C6_6 
REMARK    5  A    between atoms: C6_6  and  O1_7 
REMARK    6  A    between atoms: O1_7  and  C7_8 
REMARK    7  A    between atoms: C12_14  and  N2_15 
REMARK    8  A    between atoms: N2_15  and  C13_16 
ROOT
HETATM    1  C7  UNL     1      23.394   1.520  52.741  1.00  0.00     0.144 A 
HETATM    2  C8  UNL     1      23.788   2.834  52.794  1.00  0.00     0.069 A 
HETATM    3  C9  UNL     1      23.664   3.093  51.304  1.00  0.00     0.127 A 
HETATM    4  C10 UNL     1      22.519   3.821  50.651  1.00  0.00     0.065 C 
HETATM    5  N1  UNL     1      22.608   5.069  50.966  1.00  0.00    -0.289 NA
HETATM    6  C11 UNL     1      23.818   5.227  51.793  1.00  0.00     0.177 C 
HETATM    7  C12 UNL     1      24.670   4.103  50.972  1.00  0.00     0.140 C 
HETATM    8  C19 UNL     1      22.024   2.629  49.857  1.00  0.00     0.047 C 
HETATM    9  C20 UNL     1      22.426   1.360  50.225  1.00  0.00     0.097 C 
HETATM   10  N3  UNL     1      23.176   1.858  51.314  1.00  0.00    -0.317 N 
ENDROOT
BRANCH   7  11
HETATM   11  N2  UNL     1      24.681   4.602  49.645  1.00  0.00    -0.380 N 
HETATM   12  H18 UNL     1      23.824   4.514  49.072  1.00  0.00     0.160 HD
BRANCH  11  13
HETATM   13  C13 UNL     1      25.821   5.217  49.076  1.00  0.00     0.030 A 
HETATM   14  C14 UNL     1      27.043   4.578  49.005  1.00  0.00     0.032 A 
HETATM   15  C15 UNL     1      28.187   5.155  48.451  1.00  0.00     0.046 A 
HETATM   16  C16 UNL     1      28.107   6.441  47.940  1.00  0.00     0.138 A 
HETATM   17  F1  UNL     1      29.213   7.001  47.404  1.00  0.00    -0.204 F 
HETATM   18  C17 UNL     1      26.888   7.098  48.003  1.00  0.00     0.074 A 
HETATM   19 CL1  UNL     1      26.851   8.726  47.339  1.00  0.00    -0.081 Cl
HETATM   20  C18 UNL     1      25.770   6.498  48.560  1.00  0.00     0.056 A 
ENDBRANCH  11  13
ENDBRANCH   7  11
BRANCH   1  21
HETATM   21  O1  UNL     1      23.210   0.385  53.582  1.00  0.00    -0.336 OA
BRANCH  21  22
HETATM   22  C6  UNL     1      24.208  -0.654  53.551  1.00  0.00     0.177 C 
BRANCH  22  23
HETATM   23  C5  UNL     1      25.456  -0.208  54.229  1.00  0.00     0.027 C 
BRANCH  23  24
HETATM   24  C4  UNL     1      26.720  -0.628  53.601  1.00  0.00     0.002 C 
BRANCH  24  25
HETATM   25  C3  UNL     1      27.497   0.221  52.705  1.00  0.00    -0.000 C 
BRANCH  25  26
HETATM   26  C2  UNL     1      27.374   1.691  52.702  1.00  0.00    -0.005 C 
HETATM   27  C1  UNL     1      28.550   2.419  53.283  1.00  0.00     0.005 C 
ENDBRANCH  25  26
ENDBRANCH  24  25
ENDBRANCH  23  24
ENDBRANCH  22  23
ENDBRANCH  21  22
ENDBRANCH   1  21
TORSDOF 8
ENDMDL
MODEL 6
REMARK VINA RESULT:      -6.3      3.968      5.633
REMARK  8 active torsions:
REMARK  status: ('A' for Active; 'I' for Inactive)
REMARK    1  A    between atoms: C2_2  and  C3_3 
REMARK    2  A    between atoms: C3_3  and  C4_4 
REMARK    3  A    between atoms: C4_4  and  C5_5 
REMARK    4  A    between atoms: C5_5  and  C6_6 
REMARK    5  A    between atoms: C6_6  and  O1_7 
REMARK    6  A    between atoms: O1_7  and  C7_8 
REMARK    7  A    between atoms: C12_14  and  N2_15 
REMARK    8  A    between atoms: N2_15  and  C13_16 
ROOT
HETATM    1  C7  UNL     1      23.411   2.394  52.365  1.00  0.00     0.144 A 
HETATM    2  C8  UNL     1      23.856   3.691  52.302  1.00  0.00     0.069 A 
HETATM    3  C9  UNL     1      23.906   3.765  50.787  1.00  0.00     0.127 A 
HETATM    4  C10 UNL     1      22.872   4.441  49.926  1.00  0.00     0.065 C 
HETATM    5  N1  UNL     1      22.983   5.715  50.094  1.00  0.00    -0.289 NA
HETATM    6  C11 UNL     1      24.102   5.937  51.028  1.00  0.00     0.177 C 
HETATM    7  C12 UNL     1      24.986   4.693  50.451  1.00  0.00     0.140 C 
HETATM    8  C19 UNL     1      22.412   3.174  49.231  1.00  0.00     0.047 C 
HETATM    9  C20 UNL     1      22.714   1.949  49.794  1.00  0.00     0.097 C 
HETATM   10  N3  UNL     1      23.363   2.557  50.893  1.00  0.00    -0.317 N 
ENDROOT
BRANCH   7  11
HETATM   11  N2  UNL     1      25.163   5.020  49.083  1.00  0.00    -0.380 N 
HETATM   12  H18 UNL     1      24.454   4.705  48.399  1.00  0.00     0.160 HD
BRANCH  11  13
HETATM   13  C13 UNL     1      26.274   5.763  48.619  1.00  0.00     0.030 A 
HETATM   14  C14 UNL     1      26.159   7.072  48.194  1.00  0.00     0.032 A 
HETATM   15  C15 UNL     1      27.234   7.832  47.731  1.00  0.00     0.046 A 
HETATM   16  C16 UNL     1      28.493   7.254  47.689  1.00  0.00     0.138 A 
HETATM   17  F1  UNL     1      29.534   7.989  47.241  1.00  0.00    -0.204 F 
HETATM   18  C17 UNL     1      28.628   5.941  48.111  1.00  0.00     0.074 A 
HETATM   19 CL1  UNL     1      30.250   5.265  48.033  1.00  0.00    -0.081 Cl
HETATM   20  C18 UNL     1      27.540   5.212  48.565  1.00  0.00     0.056 A 
ENDBRANCH  11  13
ENDBRANCH   7  11
BRANCH   1  21
HETATM   21  O1  UNL     1      23.085   1.381  53.312  1.00  0.00    -0.336 OA
BRANCH  21  22
HETATM   22  C6  UNL     1      23.646   0.067  53.122  1.00  0.00     0.177 C 
BRANCH  22  23
HETATM   23  C5  UNL     1      25.052   0.017  53.612  1.00  0.00     0.027 C 
BRANCH  23  24
HETATM   24  C4  UNL     1      26.070  -0.363  52.618  1.00  0.00     0.002 C 
BRANCH  24  25
HETATM   25  C3  UNL     1      27.250  -1.157  52.937  1.00  0.00    -0.000 C 
BRANCH  25  26
HETATM   26  C2  UNL     1      28.535  -0.548  53.327  1.00  0.00    -0.005 C 
HETATM   27  C1  UNL     1      28.567   0.008  54.720  1.00  0.00     0.005 C 
ENDBRANCH  25  26
ENDBRANCH  24  25
ENDBRANCH  23  24
ENDBRANCH  22  23
ENDBRANCH  21  22
ENDBRANCH   1  21
TORSDOF 8
ENDMDL
MODEL 7
REMARK VINA RESULT:      -6.2      3.188      4.521
REMARK  8 active torsions:
REMARK  status: ('A' for Active; 'I' for Inactive)
REMARK    1  A    between atoms: C2_2  and  C3_3 
REMARK    2  A    between atoms: C3_3  and  C4_4 
REMARK    3  A    between atoms: C4_4  and  C5_5 
REMARK    4  A    between atoms: C5_5  and  C6_6 
REMARK    5  A    between atoms: C6_6  and  O1_7 
REMARK    6  A    between atoms: O1_7  and  C7_8 
REMARK    7  A    between atoms: C12_14  and  N2_15 
REMARK    8  A    between atoms: N2_15  and  C13_16 
ROOT
HETATM    1  C7  UNL     1      21.271   1.495  51.575  1.00  0.00     0.144 A 
HETATM    2  C8  UNL     1      21.244   2.851  51.784  1.00  0.00     0.069 A 
HETATM    3  C9  UNL     1      21.854   3.227  50.445  1.00  0.00     0.127 A 
HETATM    4  C10 UNL     1      21.077   3.741  49.262  1.00  0.00     0.065 C 
HETATM    5  N1  UNL     1      20.681   4.938  49.534  1.00  0.00    -0.289 NA
HETATM    6  C11 UNL     1      21.202   5.279  50.870  1.00  0.00     0.177 C 
HETATM    7  C12 UNL     1      22.602   4.466  50.662  1.00  0.00     0.140 C 
HETATM    8  C19 UNL     1      21.377   2.555  48.367  1.00  0.00     0.047 C 
HETATM    9  C20 UNL     1      21.825   1.378  48.934  1.00  0.00     0.097 C 
HETATM   10  N3  UNL     1      21.751   1.919  50.238  1.00  0.00    -0.317 N 
ENDROOT
BRANCH   7  11
HETATM   11  N2  UNL     1      23.178   5.087  49.525  1.00  0.00    -0.380 N 
HETATM   12  H18 UNL     1      22.560   5.586  48.863  1.00  0.00     0.160 HD
BRANCH  11  13
HETATM   13  C13 UNL     1      24.568   5.048  49.263  1.00  0.00     0.030 A 
HETATM   14  C14 UNL     1      25.343   3.945  49.565  1.00  0.00     0.032 A 
HETATM   15  C15 UNL     1      26.715   3.874  49.321  1.00  0.00     0.046 A 
HETATM   16  C16 UNL     1      27.349   4.963  48.744  1.00  0.00     0.138 A 
HETATM   17  F1  UNL     1      28.677   4.895  48.507  1.00  0.00    -0.204 F 
HETATM   18  C17 UNL     1      26.588   6.078  48.434  1.00  0.00     0.074 A 
HETATM   19 CL1  UNL     1      27.450   7.426  47.703  1.00  0.00    -0.081 Cl
HETATM   20  C18 UNL     1      25.226   6.119  48.689  1.00  0.00     0.056 A 
ENDBRANCH  11  13
ENDBRANCH   7  11
BRANCH   1  21
HETATM   21  O1  UNL     1      20.961   0.268  52.229  1.00  0.00    -0.336 OA
BRANCH  21  22
HETATM   22  C6  UNL     1      21.617  -0.021  53.479  1.00  0.00     0.177 C 
BRANCH  22  23
HETATM   23  C5  UNL     1      22.832  -0.853  53.257  1.00  0.00     0.027 C 
BRANCH  23  24
HETATM   24  C4  UNL     1      24.125  -0.164  53.407  1.00  0.00     0.002 C 
BRANCH  24  25
HETATM   25  C3  UNL     1      24.540   0.961  52.577  1.00  0.00    -0.000 C 
BRANCH  25  26
HETATM   26  C2  UNL     1      25.850   1.008  51.902  1.00  0.00    -0.005 C 
HETATM   27  C1  UNL     1      26.967   1.556  52.740  1.00  0.00     0.005 C 
ENDBRANCH  25  26
ENDBRANCH  24  25
ENDBRANCH  23  24
ENDBRANCH  22  23
ENDBRANCH  21  22
ENDBRANCH   1  21
TORSDOF 8
ENDMDL
MODEL 8
REMARK VINA RESULT:      -6.0      3.651      4.735
REMARK  8 active torsions:
REMARK  status: ('A' for Active; 'I' for Inactive)
REMARK    1  A    between atoms: C2_2  and  C3_3 
REMARK    2  A    between atoms: C3_3  and  C4_4 
REMARK    3  A    between atoms: C4_4  and  C5_5 
REMARK    4  A    between atoms: C5_5  and  C6_6 
REMARK    5  A    between atoms: C6_6  and  O1_7 
REMARK    6  A    between atoms: O1_7  and  C7_8 
REMARK    7  A    between atoms: C12_14  and  N2_15 
REMARK    8  A    between atoms: N2_15  and  C13_16 
ROOT
HETATM    1  C7  UNL     1      23.336   0.867  52.618  1.00  0.00     0.144 A 
HETATM    2  C8  UNL     1      23.668   2.157  52.950  1.00  0.00     0.069 A 
HETATM    3  C9  UNL     1      23.434   2.739  51.568  1.00  0.00     0.127 A 
HETATM    4  C10 UNL     1      22.214   3.523  51.161  1.00  0.00     0.065 C 
HETATM    5  N1  UNL     1      22.263   4.670  51.748  1.00  0.00    -0.289 NA
HETATM    6  C11 UNL     1      23.515   4.712  52.526  1.00  0.00     0.177 C 
HETATM    7  C12 UNL     1      24.365   3.859  51.425  1.00  0.00     0.140 C 
HETATM    8  C19 UNL     1      21.728   2.512  50.141  1.00  0.00     0.047 C 
HETATM    9  C20 UNL     1      22.215   1.221  50.186  1.00  0.00     0.097 C 
HETATM   10  N3  UNL     1      23.009   1.505  51.320  1.00  0.00    -0.317 N 
ENDROOT
BRANCH   7  11
HETATM   11  N2  UNL     1      24.265   4.645  50.250  1.00  0.00    -0.380 N 
HETATM   12  H18 UNL     1      23.326   4.880  49.885  1.00  0.00     0.160 HD
BRANCH  11  13
HETATM   13  C13 UNL     1      25.404   5.119  49.556  1.00  0.00     0.030 A 
HETATM   14  C14 UNL     1      26.516   4.329  49.340  1.00  0.00     0.032 A 
HETATM   15  C15 UNL     1      27.654   4.765  48.661  1.00  0.00     0.046 A 
HETATM   16  C16 UNL     1      27.685   6.061  48.170  1.00  0.00     0.138 A 
HETATM   17  F1  UNL     1      28.786   6.485  47.512  1.00  0.00    -0.204 F 
HETATM   18  C17 UNL     1      26.578   6.868  48.377  1.00  0.00     0.074 A 
HETATM   19 CL1  UNL     1      26.678   8.501  47.730  1.00  0.00    -0.081 Cl
HETATM   20  C18 UNL     1      25.462   6.406  49.056  1.00  0.00     0.056 A 
ENDBRANCH  11  13
ENDBRANCH   7  11
BRANCH   1  21
HETATM   21  O1  UNL     1      23.263  -0.438  53.184  1.00  0.00    -0.336 OA
BRANCH  21  22
HETATM   22  C6  UNL     1      22.342  -0.657  54.270  1.00  0.00     0.177 C 
BRANCH  22  23
HETATM   23  C5  UNL     1      20.967  -0.905  53.755  1.00  0.00     0.027 C 
BRANCH  23  24
HETATM   24  C4  UNL     1      20.069   0.262  53.720  1.00  0.00     0.002 C 
BRANCH  24  25
HETATM   25  C3  UNL     1      19.444   0.762  52.501  1.00  0.00    -0.000 C 
BRANCH  25  26
HETATM   26  C2  UNL     1      18.878  -0.133  51.475  1.00  0.00    -0.005 C 
HETATM   27  C1  UNL     1      17.676   0.413  50.762  1.00  0.00     0.005 C 
ENDBRANCH  25  26
ENDBRANCH  24  25
ENDBRANCH  23  24
ENDBRANCH  22  23
ENDBRANCH  21  22
ENDBRANCH   1  21
TORSDOF 8
ENDMDL
MODEL 9
REMARK VINA RESULT:      -5.9      3.397      6.588
REMARK  8 active torsions:
REMARK  status: ('A' for Active; 'I' for Inactive)
REMARK    1  A    between atoms: C2_2  and  C3_3 
REMARK    2  A    between atoms: C3_3  and  C4_4 
REMARK    3  A    between atoms: C4_4  and  C5_5 
REMARK    4  A    between atoms: C5_5  and  C6_6 
REMARK    5  A    between atoms: C6_6  and  O1_7 
REMARK    6  A    between atoms: O1_7  and  C7_8 
REMARK    7  A    between atoms: C12_14  and  N2_15 
REMARK    8  A    between atoms: N2_15  and  C13_16 
ROOT
HETATM    1  C7  UNL     1      23.617   3.034  50.673  1.00  0.00     0.144 A 
HETATM    2  C8  UNL     1      23.047   2.653  49.483  1.00  0.00     0.069 A 
HETATM    3  C9  UNL     1      21.625   2.582  50.008  1.00  0.00     0.127 A 
HETATM    4  C10 UNL     1      20.571   3.634  49.780  1.00  0.00     0.065 C 
HETATM    5  N1  UNL     1      20.225   3.588  48.539  1.00  0.00    -0.289 NA
HETATM    6  C11 UNL     1      20.991   2.498  47.909  1.00  0.00     0.177 C 
HETATM    7  C12 UNL     1      20.946   1.543  49.232  1.00  0.00     0.140 C 
HETATM    8  C19 UNL     1      20.433   4.018  51.240  1.00  0.00     0.047 C 
HETATM    9  C20 UNL     1      21.431   3.665  52.128  1.00  0.00     0.097 C 
HETATM   10  N3  UNL     1      22.199   3.065  51.105  1.00  0.00    -0.317 N 
ENDROOT
BRANCH   7  11
HETATM   11  N2  UNL     1      19.559   1.360  49.460  1.00  0.00    -0.380 N 
HETATM   12  H18 UNL     1      18.885   1.790  48.804  1.00  0.00     0.160 HD
BRANCH  11  13
HETATM   13  C13 UNL     1      19.063   0.611  50.553  1.00  0.00     0.030 A 
HETATM   14  C14 UNL     1      17.742   0.221  50.638  1.00  0.00     0.032 A 
HETATM   15  C15 UNL     1      17.220  -0.518  51.702  1.00  0.00     0.046 A 
HETATM   16  C16 UNL     1      18.064  -0.888  52.737  1.00  0.00     0.138 A 
HETATM   17  F1  UNL     1      17.561  -1.603  53.766  1.00  0.00    -0.204 F 
HETATM   18  C17 UNL     1      19.394  -0.505  52.668  1.00  0.00     0.074 A 
HETATM   19 CL1  UNL     1      20.414  -1.004  54.012  1.00  0.00    -0.081 Cl
HETATM   20  C18 UNL     1      19.882   0.229  51.599  1.00  0.00     0.056 A 
ENDBRANCH  11  13
ENDBRANCH   7  11
BRANCH   1  21
HETATM   21  O1  UNL     1      24.887   3.325  51.249  1.00  0.00    -0.336 OA
BRANCH  21  22
HETATM   22  C6  UNL     1      25.329   2.522  52.360  1.00  0.00     0.177 C 
BRANCH  22  23
HETATM   23  C5  UNL     1      25.451   1.092  51.964  1.00  0.00     0.027 C 
BRANCH  23  24
HETATM   24  C4  UNL     1      26.794   0.499  52.087  1.00  0.00     0.002 C 
BRANCH  24  25
HETATM   25  C3  UNL     1      27.176  -0.417  53.155  1.00  0.00    -0.000 C 
BRANCH  25  26
HETATM   26  C2  UNL     1      28.382  -0.215  53.979  1.00  0.00    -0.005 C 
HETATM   27  C1  UNL     1      29.614  -0.896  53.463  1.00  0.00     0.005 C 
ENDBRANCH  25  26
ENDBRANCH  24  25
ENDBRANCH  23  24
ENDBRANCH  22  23
ENDBRANCH  21  22
ENDBRANCH   1  21
TORSDOF 8
ENDMDL
