MODEL 1
REMARK VINA RESULT:      -8.8      0.000      0.000
REMARK  6 active torsions:
REMARK  status: ('A' for Active; 'I' for Inactive)
REMARK    1  A    between atoms: N1_2  and  C3_4 
REMARK    2  A    between atoms: C3_4  and  C4_5 
REMARK    3  A    between atoms: C5_6  and  C6_7 
REMARK       I    between atoms: C6_7  and  N2_9 
REMARK    4  A    between atoms: N2_9  and  C7_10 
REMARK    5  A    between atoms: C14_19  and  N5_20 
REMARK    6  A    between atoms: N5_20  and  C15_21 
ROOT
HETATM    1  C7  UNL     1      24.000   2.657  49.980  1.00  0.00     0.035 A 
HETATM    2  C8  UNL     1      22.790   2.550  49.294  1.00  0.00     0.032 A 
HETATM    3  C9  UNL     1      21.824   1.746  49.861  1.00  0.00     0.035 A 
HETATM    4  C10 UNL     1      22.002   1.062  51.047  1.00  0.00     0.069 A 
HETATM    5  N3  UNL     1      21.089   0.286  51.615  1.00  0.00    -0.259 NA
HETATM    6  C11 UNL     1      21.336  -0.342  52.772  1.00  0.00     0.142 A 
HETATM    7  C12 UNL     1      22.538  -0.214  53.420  1.00  0.00     0.089 A 
HETATM    8  C13 UNL     1      22.728  -0.917  54.654  1.00  0.00     0.103 C 
HETATM    9  N4  UNL     1      22.881  -1.507  55.649  1.00  0.00    -0.191 NA
HETATM   10  C14 UNL     1      23.517   0.565  52.891  1.00  0.00     0.067 A 
HETATM   11  C19 UNL     1      23.234   1.209  51.686  1.00  0.00     0.023 A 
HETATM   12  C20 UNL     1      24.254   2.007  51.167  1.00  0.00     0.045 A 
ENDROOT
BRANCH  10  13
HETATM   13  N5  UNL     1      24.734   0.687  53.571  1.00  0.00    -0.354 N 
HETATM   14  H15 UNL     1      24.499   1.418  54.262  1.00  0.00     0.166 HD
BRANCH  13  15
HETATM   15  C15 UNL     1      25.935   0.001  53.358  1.00  0.00     0.035 A 
HETATM   16  C16 UNL     1      26.692  -0.901  52.758  1.00  0.00     0.048 A 
HETATM   17  C17 UNL     1      27.822  -0.507  53.589  1.00  0.00     0.015 A 
HETATM   18 BR1  UNL     1      29.530  -1.353  53.414  1.00  0.00    -0.051 Br
HETATM   19  C18 UNL     1      27.071   0.418  54.213  1.00  0.00     0.048 A 
ENDBRANCH  13  15
ENDBRANCH  10  13
BRANCH   1  20
HETATM   20  N2  UNL     1      24.976   3.489  49.380  1.00  0.00    -0.324 N 
HETATM   21  C6  UNL     1      26.340   3.622  49.733  1.00  0.00     0.245 C 
HETATM   22  O1  UNL     1      27.040   3.079  50.627  1.00  0.00    -0.268 OA
HETATM   23  H11 UNL     1      24.619   4.062  48.584  1.00  0.00     0.169 HD
BRANCH  21  24
HETATM   24  C5  UNL     1      27.202   4.534  48.998  1.00  0.00     0.072 C 
HETATM   25  C4  UNL     1      26.922   5.780  48.693  1.00  0.00     0.008 C 
BRANCH  25  26
HETATM   26  C3  UNL     1      25.940   6.856  48.787  1.00  0.00     0.299 C 
BRANCH  26  27
HETATM   27  N1  UNL     1      25.794   7.421  50.121  1.00  0.00     0.083 N 
HETATM   28  C1  UNL     1      25.609   8.849  50.074  1.00  0.00     0.309 C 
HETATM   29  C2  UNL     1      24.640   6.852  50.800  1.00  0.00     0.309 C 
ENDBRANCH  26  27
ENDBRANCH  25  26
ENDBRANCH  21  24
ENDBRANCH   1  20
TORSDOF 6
ENDMDL
MODEL 2
REMARK VINA RESULT:      -8.2      1.634      2.183
REMARK  6 active torsions:
REMARK  status: ('A' for Active; 'I' for Inactive)
REMARK    1  A    between atoms: N1_2  and  C3_4 
REMARK    2  A    between atoms: C3_4  and  C4_5 
REMARK    3  A    between atoms: C5_6  and  C6_7 
REMARK       I    between atoms: C6_7  and  N2_9 
REMARK    4  A    between atoms: N2_9  and  C7_10 
REMARK    5  A    between atoms: C14_19  and  N5_20 
REMARK    6  A    between atoms: N5_20  and  C15_21 
ROOT
HETATM    1  C7  UNL     1      22.788   2.481  50.143  1.00  0.00     0.035 A 
HETATM    2  C8  UNL     1      21.517   1.982  49.857  1.00  0.00     0.032 A 
HETATM    3  C9  UNL     1      21.047   0.975  50.674  1.00  0.00     0.035 A 
HETATM    4  C10 UNL     1      21.766   0.455  51.732  1.00  0.00     0.069 A 
HETATM    5  N3  UNL     1      21.337  -0.510  52.533  1.00  0.00    -0.259 NA
HETATM    6  C11 UNL     1      22.092  -0.958  53.545  1.00  0.00     0.142 A 
HETATM    7  C12 UNL     1      23.339  -0.444  53.797  1.00  0.00     0.089 A 
HETATM    8  C13 UNL     1      24.088  -0.975  54.897  1.00  0.00     0.103 C 
HETATM    9  N4  UNL     1      24.698  -1.425  55.783  1.00  0.00    -0.191 NA
HETATM   10  C14 UNL     1      23.838   0.546  53.012  1.00  0.00     0.067 A 
HETATM   11  C19 UNL     1      23.031   0.996  51.967  1.00  0.00     0.023 A 
HETATM   12  C20 UNL     1      23.565   2.017  51.179  1.00  0.00     0.045 A 
ENDROOT
BRANCH  10  13
HETATM   13  N5  UNL     1      25.110   1.062  53.291  1.00  0.00    -0.354 N 
HETATM   14  H15 UNL     1      24.869   2.017  53.601  1.00  0.00     0.166 HD
BRANCH  13  15
HETATM   15  C15 UNL     1      26.357   0.440  53.171  1.00  0.00     0.035 A 
HETATM   16  C16 UNL     1      27.237  -0.343  52.570  1.00  0.00     0.048 A 
HETATM   17  C17 UNL     1      28.205  -0.064  53.622  1.00  0.00     0.015 A 
HETATM   18 BR1  UNL     1      29.954  -0.841  53.597  1.00  0.00    -0.051 Br
HETATM   19  C18 UNL     1      27.327   0.736  54.251  1.00  0.00     0.048 A 
ENDBRANCH  13  15
ENDBRANCH  10  13
BRANCH   1  20
HETATM   20  N2  UNL     1      23.248   3.516  49.292  1.00  0.00    -0.324 N 
HETATM   21  C6  UNL     1      23.066   4.911  49.446  1.00  0.00     0.245 C 
HETATM   22  O1  UNL     1      22.479   5.597  50.323  1.00  0.00    -0.268 OA
HETATM   23  H11 UNL     1      23.782   3.181  48.461  1.00  0.00     0.169 HD
BRANCH  21  24
HETATM   24  C5  UNL     1      23.614   5.834  48.465  1.00  0.00     0.072 C 
HETATM   25  C4  UNL     1      24.860   6.244  48.405  1.00  0.00     0.008 C 
BRANCH  25  26
HETATM   26  C3  UNL     1      26.189   6.163  49.004  1.00  0.00     0.299 C 
BRANCH  26  27
HETATM   27  N1  UNL     1      26.962   4.999  48.594  1.00  0.00     0.083 N 
HETATM   28  C1  UNL     1      28.366   5.306  48.489  1.00  0.00     0.309 C 
HETATM   29  C2  UNL     1      26.822   3.919  49.558  1.00  0.00     0.309 C 
ENDBRANCH  26  27
ENDBRANCH  25  26
ENDBRANCH  21  24
ENDBRANCH   1  20
TORSDOF 6
ENDMDL
MODEL 3
REMARK VINA RESULT:      -8.1      2.719      4.434
REMARK  6 active torsions:
REMARK  status: ('A' for Active; 'I' for Inactive)
REMARK    1  A    between atoms: N1_2  and  C3_4 
REMARK    2  A    between atoms: C3_4  and  C4_5 
REMARK    3  A    between atoms: C5_6  and  C6_7 
REMARK       I    between atoms: C6_7  and  N2_9 
REMARK    4  A    between atoms: N2_9  and  C7_10 
REMARK    5  A    between atoms: C14_19  and  N5_20 
REMARK    6  A    between atoms: N5_20  and  C15_21 
ROOT
HETATM    1  C7  UNL     1      26.693   1.989  52.375  1.00  0.00     0.035 A 
HETATM    2  C8  UNL     1      27.644   1.759  53.369  1.00  0.00     0.032 A 
HETATM    3  C9  UNL     1      27.283   0.905  54.389  1.00  0.00     0.035 A 
HETATM    4  C10 UNL     1      26.050   0.287  54.464  1.00  0.00     0.069 A 
HETATM    5  N3  UNL     1      25.679  -0.540  55.432  1.00  0.00    -0.259 NA
HETATM    6  C11 UNL     1      24.465  -1.106  55.431  1.00  0.00     0.142 A 
HETATM    7  C12 UNL     1      23.552  -0.857  54.437  1.00  0.00     0.089 A 
HETATM    8  C13 UNL     1      22.274  -1.499  54.506  1.00  0.00     0.103 C 
HETATM    9  N4  UNL     1      21.229  -2.012  54.578  1.00  0.00    -0.191 NA
HETATM   10  C14 UNL     1      23.870  -0.018  53.417  1.00  0.00     0.067 A 
HETATM   11  C19 UNL     1      25.141   0.557  53.440  1.00  0.00     0.023 A 
HETATM   12  C20 UNL     1      25.444   1.411  52.378  1.00  0.00     0.045 A 
ENDROOT
BRANCH  10  13
HETATM   13  N5  UNL     1      22.928   0.218  52.409  1.00  0.00    -0.354 N 
HETATM   14  H15 UNL     1      23.248  -0.446  51.685  1.00  0.00     0.166 HD
BRANCH  13  15
HETATM   15  C15 UNL     1      21.854   1.114  52.400  1.00  0.00     0.035 A 
HETATM   16  C16 UNL     1      20.863   1.781  52.968  1.00  0.00     0.048 A 
HETATM   17  C17 UNL     1      20.546   2.400  51.689  1.00  0.00     0.015 A 
HETATM   18 BR1  UNL     1      19.104   3.648  51.517  1.00  0.00    -0.051 Br
HETATM   19  C18 UNL     1      21.547   1.733  51.089  1.00  0.00     0.048 A 
ENDBRANCH  13  15
ENDBRANCH  10  13
BRANCH   1  20
HETATM   20  N2  UNL     1      27.088   2.868  51.337  1.00  0.00    -0.324 N 
HETATM   21  C6  UNL     1      26.327   3.291  50.221  1.00  0.00     0.245 C 
HETATM   22  O1  UNL     1      25.155   3.026  49.845  1.00  0.00    -0.268 OA
HETATM   23  H11 UNL     1      28.060   3.232  51.432  1.00  0.00     0.169 HD
BRANCH  21  24
HETATM   24  C5  UNL     1      26.901   4.205  49.246  1.00  0.00     0.072 C 
HETATM   25  C4  UNL     1      26.398   5.364  48.889  1.00  0.00     0.008 C 
BRANCH  25  26
HETATM   26  C3  UNL     1      25.311   6.320  49.078  1.00  0.00     0.299 C 
BRANCH  26  27
HETATM   27  N1  UNL     1      25.378   7.066  50.328  1.00  0.00     0.083 N 
HETATM   28  C1  UNL     1      25.278   8.485  50.102  1.00  0.00     0.309 C 
HETATM   29  C2  UNL     1      24.289   6.686  51.215  1.00  0.00     0.309 C 
ENDBRANCH  26  27
ENDBRANCH  25  26
ENDBRANCH  21  24
ENDBRANCH   1  20
TORSDOF 6
ENDMDL
MODEL 4
REMARK VINA RESULT:      -7.9      2.824      4.523
REMARK  6 active torsions:
REMARK  status: ('A' for Active; 'I' for Inactive)
REMARK    1  A    between atoms: N1_2  and  C3_4 
REMARK    2  A    between atoms: C3_4  and  C4_5 
REMARK    3  A    between atoms: C5_6  and  C6_7 
REMARK       I    between atoms: C6_7  and  N2_9 
REMARK    4  A    between atoms: N2_9  and  C7_10 
REMARK    5  A    between atoms: C14_19  and  N5_20 
REMARK    6  A    between atoms: N5_20  and  C15_21 
ROOT
HETATM    1  C7  UNL     1      26.212   2.502  51.804  1.00  0.00     0.035 A 
HETATM    2  C8  UNL     1      27.398   1.909  52.239  1.00  0.00     0.032 A 
HETATM    3  C9  UNL     1      27.277   0.809  53.061  1.00  0.00     0.035 A 
HETATM    4  C10 UNL     1      26.063   0.287  53.461  1.00  0.00     0.069 A 
HETATM    5  N3  UNL     1      25.920  -0.770  54.249  1.00  0.00    -0.259 NA
HETATM    6  C11 UNL     1      24.705  -1.221  54.588  1.00  0.00     0.142 A 
HETATM    7  C12 UNL     1      23.558  -0.613  54.143  1.00  0.00     0.089 A 
HETATM    8  C13 UNL     1      22.296  -1.153  54.549  1.00  0.00     0.103 C 
HETATM    9  N4  UNL     1      21.272  -1.588  54.899  1.00  0.00    -0.191 NA
HETATM   10  C14 UNL     1      23.636   0.476  53.334  1.00  0.00     0.067 A 
HETATM   11  C19 UNL     1      24.913   0.924  52.994  1.00  0.00     0.023 A 
HETATM   12  C20 UNL     1      24.964   2.041  52.158  1.00  0.00     0.045 A 
ENDROOT
BRANCH  10  13
HETATM   13  N5  UNL     1      22.455   1.077  52.884  1.00  0.00    -0.354 N 
HETATM   14  H15 UNL     1      22.042   1.386  53.779  1.00  0.00     0.166 HD
BRANCH  13  15
HETATM   15  C15 UNL     1      21.977   1.211  51.576  1.00  0.00     0.035 A 
HETATM   16  C16 UNL     1      21.681   0.753  50.371  1.00  0.00     0.048 A 
HETATM   17  C17 UNL     1      21.221   2.079  49.981  1.00  0.00     0.015 A 
HETATM   18 BR1  UNL     1      20.540   2.419  48.224  1.00  0.00    -0.051 Br
HETATM   19  C18 UNL     1      21.514   2.567  51.199  1.00  0.00     0.048 A 
ENDBRANCH  13  15
ENDBRANCH  10  13
BRANCH   1  20
HETATM   20  N2  UNL     1      26.361   3.628  50.958  1.00  0.00    -0.324 N 
HETATM   21  C6  UNL     1      25.529   4.023  49.884  1.00  0.00     0.245 C 
HETATM   22  O1  UNL     1      24.484   3.523  49.393  1.00  0.00    -0.268 OA
HETATM   23  H11 UNL     1      27.192   4.220  51.177  1.00  0.00     0.169 HD
BRANCH  21  24
HETATM   24  C5  UNL     1      25.839   5.221  49.119  1.00  0.00     0.072 C 
HETATM   25  C4  UNL     1      27.011   5.530  48.615  1.00  0.00     0.008 C 
BRANCH  25  26
HETATM   26  C3  UNL     1      28.403   5.121  48.454  1.00  0.00     0.299 C 
BRANCH  26  27
HETATM   27  N1  UNL     1      29.263   6.138  47.863  1.00  0.00     0.083 N 
HETATM   28  C1  UNL     1      28.810   7.467  48.186  1.00  0.00     0.309 C 
HETATM   29  C2  UNL     1      30.627   6.010  48.353  1.00  0.00     0.309 C 
ENDBRANCH  26  27
ENDBRANCH  25  26
ENDBRANCH  21  24
ENDBRANCH   1  20
TORSDOF 6
ENDMDL
MODEL 5
REMARK VINA RESULT:      -7.7      3.157      4.648
REMARK  6 active torsions:
REMARK  status: ('A' for Active; 'I' for Inactive)
REMARK    1  A    between atoms: N1_2  and  C3_4 
REMARK    2  A    between atoms: C3_4  and  C4_5 
REMARK    3  A    between atoms: C5_6  and  C6_7 
REMARK       I    between atoms: C6_7  and  N2_9 
REMARK    4  A    between atoms: N2_9  and  C7_10 
REMARK    5  A    between atoms: C14_19  and  N5_20 
REMARK    6  A    between atoms: N5_20  and  C15_21 
ROOT
HETATM    1  C7  UNL     1      25.143   3.113  50.918  1.00  0.00     0.035 A 
HETATM    2  C8  UNL     1      26.456   2.642  50.878  1.00  0.00     0.032 A 
HETATM    3  C9  UNL     1      26.726   1.496  51.595  1.00  0.00     0.035 A 
HETATM    4  C10 UNL     1      25.776   0.816  52.330  1.00  0.00     0.069 A 
HETATM    5  N3  UNL     1      26.009  -0.289  53.026  1.00  0.00    -0.259 NA
HETATM    6  C11 UNL     1      25.031  -0.895  53.711  1.00  0.00     0.142 A 
HETATM    7  C12 UNL     1      23.750  -0.404  53.729  1.00  0.00     0.089 A 
HETATM    8  C13 UNL     1      22.759  -1.107  54.486  1.00  0.00     0.103 C 
HETATM    9  N4  UNL     1      21.961  -1.676  55.119  1.00  0.00    -0.191 NA
HETATM   10  C14 UNL     1      23.445   0.726  53.039  1.00  0.00     0.067 A 
HETATM   11  C19 UNL     1      24.481   1.336  52.332  1.00  0.00     0.023 A 
HETATM   12  C20 UNL     1      24.140   2.492  51.627  1.00  0.00     0.045 A 
ENDROOT
BRANCH  10  13
HETATM   13  N5  UNL     1      22.131   1.207  53.064  1.00  0.00    -0.354 N 
HETATM   14  H15 UNL     1      22.159   1.804  53.906  1.00  0.00     0.166 HD
BRANCH  13  15
HETATM   15  C15 UNL     1      21.078   0.938  52.183  1.00  0.00     0.035 A 
HETATM   16  C16 UNL     1      20.538   0.831  50.980  1.00  0.00     0.048 A 
HETATM   17  C17 UNL     1      19.271   0.440  51.584  1.00  0.00     0.015 A 
HETATM   18 BR1  UNL     1      17.739   0.040  50.508  1.00  0.00    -0.051 Br
HETATM   19  C18 UNL     1      19.798   0.541  52.816  1.00  0.00     0.048 A 
ENDBRANCH  13  15
ENDBRANCH  10  13
BRANCH   1  20
HETATM   20  N2  UNL     1      24.889   4.290  50.172  1.00  0.00    -0.324 N 
HETATM   21  C6  UNL     1      23.992   4.456  49.090  1.00  0.00     0.245 C 
HETATM   22  O1  UNL     1      23.212   3.659  48.507  1.00  0.00    -0.268 OA
HETATM   23  H11 UNL     1      25.442   5.120  50.480  1.00  0.00     0.169 HD
BRANCH  21  24
HETATM   24  C5  UNL     1      23.860   5.749  48.438  1.00  0.00     0.072 C 
HETATM   25  C4  UNL     1      23.512   6.873  49.022  1.00  0.00     0.008 C 
BRANCH  25  26
HETATM   26  C3  UNL     1      23.129   7.515  50.275  1.00  0.00     0.299 C 
BRANCH  26  27
HETATM   27  N1  UNL     1      21.771   7.219  50.710  1.00  0.00     0.083 N 
HETATM   28  C1  UNL     1      20.849   7.215  49.603  1.00  0.00     0.309 C 
HETATM   29  C2  UNL     1      21.704   5.910  51.340  1.00  0.00     0.309 C 
ENDBRANCH  26  27
ENDBRANCH  25  26
ENDBRANCH  21  24
ENDBRANCH   1  20
TORSDOF 6
ENDMDL
MODEL 6
REMARK VINA RESULT:      -7.7      2.971      4.507
REMARK  6 active torsions:
REMARK  status: ('A' for Active; 'I' for Inactive)
REMARK    1  A    between atoms: N1_2  and  C3_4 
REMARK    2  A    between atoms: C3_4  and  C4_5 
REMARK    3  A    between atoms: C5_6  and  C6_7 
REMARK       I    between atoms: C6_7  and  N2_9 
REMARK    4  A    between atoms: N2_9  and  C7_10 
REMARK    5  A    between atoms: C14_19  and  N5_20 
REMARK    6  A    between atoms: N5_20  and  C15_21 
ROOT
HETATM    1  C7  UNL     1      25.203   2.983  50.766  1.00  0.00     0.035 A 
HETATM    2  C8  UNL     1      26.497   2.464  50.818  1.00  0.00     0.032 A 
HETATM    3  C9  UNL     1      26.689   1.350  51.607  1.00  0.00     0.035 A 
HETATM    4  C10 UNL     1      25.679   0.746  52.329  1.00  0.00     0.069 A 
HETATM    5  N3  UNL     1      25.836  -0.327  53.093  1.00  0.00    -0.259 NA
HETATM    6  C11 UNL     1      24.804  -0.859  53.760  1.00  0.00     0.142 A 
HETATM    7  C12 UNL     1      23.543  -0.323  53.687  1.00  0.00     0.089 A 
HETATM    8  C13 UNL     1      22.490  -0.948  54.430  1.00  0.00     0.103 C 
HETATM    9  N4  UNL     1      21.642  -1.453  55.051  1.00  0.00    -0.191 NA
HETATM   10  C14 UNL     1      23.315   0.777  52.923  1.00  0.00     0.067 A 
HETATM   11  C19 UNL     1      24.407   1.311  52.238  1.00  0.00     0.023 A 
HETATM   12  C20 UNL     1      24.144   2.438  51.456  1.00  0.00     0.045 A 
ENDROOT
BRANCH  10  13
HETATM   13  N5  UNL     1      22.020   1.305  52.857  1.00  0.00    -0.354 N 
HETATM   14  H15 UNL     1      22.043   1.976  53.642  1.00  0.00     0.166 HD
BRANCH  13  15
HETATM   15  C15 UNL     1      20.988   0.994  51.965  1.00  0.00     0.035 A 
HETATM   16  C16 UNL     1      20.483   0.802  50.758  1.00  0.00     0.048 A 
HETATM   17  C17 UNL     1      19.186   0.501  51.347  1.00  0.00     0.015 A 
HETATM   18 BR1  UNL     1      17.676   0.058  50.257  1.00  0.00    -0.051 Br
HETATM   19  C18 UNL     1      19.676   0.691  52.585  1.00  0.00     0.048 A 
ENDBRANCH  13  15
ENDBRANCH  10  13
BRANCH   1  20
HETATM   20  N2  UNL     1      25.030   4.125  49.947  1.00  0.00    -0.324 N 
HETATM   21  C6  UNL     1      24.539   5.398  50.325  1.00  0.00     0.245 C 
HETATM   22  O1  UNL     1      24.136   5.858  51.424  1.00  0.00    -0.268 OA
HETATM   23  H11 UNL     1      25.306   3.983  48.951  1.00  0.00     0.169 HD
BRANCH  21  24
HETATM   24  C5  UNL     1      24.429   6.463  49.340  1.00  0.00     0.072 C 
HETATM   25  C4  UNL     1      25.431   7.061  48.738  1.00  0.00     0.008 C 
BRANCH  25  26
HETATM   26  C3  UNL     1      26.882   7.141  48.597  1.00  0.00     0.299 C 
BRANCH  26  27
HETATM   27  N1  UNL     1      27.434   8.471  48.817  1.00  0.00     0.083 N 
HETATM   28  C1  UNL     1      27.059   8.992  50.107  1.00  0.00     0.309 C 
HETATM   29  C2  UNL     1      28.888   8.442  48.763  1.00  0.00     0.309 C 
ENDBRANCH  26  27
ENDBRANCH  25  26
ENDBRANCH  21  24
ENDBRANCH   1  20
TORSDOF 6
ENDMDL
MODEL 7
REMARK VINA RESULT:      -7.6      3.859      7.488
REMARK  6 active torsions:
REMARK  status: ('A' for Active; 'I' for Inactive)
REMARK    1  A    between atoms: N1_2  and  C3_4 
REMARK    2  A    between atoms: C3_4  and  C4_5 
REMARK    3  A    between atoms: C5_6  and  C6_7 
REMARK       I    between atoms: C6_7  and  N2_9 
REMARK    4  A    between atoms: N2_9  and  C7_10 
REMARK    5  A    between atoms: C14_19  and  N5_20 
REMARK    6  A    between atoms: N5_20  and  C15_21 
ROOT
HETATM    1  C7  UNL     1      20.963  -0.412  53.433  1.00  0.00     0.035 A 
HETATM    2  C8  UNL     1      21.206  -1.298  54.483  1.00  0.00     0.032 A 
HETATM    3  C9  UNL     1      22.515  -1.425  54.898  1.00  0.00     0.035 A 
HETATM    4  C10 UNL     1      23.564  -0.730  54.329  1.00  0.00     0.069 A 
HETATM    5  N3  UNL     1      24.830  -0.832  54.711  1.00  0.00    -0.259 NA
HETATM    6  C11 UNL     1      25.793  -0.119  54.114  1.00  0.00     0.142 A 
HETATM    7  C12 UNL     1      25.519   0.743  53.082  1.00  0.00     0.089 A 
HETATM    8  C13 UNL     1      26.602   1.471  52.492  1.00  0.00     0.103 C 
HETATM    9  N4  UNL     1      27.492   2.047  52.006  1.00  0.00    -0.191 NA
HETATM   10  C14 UNL     1      24.242   0.893  52.643  1.00  0.00     0.067 A 
HETATM   11  C19 UNL     1      23.258   0.140  53.284  1.00  0.00     0.023 A 
HETATM   12  C20 UNL     1      21.954   0.316  52.816  1.00  0.00     0.045 A 
ENDROOT
BRANCH  10  13
HETATM   13  N5  UNL     1      23.982   1.783  51.594  1.00  0.00    -0.354 N 
HETATM   14  H15 UNL     1      23.913   1.130  50.797  1.00  0.00     0.166 HD
BRANCH  13  15
HETATM   15  C15 UNL     1      23.856   3.176  51.633  1.00  0.00     0.035 A 
HETATM   16  C16 UNL     1      23.456   4.314  52.174  1.00  0.00     0.048 A 
HETATM   17  C17 UNL     1      24.048   5.050  51.065  1.00  0.00     0.015 A 
HETATM   18 BR1  UNL     1      23.958   6.960  50.977  1.00  0.00    -0.051 Br
HETATM   19  C18 UNL     1      24.466   3.906  50.496  1.00  0.00     0.048 A 
ENDBRANCH  13  15
ENDBRANCH  10  13
BRANCH   1  20
HETATM   20  N2  UNL     1      19.611  -0.297  53.026  1.00  0.00    -0.324 N 
HETATM   21  C6  UNL     1      18.563  -1.228  53.219  1.00  0.00     0.245 C 
HETATM   22  O1  UNL     1      18.526  -2.359  53.770  1.00  0.00    -0.268 OA
HETATM   23  H11 UNL     1      19.389   0.592  52.527  1.00  0.00     0.169 HD
BRANCH  21  24
HETATM   24  C5  UNL     1      17.225  -0.938  52.729  1.00  0.00     0.072 C 
HETATM   25  C4  UNL     1      16.926  -0.471  51.539  1.00  0.00     0.008 C 
BRANCH  25  26
HETATM   26  C3  UNL     1      17.445  -0.034  50.247  1.00  0.00     0.299 C 
BRANCH  26  27
HETATM   27  N1  UNL     1      17.193   1.369  49.943  1.00  0.00     0.083 N 
HETATM   28  C1  UNL     1      18.371   2.019  49.428  1.00  0.00     0.309 C 
HETATM   29  C2  UNL     1      16.148   1.499  48.939  1.00  0.00     0.309 C 
ENDBRANCH  26  27
ENDBRANCH  25  26
ENDBRANCH  21  24
ENDBRANCH   1  20
TORSDOF 6
ENDMDL
MODEL 8
REMARK VINA RESULT:      -7.5      4.054      6.930
REMARK  6 active torsions:
REMARK  status: ('A' for Active; 'I' for Inactive)
REMARK    1  A    between atoms: N1_2  and  C3_4 
REMARK    2  A    between atoms: C3_4  and  C4_5 
REMARK    3  A    between atoms: C5_6  and  C6_7 
REMARK       I    between atoms: C6_7  and  N2_9 
REMARK    4  A    between atoms: N2_9  and  C7_10 
REMARK    5  A    between atoms: C14_19  and  N5_20 
REMARK    6  A    between atoms: N5_20  and  C15_21 
ROOT
HETATM    1  C7  UNL     1      20.439   0.052  52.561  1.00  0.00     0.035 A 
HETATM    2  C8  UNL     1      19.823  -0.762  53.511  1.00  0.00     0.032 A 
HETATM    3  C9  UNL     1      20.640  -1.324  54.470  1.00  0.00     0.035 A 
HETATM    4  C10 UNL     1      22.004  -1.118  54.523  1.00  0.00     0.069 A 
HETATM    5  N3  UNL     1      22.811  -1.643  55.436  1.00  0.00    -0.259 NA
HETATM    6  C11 UNL     1      24.126  -1.391  55.425  1.00  0.00     0.142 A 
HETATM    7  C12 UNL     1      24.699  -0.584  54.474  1.00  0.00     0.089 A 
HETATM    8  C13 UNL     1      26.113  -0.362  54.527  1.00  0.00     0.103 C 
HETATM    9  N4  UNL     1      27.267  -0.201  54.567  1.00  0.00    -0.191 NA
HETATM   10  C14 UNL     1      23.928  -0.016  53.510  1.00  0.00     0.067 A 
HETATM   11  C19 UNL     1      22.561  -0.293  53.546  1.00  0.00     0.023 A 
HETATM   12  C20 UNL     1      21.792   0.307  52.547  1.00  0.00     0.045 A 
ENDROOT
BRANCH  10  13
HETATM   13  N5  UNL     1      24.530   0.809  52.553  1.00  0.00    -0.354 N 
HETATM   14  H15 UNL     1      25.131   0.129  52.060  1.00  0.00     0.166 HD
BRANCH  13  15
HETATM   15  C15 UNL     1      24.357   2.181  52.340  1.00  0.00     0.035 A 
HETATM   16  C16 UNL     1      24.114   3.419  52.735  1.00  0.00     0.048 A 
HETATM   17  C17 UNL     1      24.249   3.884  51.361  1.00  0.00     0.015 A 
HETATM   18 BR1  UNL     1      24.040   5.733  50.911  1.00  0.00    -0.051 Br
HETATM   19  C18 UNL     1      24.499   2.633  50.936  1.00  0.00     0.048 A 
ENDBRANCH  13  15
ENDBRANCH  10  13
BRANCH   1  20
HETATM   20  N2  UNL     1      19.580   0.620  51.588  1.00  0.00    -0.324 N 
HETATM   21  C6  UNL     1      19.097   1.949  51.525  1.00  0.00     0.245 C 
HETATM   22  O1  UNL     1      19.274   2.950  52.266  1.00  0.00    -0.268 OA
HETATM   23  H11 UNL     1      19.283  -0.044  50.840  1.00  0.00     0.169 HD
BRANCH  21  24
HETATM   24  C5  UNL     1      18.216   2.358  50.442  1.00  0.00     0.072 C 
HETATM   25  C4  UNL     1      16.904   2.371  50.482  1.00  0.00     0.008 C 
BRANCH  25  26
HETATM   26  C3  UNL     1      15.716   2.108  51.290  1.00  0.00     0.299 C 
BRANCH  26  27
HETATM   27  N1  UNL     1      14.944   3.296  51.627  1.00  0.00     0.083 N 
HETATM   28  C1  UNL     1      13.701   2.954  52.270  1.00  0.00     0.309 C 
HETATM   29  C2  UNL     1      15.686   4.153  52.538  1.00  0.00     0.309 C 
ENDBRANCH  26  27
ENDBRANCH  25  26
ENDBRANCH  21  24
ENDBRANCH   1  20
TORSDOF 6
ENDMDL
MODEL 9
REMARK VINA RESULT:      -7.4      4.372      6.926
REMARK  6 active torsions:
REMARK  status: ('A' for Active; 'I' for Inactive)
REMARK    1  A    between atoms: N1_2  and  C3_4 
REMARK    2  A    between atoms: C3_4  and  C4_5 
REMARK    3  A    between atoms: C5_6  and  C6_7 
REMARK       I    between atoms: C6_7  and  N2_9 
REMARK    4  A    between atoms: N2_9  and  C7_10 
REMARK    5  A    between atoms: C14_19  and  N5_20 
REMARK    6  A    between atoms: N5_20  and  C15_21 
ROOT
HETATM    1  C7  UNL     1      22.888   0.108  53.178  1.00  0.00     0.035 A 
HETATM    2  C8  UNL     1      22.588  -0.635  54.320  1.00  0.00     0.032 A 
HETATM    3  C9  UNL     1      21.284  -1.062  54.459  1.00  0.00     0.035 A 
HETATM    4  C10 UNL     1      20.292  -0.789  53.538  1.00  0.00     0.069 A 
HETATM    5  N3  UNL     1      19.032  -1.190  53.646  1.00  0.00    -0.259 NA
HETATM    6  C11 UNL     1      18.127  -0.890  52.706  1.00  0.00     0.142 A 
HETATM    7  C12 UNL     1      18.456  -0.156  51.594  1.00  0.00     0.089 A 
HETATM    8  C13 UNL     1      17.433   0.125  50.633  1.00  0.00     0.103 C 
HETATM    9  N4  UNL     1      16.590   0.365  49.863  1.00  0.00    -0.191 NA
HETATM   10  C14 UNL     1      19.730   0.286  51.424  1.00  0.00     0.067 A 
HETATM   11  C19 UNL     1      20.653  -0.042  52.416  1.00  0.00     0.023 A 
HETATM   12  C20 UNL     1      21.955   0.420  52.214  1.00  0.00     0.045 A 
ENDROOT
BRANCH  10  13
HETATM   13  N5  UNL     1      20.047   1.027  50.279  1.00  0.00    -0.354 N 
HETATM   14  H15 UNL     1      20.318   0.273  49.628  1.00  0.00     0.166 HD
BRANCH  13  15
HETATM   15  C15 UNL     1      20.006   2.412  50.088  1.00  0.00     0.035 A 
HETATM   16  C16 UNL     1      20.246   3.664  50.441  1.00  0.00     0.048 A 
HETATM   17  C17 UNL     1      19.617   4.131  49.213  1.00  0.00     0.015 A 
HETATM   18 BR1  UNL     1      19.485   5.998  48.810  1.00  0.00    -0.051 Br
HETATM   19  C18 UNL     1      19.362   2.867  48.833  1.00  0.00     0.048 A 
ENDBRANCH  13  15
ENDBRANCH  10  13
BRANCH   1  20
HETATM   20  N2  UNL     1      24.233   0.533  53.056  1.00  0.00    -0.324 N 
HETATM   21  C6  UNL     1      24.727   1.859  53.044  1.00  0.00     0.245 C 
HETATM   22  O1  UNL     1      24.155   2.977  53.130  1.00  0.00    -0.268 OA
HETATM   23  H11 UNL     1      24.921  -0.246  52.966  1.00  0.00     0.169 HD
BRANCH  21  24
HETATM   24  C5  UNL     1      26.154   2.109  52.909  1.00  0.00     0.072 C 
HETATM   25  C4  UNL     1      27.101   1.200  52.945  1.00  0.00     0.008 C 
BRANCH  25  26
HETATM   26  C3  UNL     1      27.408  -0.220  53.085  1.00  0.00     0.299 C 
BRANCH  26  27
HETATM   27  N1  UNL     1      28.442  -0.516  54.068  1.00  0.00     0.083 N 
HETATM   28  C1  UNL     1      29.536  -1.247  53.482  1.00  0.00     0.309 C 
HETATM   29  C2  UNL     1      28.987   0.711  54.630  1.00  0.00     0.309 C 
ENDBRANCH  26  27
ENDBRANCH  25  26
ENDBRANCH  21  24
ENDBRANCH   1  20
TORSDOF 6
ENDMDL
