MODEL 1
REMARK VINA RESULT:      -8.2      0.000      0.000
REMARK  2 active torsions:
REMARK  status: ('A' for Active; 'I' for Inactive)
REMARK    1  A    between atoms: N1_1  and  O1_2 
REMARK    2  A    between atoms: O1_2  and  C1_3 
ROOT
HETATM    1  C1  UNL     1      26.567   0.676  54.152  1.00  0.00     0.224 C 
HETATM    2  C2  UNL     1      25.585  -0.129  54.701  1.00  0.00    -0.067 C 
HETATM    3  C3  UNL     1      24.776  -0.777  55.129  1.00  0.00    -0.024 C 
HETATM    4  C4  UNL     1      23.759  -1.567  55.641  1.00  0.00     0.426 A 
HETATM    5  O2  UNL     1      22.610  -1.965  55.599  1.00  0.00    -0.134 OA
HETATM    6  N2  UNL     1      22.835  -1.083  54.603  1.00  0.00     0.115 N 
HETATM    7  C5  UNL     1      21.788  -0.663  53.592  1.00  0.00     0.199 A 
HETATM    8  C6  UNL     1      20.533  -0.863  53.950  1.00  0.00     0.015 C 
HETATM    9  C7  UNL     1      19.272  -0.606  53.316  1.00  0.00     0.018 C 
HETATM   10  C8  UNL     1      19.088  -0.034  52.141  1.00  0.00     0.117 C 
HETATM   11  N3  UNL     1      19.535   0.575  50.952  1.00  0.00    -0.254 NA
HETATM   12  C9  UNL     1      20.606   1.260  50.915  1.00  0.00     0.232 C 
HETATM   13  N4  UNL     1      21.756   1.840  51.438  1.00  0.00    -0.250 NA
HETATM   14  C10 UNL     1      22.679   1.131  52.083  1.00  0.00     0.021 C 
HETATM   15  C11 UNL     1      23.993   1.296  52.772  1.00  0.00     0.048 C 
HETATM   16  C12 UNL     1      24.877   2.258  53.112  1.00  0.00     0.004 C 
HETATM   17  C13 UNL     1      26.137   2.109  53.812  1.00  0.00     0.052 C 
HETATM   18  C14 UNL     1      22.147  -0.214  52.158  1.00  0.00     0.100 C 
HETATM   19  H4  UNL     1      22.823  -0.271  53.996  1.00  0.00     0.362 HD
ENDROOT
BRANCH   1  20
HETATM   20  O1  UNL     1      27.704   0.778  54.952  1.00  0.00    -0.291 OA
BRANCH  20  21
HETATM   21  N1  UNL     1      28.450  -0.345  54.932  1.00  0.00    -0.214 NA
HETATM   22  H1  UNL     1      28.700  -0.620  53.972  1.00  0.00     0.150 HD
HETATM   23  H2  UNL     1      29.289  -0.197  55.520  1.00  0.00     0.150 HD
ENDBRANCH  20  21
ENDBRANCH   1  20
TORSDOF 2
ENDMDL
MODEL 2
REMARK VINA RESULT:      -8.2      2.409      3.703
REMARK  2 active torsions:
REMARK  status: ('A' for Active; 'I' for Inactive)
REMARK    1  A    between atoms: N1_1  and  O1_2 
REMARK    2  A    between atoms: O1_2  and  C1_3 
ROOT
HETATM    1  C1  UNL     1      27.289   1.387  53.083  1.00  0.00     0.224 C 
HETATM    2  C2  UNL     1      26.406   1.914  52.157  1.00  0.00    -0.067 C 
HETATM    3  C3  UNL     1      25.674   2.332  51.417  1.00  0.00    -0.024 C 
HETATM    4  C4  UNL     1      24.750   2.834  50.515  1.00  0.00     0.426 A 
HETATM    5  O2  UNL     1      23.609   2.895  50.099  1.00  0.00    -0.134 OA
HETATM    6  N2  UNL     1      23.674   2.064  51.159  1.00  0.00     0.115 N 
HETATM    7  C5  UNL     1      22.482   1.323  51.730  1.00  0.00     0.199 A 
HETATM    8  C6  UNL     1      21.451   1.186  50.916  1.00  0.00     0.015 C 
HETATM    9  C7  UNL     1      20.167   0.560  51.047  1.00  0.00     0.018 C 
HETATM   10  C8  UNL     1      19.718  -0.095  52.101  1.00  0.00     0.117 C 
HETATM   11  N3  UNL     1      19.832  -0.612  53.407  1.00  0.00    -0.254 NA
HETATM   12  C9  UNL     1      20.954  -0.975  53.885  1.00  0.00     0.232 C 
HETATM   13  N4  UNL     1      22.328  -1.189  53.867  1.00  0.00    -0.250 NA
HETATM   14  C10 UNL     1      23.194  -0.222  53.572  1.00  0.00     0.021 C 
HETATM   15  C11 UNL     1      24.661   0.015  53.436  1.00  0.00     0.048 C 
HETATM   16  C12 UNL     1      25.834  -0.647  53.512  1.00  0.00     0.004 C 
HETATM   17  C13 UNL     1      27.173  -0.124  53.326  1.00  0.00     0.052 C 
HETATM   18  C14 UNL     1      22.383   0.925  53.219  1.00  0.00     0.100 C 
HETATM   19  H4  UNL     1      23.658   1.253  51.767  1.00  0.00     0.362 HD
ENDROOT
BRANCH   1  20
HETATM   20  O1  UNL     1      28.624   1.642  52.774  1.00  0.00    -0.291 OA
BRANCH  20  21
HETATM   21  N1  UNL     1      28.989   2.906  53.069  1.00  0.00    -0.214 NA
HETATM   22  H1  UNL     1      28.179   3.540  53.097  1.00  0.00     0.150 HD
HETATM   23  H2  UNL     1      29.504   2.902  53.968  1.00  0.00     0.150 HD
ENDBRANCH  20  21
ENDBRANCH   1  20
TORSDOF 2
ENDMDL
MODEL 3
REMARK VINA RESULT:      -8.1      2.359      6.543
REMARK  2 active torsions:
REMARK  status: ('A' for Active; 'I' for Inactive)
REMARK    1  A    between atoms: N1_1  and  O1_2 
REMARK    2  A    between atoms: O1_2  and  C1_3 
ROOT
HETATM    1  C1  UNL     1      20.941  -0.651  53.077  1.00  0.00     0.224 C 
HETATM    2  C2  UNL     1      21.654   0.255  52.311  1.00  0.00    -0.067 C 
HETATM    3  C3  UNL     1      22.249   0.982  51.699  1.00  0.00    -0.024 C 
HETATM    4  C4  UNL     1      23.006   1.874  50.957  1.00  0.00     0.426 A 
HETATM    5  O2  UNL     1      24.081   2.381  50.694  1.00  0.00    -0.134 OA
HETATM    6  N2  UNL     1      24.224   1.471  51.679  1.00  0.00     0.115 N 
HETATM    7  C5  UNL     1      25.544   1.146  52.348  1.00  0.00     0.199 A 
HETATM    8  C6  UNL     1      26.484   2.066  52.233  1.00  0.00     0.015 C 
HETATM    9  C7  UNL     1      27.833   2.164  52.711  1.00  0.00     0.018 C 
HETATM   10  C8  UNL     1      28.466   1.280  53.460  1.00  0.00     0.117 C 
HETATM   11  N3  UNL     1      28.555   0.072  54.181  1.00  0.00    -0.254 NA
HETATM   12  C9  UNL     1      27.539  -0.444  54.747  1.00  0.00     0.232 C 
HETATM   13  N4  UNL     1      26.202  -0.522  55.120  1.00  0.00    -0.250 NA
HETATM   14  C10 UNL     1      25.212  -0.474  54.233  1.00  0.00     0.021 C 
HETATM   15  C11 UNL     1      23.722  -0.520  54.157  1.00  0.00     0.048 C 
HETATM   16  C12 UNL     1      22.641  -0.597  54.961  1.00  0.00     0.004 C 
HETATM   17  C13 UNL     1      21.242  -0.629  54.582  1.00  0.00     0.052 C 
HETATM   18  C14 UNL     1      25.853  -0.240  52.955  1.00  0.00     0.100 C 
HETATM   19  H4  UNL     1      24.394   1.009  52.565  1.00  0.00     0.362 HD
ENDROOT
BRANCH   1  20
HETATM   20  O1  UNL     1      19.561  -0.517  52.943  1.00  0.00    -0.291 OA
BRANCH  20  21
HETATM   21  N1  UNL     1      18.881  -1.269  53.832  1.00  0.00    -0.214 NA
HETATM   22  H1  UNL     1      19.503  -1.664  54.551  1.00  0.00     0.150 HD
HETATM   23  H2  UNL     1      18.130  -0.692  54.250  1.00  0.00     0.150 HD
ENDBRANCH  20  21
ENDBRANCH   1  20
TORSDOF 2
ENDMDL
MODEL 4
REMARK VINA RESULT:      -8.1      1.975      5.725
REMARK  2 active torsions:
REMARK  status: ('A' for Active; 'I' for Inactive)
REMARK    1  A    between atoms: N1_1  and  O1_2 
REMARK    2  A    between atoms: O1_2  and  C1_3 
ROOT
HETATM    1  C1  UNL     1      20.549   0.098  53.354  1.00  0.00     0.224 C 
HETATM    2  C2  UNL     1      21.556  -0.476  54.109  1.00  0.00    -0.067 C 
HETATM    3  C3  UNL     1      22.387  -0.927  54.713  1.00  0.00    -0.024 C 
HETATM    4  C4  UNL     1      23.430  -1.471  55.445  1.00  0.00     0.426 A 
HETATM    5  O2  UNL     1      24.617  -1.529  55.705  1.00  0.00    -0.134 OA
HETATM    6  N2  UNL     1      24.397  -0.619  54.734  1.00  0.00     0.115 N 
HETATM    7  C5  UNL     1      25.489   0.200  54.077  1.00  0.00     0.199 A 
HETATM    8  C6  UNL     1      26.712  -0.289  54.182  1.00  0.00     0.015 C 
HETATM    9  C7  UNL     1      27.994   0.148  53.709  1.00  0.00     0.018 C 
HETATM   10  C8  UNL     1      28.236   1.218  52.977  1.00  0.00     0.117 C 
HETATM   11  N3  UNL     1      27.852   2.379  52.274  1.00  0.00    -0.254 NA
HETATM   12  C9  UNL     1      26.715   2.473  51.712  1.00  0.00     0.232 C 
HETATM   13  N4  UNL     1      25.450   2.036  51.333  1.00  0.00    -0.250 NA
HETATM   14  C10 UNL     1      24.557   1.597  52.216  1.00  0.00     0.021 C 
HETATM   15  C11 UNL     1      23.164   1.065  52.285  1.00  0.00     0.048 C 
HETATM   16  C12 UNL     1      22.135   0.732  51.477  1.00  0.00     0.004 C 
HETATM   17  C13 UNL     1      20.833   0.217  51.850  1.00  0.00     0.052 C 
HETATM   18  C14 UNL     1      25.240   1.607  53.493  1.00  0.00     0.100 C 
HETATM   19  H4  UNL     1      24.375  -0.113  53.856  1.00  0.00     0.362 HD
ENDROOT
BRANCH   1  20
HETATM   20  O1  UNL     1      19.326  -0.559  53.480  1.00  0.00    -0.291 OA
BRANCH  20  21
HETATM   21  N1  UNL     1      18.601  -0.519  52.344  1.00  0.00    -0.214 NA
HETATM   22  H1  UNL     1      17.748   0.045  52.455  1.00  0.00     0.150 HD
HETATM   23  H2  UNL     1      19.200  -0.162  51.579  1.00  0.00     0.150 HD
ENDBRANCH  20  21
ENDBRANCH   1  20
TORSDOF 2
ENDMDL
MODEL 5
REMARK VINA RESULT:      -8.0      2.672      5.404
REMARK  2 active torsions:
REMARK  status: ('A' for Active; 'I' for Inactive)
REMARK    1  A    between atoms: N1_1  and  O1_2 
REMARK    2  A    between atoms: O1_2  and  C1_3 
ROOT
HETATM    1  C1  UNL     1      22.315  -0.469  54.410  1.00  0.00     0.224 C 
HETATM    2  C2  UNL     1      23.585  -0.528  53.863  1.00  0.00    -0.067 C 
HETATM    3  C3  UNL     1      24.612  -0.557  53.413  1.00  0.00    -0.024 C 
HETATM    4  C4  UNL     1      25.876  -0.568  52.846  1.00  0.00     0.426 A 
HETATM    5  O2  UNL     1      26.738  -0.025  52.182  1.00  0.00    -0.134 OA
HETATM    6  N2  UNL     1      25.651   0.768  52.273  1.00  0.00     0.115 N 
HETATM    7  C5  UNL     1      25.544   2.136  51.629  1.00  0.00     0.199 A 
HETATM    8  C6  UNL     1      26.378   2.365  50.631  1.00  0.00     0.015 C 
HETATM    9  C7  UNL     1      26.596   3.487  49.764  1.00  0.00     0.018 C 
HETATM   10  C8  UNL     1      25.923   4.622  49.767  1.00  0.00     0.117 C 
HETATM   11  N3  UNL     1      24.922   5.493  50.243  1.00  0.00    -0.254 NA
HETATM   12  C9  UNL     1      23.831   5.054  50.728  1.00  0.00     0.232 C 
HETATM   13  N4  UNL     1      22.922   4.077  51.119  1.00  0.00    -0.250 NA
HETATM   14  C10 UNL     1      23.250   3.095  51.955  1.00  0.00     0.021 C 
HETATM   15  C11 UNL     1      22.659   1.899  52.624  1.00  0.00     0.048 C 
HETATM   16  C12 UNL     1      21.504   1.203  52.681  1.00  0.00     0.004 C 
HETATM   17  C13 UNL     1      21.208   0.021  53.466  1.00  0.00     0.052 C 
HETATM   18  C14 UNL     1      24.666   3.265  52.211  1.00  0.00     0.100 C 
HETATM   19  H4  UNL     1      24.822   1.317  52.072  1.00  0.00     0.362 HD
ENDROOT
BRANCH   1  20
HETATM   20  O1  UNL     1      21.885  -1.687  54.933  1.00  0.00    -0.291 OA
BRANCH  20  21
HETATM   21  N1  UNL     1      20.581  -1.923  54.683  1.00  0.00    -0.214 NA
HETATM   22  H1  UNL     1      20.094  -1.075  54.366  1.00  0.00     0.150 HD
HETATM   23  H2  UNL     1      20.509  -2.689  53.990  1.00  0.00     0.150 HD
ENDBRANCH  20  21
ENDBRANCH   1  20
TORSDOF 2
ENDMDL
MODEL 6
REMARK VINA RESULT:      -7.9      2.817      3.740
REMARK  2 active torsions:
REMARK  status: ('A' for Active; 'I' for Inactive)
REMARK    1  A    between atoms: N1_1  and  O1_2 
REMARK    2  A    between atoms: O1_2  and  C1_3 
ROOT
HETATM    1  C1  UNL     1      26.109   3.075  50.172  1.00  0.00     0.224 C 
HETATM    2  C2  UNL     1      26.343   2.049  51.071  1.00  0.00    -0.067 C 
HETATM    3  C3  UNL     1      26.512   1.214  51.800  1.00  0.00    -0.024 C 
HETATM    4  C4  UNL     1      26.695   0.183  52.707  1.00  0.00     0.426 A 
HETATM    5  O2  UNL     1      26.233  -0.639  53.476  1.00  0.00    -0.134 OA
HETATM    6  N2  UNL     1      25.241   0.081  52.913  1.00  0.00     0.115 N 
HETATM    7  C5  UNL     1      23.770  -0.123  53.213  1.00  0.00     0.199 A 
HETATM    8  C6  UNL     1      23.499  -0.743  54.347  1.00  0.00     0.015 C 
HETATM    9  C7  UNL     1      22.278  -1.116  55.000  1.00  0.00     0.018 C 
HETATM   10  C8  UNL     1      21.053  -0.868  54.575  1.00  0.00     0.117 C 
HETATM   11  N3  UNL     1      20.119  -0.338  53.662  1.00  0.00    -0.254 NA
HETATM   12  C9  UNL     1      20.375   0.699  52.972  1.00  0.00     0.232 C 
HETATM   13  N4  UNL     1      21.150   1.766  52.530  1.00  0.00    -0.250 NA
HETATM   14  C10 UNL     1      22.376   1.599  52.040  1.00  0.00     0.021 C 
HETATM   15  C11 UNL     1      23.513   2.384  51.475  1.00  0.00     0.048 C 
HETATM   16  C12 UNL     1      23.872   3.659  51.217  1.00  0.00     0.004 C 
HETATM   17  C13 UNL     1      25.105   4.142  50.629  1.00  0.00     0.052 C 
HETATM   18  C14 UNL     1      22.659   0.186  52.186  1.00  0.00     0.100 C 
HETATM   19  H4  UNL     1      24.463   0.708  52.746  1.00  0.00     0.362 HD
ENDROOT
BRANCH   1  20
HETATM   20  O1  UNL     1      27.268   3.750  49.795  1.00  0.00    -0.291 OA
BRANCH  20  21
HETATM   21  N1  UNL     1      27.054   5.066  49.589  1.00  0.00    -0.214 NA
HETATM   22  H1  UNL     1      26.666   5.247  48.654  1.00  0.00     0.150 HD
HETATM   23  H2  UNL     1      26.433   5.422  50.338  1.00  0.00     0.150 HD
ENDBRANCH  20  21
ENDBRANCH   1  20
TORSDOF 2
ENDMDL
MODEL 7
REMARK VINA RESULT:      -7.8      2.594      3.496
REMARK  2 active torsions:
REMARK  status: ('A' for Active; 'I' for Inactive)
REMARK    1  A    between atoms: N1_1  and  O1_2 
REMARK    2  A    between atoms: O1_2  and  C1_3 
ROOT
HETATM    1  C1  UNL     1      27.179  -0.740  52.742  1.00  0.00     0.224 C 
HETATM    2  C2  UNL     1      25.828  -0.722  53.040  1.00  0.00    -0.067 C 
HETATM    3  C3  UNL     1      24.730  -0.692  53.268  1.00  0.00    -0.024 C 
HETATM    4  C4  UNL     1      23.373  -0.631  53.538  1.00  0.00     0.426 A 
HETATM    5  O2  UNL     1      22.299  -0.072  53.420  1.00  0.00    -0.134 OA
HETATM    6  N2  UNL     1      23.255   0.613  52.760  1.00  0.00     0.115 N 
HETATM    7  C5  UNL     1      23.003   1.894  51.992  1.00  0.00     0.199 A 
HETATM    8  C6  UNL     1      21.906   2.552  52.321  1.00  0.00     0.015 C 
HETATM    9  C7  UNL     1      21.315   3.777  51.865  1.00  0.00     0.018 C 
HETATM   10  C8  UNL     1      21.808   4.593  50.953  1.00  0.00     0.117 C 
HETATM   11  N3  UNL     1      22.776   4.993  50.011  1.00  0.00    -0.254 NA
HETATM   12  C9  UNL     1      24.006   4.699  50.152  1.00  0.00     0.232 C 
HETATM   13  N4  UNL     1      25.107   4.133  50.784  1.00  0.00    -0.250 NA
HETATM   14  C10 UNL     1      25.151   2.845  51.117  1.00  0.00     0.021 C 
HETATM   15  C11 UNL     1      26.054   1.847  51.761  1.00  0.00     0.048 C 
HETATM   16  C12 UNL     1      27.262   1.768  52.357  1.00  0.00     0.004 C 
HETATM   17  C13 UNL     1      27.913   0.598  52.912  1.00  0.00     0.052 C 
HETATM   18  C14 UNL     1      23.849   2.314  50.770  1.00  0.00     0.100 C 
HETATM   19  H4  UNL     1      23.919   1.316  52.455  1.00  0.00     0.362 HD
ENDROOT
BRANCH   1  20
HETATM   20  O1  UNL     1      27.892  -1.684  53.478  1.00  0.00    -0.291 OA
BRANCH  20  21
HETATM   21  N1  UNL     1      27.827  -2.916  52.934  1.00  0.00    -0.214 NA
HETATM   22  H1  UNL     1      27.902  -3.653  53.649  1.00  0.00     0.150 HD
HETATM   23  H2  UNL     1      26.948  -2.995  52.392  1.00  0.00     0.150 HD
ENDBRANCH  20  21
ENDBRANCH   1  20
TORSDOF 2
ENDMDL
MODEL 8
REMARK VINA RESULT:      -7.6      3.294      7.062
REMARK  2 active torsions:
REMARK  status: ('A' for Active; 'I' for Inactive)
REMARK    1  A    between atoms: N1_1  and  O1_2 
REMARK    2  A    between atoms: O1_2  and  C1_3 
ROOT
HETATM    1  C1  UNL     1      22.351   2.320  49.697  1.00  0.00     0.224 C 
HETATM    2  C2  UNL     1      23.639   2.827  49.684  1.00  0.00    -0.067 C 
HETATM    3  C3  UNL     1      24.688   3.223  49.688  1.00  0.00    -0.024 C 
HETATM    4  C4  UNL     1      25.990   3.697  49.713  1.00  0.00     0.426 A 
HETATM    5  O2  UNL     1      27.110   3.677  50.188  1.00  0.00    -0.134 OA
HETATM    6  N2  UNL     1      26.321   2.784  50.819  1.00  0.00     0.115 N 
HETATM    7  C5  UNL     1      26.786   1.896  51.955  1.00  0.00     0.199 A 
HETATM    8  C6  UNL     1      27.868   2.304  52.593  1.00  0.00     0.015 C 
HETATM    9  C7  UNL     1      28.615   1.784  53.701  1.00  0.00     0.018 C 
HETATM   10  C8  UNL     1      28.332   0.700  54.399  1.00  0.00     0.117 C 
HETATM   11  N3  UNL     1      27.551  -0.432  54.706  1.00  0.00    -0.254 NA
HETATM   12  C9  UNL     1      26.295  -0.452  54.505  1.00  0.00     0.232 C 
HETATM   13  N4  UNL     1      25.070   0.066  54.101  1.00  0.00    -0.250 NA
HETATM   14  C10 UNL     1      24.876   0.562  52.882  1.00  0.00     0.021 C 
HETATM   15  C11 UNL     1      23.811   1.184  52.042  1.00  0.00     0.048 C 
HETATM   16  C12 UNL     1      22.523   1.583  52.120  1.00  0.00     0.004 C 
HETATM   17  C13 UNL     1      21.707   2.182  51.083  1.00  0.00     0.052 C 
HETATM   18  C14 UNL     1      26.170   0.507  52.234  1.00  0.00     0.100 C 
HETATM   19  H4  UNL     1      25.768   2.281  51.504  1.00  0.00     0.362 HD
ENDROOT
BRANCH   1  20
HETATM   20  O1  UNL     1      21.464   3.055  48.914  1.00  0.00    -0.291 OA
BRANCH  20  21
HETATM   21  N1  UNL     1      21.051   2.373  47.826  1.00  0.00    -0.214 NA
HETATM   22  H1  UNL     1      20.054   2.536  47.631  1.00  0.00     0.150 HD
HETATM   23  H2  UNL     1      21.648   2.637  47.022  1.00  0.00     0.150 HD
ENDBRANCH  20  21
ENDBRANCH   1  20
TORSDOF 2
ENDMDL
MODEL 9
REMARK VINA RESULT:      -7.5      2.333      5.925
REMARK  2 active torsions:
REMARK  status: ('A' for Active; 'I' for Inactive)
REMARK    1  A    between atoms: N1_1  and  O1_2 
REMARK    2  A    between atoms: O1_2  and  C1_3 
ROOT
HETATM    1  C1  UNL     1      18.350  -0.100  52.257  1.00  0.00     0.224 C 
HETATM    2  C2  UNL     1      19.300  -0.688  53.074  1.00  0.00    -0.067 C 
HETATM    3  C3  UNL     1      20.083  -1.150  53.730  1.00  0.00    -0.024 C 
HETATM    4  C4  UNL     1      21.069  -1.706  54.529  1.00  0.00     0.426 A 
HETATM    5  O2  UNL     1      22.232  -1.761  54.883  1.00  0.00    -0.134 OA
HETATM    6  N2  UNL     1      22.081  -0.824  53.925  1.00  0.00     0.115 N 
HETATM    7  C5  UNL     1      23.214   0.024  53.383  1.00  0.00     0.199 A 
HETATM    8  C6  UNL     1      24.430  -0.458  53.573  1.00  0.00     0.015 C 
HETATM    9  C7  UNL     1      25.740   0.005  53.220  1.00  0.00     0.018 C 
HETATM   10  C8  UNL     1      26.029   1.100  52.542  1.00  0.00     0.117 C 
HETATM   11  N3  UNL     1      25.691   2.277  51.845  1.00  0.00    -0.254 NA
HETATM   12  C9  UNL     1      24.602   2.379  51.195  1.00  0.00     0.232 C 
HETATM   13  N4  UNL     1      23.378   1.943  50.702  1.00  0.00    -0.250 NA
HETATM   14  C10 UNL     1      22.420   1.469  51.495  1.00  0.00     0.021 C 
HETATM   15  C11 UNL     1      21.032   0.922  51.434  1.00  0.00     0.048 C 
HETATM   16  C12 UNL     1      20.076   0.606  50.535  1.00  0.00     0.004 C 
HETATM   17  C13 UNL     1      18.754   0.068  50.786  1.00  0.00     0.052 C 
HETATM   18  C14 UNL     1      22.997   1.446  52.823  1.00  0.00     0.100 C 
HETATM   19  H4  UNL     1      22.125  -0.292  53.063  1.00  0.00     0.362 HD
ENDROOT
BRANCH   1  20
HETATM   20  O1  UNL     1      17.129  -0.771  52.263  1.00  0.00    -0.291 OA
BRANCH  20  21
HETATM   21  N1  UNL     1      16.518  -0.718  53.464  1.00  0.00    -0.214 NA
HETATM   22  H1  UNL     1      16.122   0.214  53.649  1.00  0.00     0.150 HD
HETATM   23  H2  UNL     1      15.794  -1.457  53.502  1.00  0.00     0.150 HD
ENDBRANCH  20  21
ENDBRANCH   1  20
TORSDOF 2
ENDMDL
