MODEL 1
REMARK VINA RESULT:      -7.2      0.000      0.000
REMARK  4 active torsions:
REMARK  status: ('A' for Active; 'I' for Inactive)
REMARK    1  A    between atoms: C2_2  and  O1_3 
REMARK    2  A    between atoms: O1_3  and  C3_4 
REMARK    3  A    between atoms: C7_10  and  N3_11 
REMARK    4  A    between atoms: N3_11  and  C8_12 
ROOT
HETATM    1  C3  UNL     1      22.330   0.992  52.076  1.00  0.00     0.106 C 
HETATM    2  C4  UNL     1      23.036   1.603  53.078  1.00  0.00     0.072 C 
HETATM    3  C5  UNL     1      23.536   2.814  52.440  1.00  0.00     0.096 A 
HETATM    4  N1  UNL     1      23.618   3.956  53.090  1.00  0.00    -0.242 NA
HETATM    5  C6  UNL     1      24.098   5.012  52.280  1.00  0.00     0.231 A 
HETATM    6  N2  UNL     1      24.307   4.475  51.090  1.00  0.00    -0.237 NA
HETATM    7  C7  UNL     1      23.992   3.126  51.105  1.00  0.00     0.224 A 
HETATM    8  C15 UNL     1      23.061   2.475  50.164  1.00  0.00     0.140 C 
HETATM    9  C16 UNL     1      22.319   1.455  50.657  1.00  0.00     0.136 C 
HETATM   10  O2  UNL     1      21.510   0.837  49.717  1.00  0.00    -0.344 OA
HETATM   11  C17 UNL     1      21.858   0.996  48.341  1.00  0.00     0.202 C 
HETATM   12  C18 UNL     1      22.033   2.459  48.019  1.00  0.00     0.202 C 
HETATM   13  O3  UNL     1      23.041   2.966  48.897  1.00  0.00    -0.346 OA
ENDROOT
BRANCH   7  14
HETATM   14  N3  UNL     1      25.297   2.354  50.873  1.00  0.00    -0.351 N 
HETATM   15  H8  UNL     1      25.529   2.395  49.833  1.00  0.00     0.163 HD
BRANCH  14  16
HETATM   16  C8  UNL     1      26.214   1.652  51.658  1.00  0.00     0.030 A 
HETATM   17  C9  UNL     1      26.284   0.302  51.856  1.00  0.00     0.029 A 
HETATM   18  C10 UNL     1      27.192  -0.374  52.638  1.00  0.00     0.009 A 
HETATM   19  C11 UNL     1      28.108   0.418  53.268  1.00  0.00    -0.062 A 
HETATM   20  C12 UNL     1      29.145  -0.163  54.139  1.00  0.00     0.048 C 
HETATM   21  C13 UNL     1      28.104   1.784  53.117  1.00  0.00     0.009 A 
HETATM   22  C14 UNL     1      27.166   2.395  52.320  1.00  0.00     0.029 A 
ENDBRANCH  14  16
ENDBRANCH   7  14
BRANCH   1  23
HETATM   23  O1  UNL     1      21.615  -0.189  52.291  1.00  0.00    -0.348 OA
BRANCH  23  24
HETATM   24  C2  UNL     1      20.755  -0.372  53.398  1.00  0.00     0.171 C 
HETATM   25  C1  UNL     1      21.297  -1.534  54.205  1.00  0.00     0.034 C 
ENDBRANCH  23  24
ENDBRANCH   1  23
TORSDOF 4
ENDMDL
MODEL 2
REMARK VINA RESULT:      -7.0      1.830      3.864
REMARK  4 active torsions:
REMARK  status: ('A' for Active; 'I' for Inactive)
REMARK    1  A    between atoms: C2_2  and  O1_3 
REMARK    2  A    between atoms: O1_3  and  C3_4 
REMARK    3  A    between atoms: C7_10  and  N3_11 
REMARK    4  A    between atoms: N3_11  and  C8_12 
ROOT
HETATM    1  C3  UNL     1      21.935   2.002  50.201  1.00  0.00     0.106 C 
HETATM    2  C4  UNL     1      21.815   0.663  50.465  1.00  0.00     0.072 C 
HETATM    3  C5  UNL     1      22.326   0.546  51.824  1.00  0.00     0.096 A 
HETATM    4  N1  UNL     1      21.794  -0.286  52.695  1.00  0.00    -0.242 NA
HETATM    5  C6  UNL     1      22.418  -0.222  53.962  1.00  0.00     0.231 A 
HETATM    6  N2  UNL     1      23.362   0.695  53.844  1.00  0.00    -0.237 NA
HETATM    7  C7  UNL     1      23.377   1.212  52.558  1.00  0.00     0.224 A 
HETATM    8  C15 UNL     1      23.291   2.649  52.234  1.00  0.00     0.140 C 
HETATM    9  C16 UNL     1      22.628   2.973  51.099  1.00  0.00     0.136 C 
HETATM   10  O2  UNL     1      22.632   4.328  50.807  1.00  0.00    -0.344 OA
HETATM   11  C17 UNL     1      23.651   5.128  51.409  1.00  0.00     0.202 C 
HETATM   12  C18 UNL     1      23.672   4.900  52.900  1.00  0.00     0.202 C 
HETATM   13  O3  UNL     1      23.886   3.502  53.109  1.00  0.00    -0.346 OA
ENDROOT
BRANCH   7  14
HETATM   14  N3  UNL     1      24.712   0.805  51.922  1.00  0.00    -0.351 N 
HETATM   15  H8  UNL     1      24.622   0.905  50.863  1.00  0.00     0.163 HD
BRANCH  14  16
HETATM   16  C8  UNL     1      25.959   0.365  52.372  1.00  0.00     0.030 A 
HETATM   17  C9  UNL     1      26.390  -0.923  52.516  1.00  0.00     0.029 A 
HETATM   18  C10 UNL     1      27.621  -1.339  52.967  1.00  0.00     0.009 A 
HETATM   19  C11 UNL     1      28.481  -0.332  53.296  1.00  0.00    -0.062 A 
HETATM   20  C12 UNL     1      29.837  -0.622  53.794  1.00  0.00     0.048 C 
HETATM   21  C13 UNL     1      28.122   0.990  53.178  1.00  0.00     0.009 A 
HETATM   22  C14 UNL     1      26.874   1.335  52.720  1.00  0.00     0.029 A 
ENDBRANCH  14  16
ENDBRANCH   7  14
BRANCH   1  23
HETATM   23  O1  UNL     1      21.482   2.563  49.004  1.00  0.00    -0.348 OA
BRANCH  23  24
HETATM   24  C2  UNL     1      22.118   2.334  47.764  1.00  0.00     0.171 C 
HETATM   25  C1  UNL     1      21.756   3.487  46.850  1.00  0.00     0.034 C 
ENDBRANCH  23  24
ENDBRANCH   1  23
TORSDOF 4
ENDMDL
MODEL 3
REMARK VINA RESULT:      -7.0      2.583      4.025
REMARK  4 active torsions:
REMARK  status: ('A' for Active; 'I' for Inactive)
REMARK    1  A    between atoms: C2_2  and  O1_3 
REMARK    2  A    between atoms: O1_3  and  C3_4 
REMARK    3  A    between atoms: C7_10  and  N3_11 
REMARK    4  A    between atoms: N3_11  and  C8_12 
ROOT
HETATM    1  C3  UNL     1      23.754   1.742  52.681  1.00  0.00     0.106 C 
HETATM    2  C4  UNL     1      24.400   2.926  52.917  1.00  0.00     0.072 C 
HETATM    3  C5  UNL     1      23.573   3.901  52.219  1.00  0.00     0.096 A 
HETATM    4  N1  UNL     1      23.364   5.107  52.705  1.00  0.00    -0.242 NA
HETATM    5  C6  UNL     1      22.509   5.883  51.888  1.00  0.00     0.231 A 
HETATM    6  N2  UNL     1      22.189   5.102  50.871  1.00  0.00    -0.237 NA
HETATM    7  C7  UNL     1      22.808   3.868  50.994  1.00  0.00     0.224 A 
HETATM    8  C15 UNL     1      22.102   2.573  50.958  1.00  0.00     0.140 C 
HETATM    9  C16 UNL     1      22.599   1.591  51.745  1.00  0.00     0.136 C 
HETATM   10  O2  UNL     1      21.941   0.378  51.625  1.00  0.00    -0.344 OA
HETATM   11  C17 UNL     1      21.180   0.158  50.436  1.00  0.00     0.202 C 
HETATM   12  C18 UNL     1      20.231   1.308  50.211  1.00  0.00     0.202 C 
HETATM   13  O3  UNL     1      21.022   2.497  50.137  1.00  0.00    -0.346 OA
ENDROOT
BRANCH   7  14
HETATM   14  N3  UNL     1      23.801   3.741  49.833  1.00  0.00    -0.351 N 
HETATM   15  H8  UNL     1      23.492   2.927  49.217  1.00  0.00     0.163 HD
BRANCH  14  16
HETATM   16  C8  UNL     1      24.952   4.407  49.404  1.00  0.00     0.030 A 
HETATM   17  C9  UNL     1      25.052   5.688  48.940  1.00  0.00     0.029 A 
HETATM   18  C10 UNL     1      26.194   6.327  48.516  1.00  0.00     0.009 A 
HETATM   19  C11 UNL     1      27.330   5.574  48.579  1.00  0.00    -0.062 A 
HETATM   20  C12 UNL     1      28.631   6.123  48.158  1.00  0.00     0.048 C 
HETATM   21  C13 UNL     1      27.310   4.277  49.035  1.00  0.00     0.009 A 
HETATM   22  C14 UNL     1      26.133   3.700  49.443  1.00  0.00     0.029 A 
ENDBRANCH  14  16
ENDBRANCH   7  14
BRANCH   1  23
HETATM   23  O1  UNL     1      24.186   0.539  53.244  1.00  0.00    -0.348 OA
BRANCH  23  24
HETATM   24  C2  UNL     1      25.530   0.307  53.614  1.00  0.00     0.171 C 
HETATM   25  C1  UNL     1      26.244  -0.250  52.399  1.00  0.00     0.034 C 
ENDBRANCH  23  24
ENDBRANCH   1  23
TORSDOF 4
ENDMDL
MODEL 4
REMARK VINA RESULT:      -7.0      2.723      4.982
REMARK  4 active torsions:
REMARK  status: ('A' for Active; 'I' for Inactive)
REMARK    1  A    between atoms: C2_2  and  O1_3 
REMARK    2  A    between atoms: O1_3  and  C3_4 
REMARK    3  A    between atoms: C7_10  and  N3_11 
REMARK    4  A    between atoms: N3_11  and  C8_12 
ROOT
HETATM    1  C3  UNL     1      24.353   4.307  49.330  1.00  0.00     0.106 C 
HETATM    2  C4  UNL     1      24.100   2.963  49.258  1.00  0.00     0.072 C 
HETATM    3  C5  UNL     1      22.709   2.863  49.680  1.00  0.00     0.096 A 
HETATM    4  N1  UNL     1      21.878   2.003  49.132  1.00  0.00    -0.242 NA
HETATM    5  C6  UNL     1      20.571   2.090  49.664  1.00  0.00     0.231 A 
HETATM    6  N2  UNL     1      20.624   3.053  50.570  1.00  0.00    -0.237 NA
HETATM    7  C7  UNL     1      21.905   3.575  50.646  1.00  0.00     0.224 A 
HETATM    8  C15 UNL     1      22.232   5.008  50.513  1.00  0.00     0.140 C 
HETATM    9  C16 UNL     1      23.408   5.306  49.913  1.00  0.00     0.136 C 
HETATM   10  O2  UNL     1      23.697   6.660  49.871  1.00  0.00    -0.344 OA
HETATM   11  C17 UNL     1      23.026   7.505  50.808  1.00  0.00     0.202 C 
HETATM   12  C18 UNL     1      21.538   7.272  50.739  1.00  0.00     0.202 C 
HETATM   13  O3  UNL     1      21.317   5.884  51.005  1.00  0.00    -0.346 OA
ENDROOT
BRANCH   7  14
HETATM   14  N3  UNL     1      22.450   3.236  52.039  1.00  0.00    -0.351 N 
HETATM   15  H8  UNL     1      21.974   3.874  52.749  1.00  0.00     0.163 HD
BRANCH  14  16
HETATM   16  C8  UNL     1      23.368   2.331  52.577  1.00  0.00     0.030 A 
HETATM   17  C9  UNL     1      23.223   0.980  52.723  1.00  0.00     0.029 A 
HETATM   18  C10 UNL     1      24.137   0.104  53.261  1.00  0.00     0.009 A 
HETATM   19  C11 UNL     1      25.302   0.676  53.683  1.00  0.00    -0.062 A 
HETATM   20  C12 UNL     1      26.376  -0.137  54.281  1.00  0.00     0.048 C 
HETATM   21  C13 UNL     1      25.522   2.028  53.568  1.00  0.00     0.009 A 
HETATM   22  C14 UNL     1      24.565   2.847  53.021  1.00  0.00     0.029 A 
ENDBRANCH  14  16
ENDBRANCH   7  14
BRANCH   1  23
HETATM   23  O1  UNL     1      25.577   4.851  48.933  1.00  0.00    -0.348 OA
BRANCH  23  24
HETATM   24  C2  UNL     1      26.817   4.253  49.247  1.00  0.00     0.171 C 
HETATM   25  C1  UNL     1      27.897   5.059  48.555  1.00  0.00     0.034 C 
ENDBRANCH  23  24
ENDBRANCH   1  23
TORSDOF 4
ENDMDL
MODEL 5
REMARK VINA RESULT:      -6.9      1.920      5.579
REMARK  4 active torsions:
REMARK  status: ('A' for Active; 'I' for Inactive)
REMARK    1  A    between atoms: C2_2  and  O1_3 
REMARK    2  A    between atoms: O1_3  and  C3_4 
REMARK    3  A    between atoms: C7_10  and  N3_11 
REMARK    4  A    between atoms: N3_11  and  C8_12 
ROOT
HETATM    1  C3  UNL     1      25.078   0.220  53.207  1.00  0.00     0.106 C 
HETATM    2  C4  UNL     1      25.567   1.328  52.567  1.00  0.00     0.072 C 
HETATM    3  C5  UNL     1      24.408   2.208  52.496  1.00  0.00     0.096 A 
HETATM    4  N1  UNL     1      24.519   3.512  52.640  1.00  0.00    -0.242 NA
HETATM    5  C6  UNL     1      23.273   4.177  52.568  1.00  0.00     0.231 A 
HETATM    6  N2  UNL     1      22.376   3.224  52.378  1.00  0.00    -0.237 NA
HETATM    7  C7  UNL     1      22.993   1.985  52.315  1.00  0.00     0.224 A 
HETATM    8  C15 UNL     1      22.625   0.826  53.151  1.00  0.00     0.140 C 
HETATM    9  C16 UNL     1      23.634   0.005  53.524  1.00  0.00     0.136 C 
HETATM   10  O2  UNL     1      23.227  -1.101  54.252  1.00  0.00    -0.344 OA
HETATM   11  C17 UNL     1      21.859  -1.496  54.138  1.00  0.00     0.202 C 
HETATM   12  C18 UNL     1      20.958  -0.317  54.405  1.00  0.00     0.202 C 
HETATM   13  O3  UNL     1      21.308   0.701  53.464  1.00  0.00    -0.346 OA
ENDROOT
BRANCH   7  14
HETATM   14  N3  UNL     1      22.789   1.449  50.893  1.00  0.00    -0.351 N 
HETATM   15  H8  UNL     1      22.992   0.402  50.898  1.00  0.00     0.163 HD
BRANCH  14  16
HETATM   16  C8  UNL     1      22.411   1.974  49.654  1.00  0.00     0.030 A 
HETATM   17  C9  UNL     1      21.266   1.723  48.954  1.00  0.00     0.029 A 
HETATM   18  C10 UNL     1      20.912   2.245  47.732  1.00  0.00     0.009 A 
HETATM   19  C11 UNL     1      21.823   3.104  47.189  1.00  0.00    -0.062 A 
HETATM   20  C12 UNL     1      21.583   3.743  45.883  1.00  0.00     0.048 C 
HETATM   21  C13 UNL     1      22.999   3.408  47.833  1.00  0.00     0.009 A 
HETATM   22  C14 UNL     1      23.289   2.849  49.054  1.00  0.00     0.029 A 
ENDBRANCH  14  16
ENDBRANCH   7  14
BRANCH   1  23
HETATM   23  O1  UNL     1      25.898  -0.859  53.546  1.00  0.00    -0.348 OA
BRANCH  23  24
HETATM   24  C2  UNL     1      26.859  -1.397  52.661  1.00  0.00     0.171 C 
HETATM   25  C1  UNL     1      28.226  -1.086  53.235  1.00  0.00     0.034 C 
ENDBRANCH  23  24
ENDBRANCH   1  23
TORSDOF 4
ENDMDL
MODEL 6
REMARK VINA RESULT:      -6.7      8.130     10.914
REMARK  4 active torsions:
REMARK  status: ('A' for Active; 'I' for Inactive)
REMARK    1  A    between atoms: C2_2  and  O1_3 
REMARK    2  A    between atoms: O1_3  and  C3_4 
REMARK    3  A    between atoms: C7_10  and  N3_11 
REMARK    4  A    between atoms: N3_11  and  C8_12 
ROOT
HETATM    1  C3  UNL     1      32.521   6.186  45.466  1.00  0.00     0.106 C 
HETATM    2  C4  UNL     1      31.878   7.315  45.899  1.00  0.00     0.072 C 
HETATM    3  C5  UNL     1      31.707   7.074  47.326  1.00  0.00     0.096 A 
HETATM    4  N1  UNL     1      31.815   8.042  48.210  1.00  0.00    -0.242 NA
HETATM    5  C6  UNL     1      31.644   7.590  49.539  1.00  0.00     0.231 A 
HETATM    6  N2  UNL     1      31.430   6.289  49.443  1.00  0.00    -0.237 NA
HETATM    7  C7  UNL     1      31.446   5.892  48.115  1.00  0.00     0.224 A 
HETATM    8  C15 UNL     1      32.294   4.812  47.576  1.00  0.00     0.140 C 
HETATM    9  C16 UNL     1      32.755   4.979  46.314  1.00  0.00     0.136 C 
HETATM   10  O2  UNL     1      33.491   3.909  45.833  1.00  0.00    -0.344 OA
HETATM   11  C17 UNL     1      33.306   2.643  46.469  1.00  0.00     0.202 C 
HETATM   12  C18 UNL     1      33.478   2.785  47.960  1.00  0.00     0.202 C 
HETATM   13  O3  UNL     1      32.529   3.759  48.402  1.00  0.00    -0.346 OA
ENDROOT
BRANCH   7  14
HETATM   14  N3  UNL     1      30.031   5.411  47.769  1.00  0.00    -0.351 N 
HETATM   15  H8  UNL     1      30.114   4.581  47.104  1.00  0.00     0.163 HD
BRANCH  14  16
HETATM   16  C8  UNL     1      28.725   5.773  48.106  1.00  0.00     0.030 A 
HETATM   17  C9  UNL     1      28.146   7.006  48.002  1.00  0.00     0.029 A 
HETATM   18  C10 UNL     1      26.858   7.347  48.344  1.00  0.00     0.009 A 
HETATM   19  C11 UNL     1      26.104   6.321  48.836  1.00  0.00    -0.062 A 
HETATM   20  C12 UNL     1      24.705   6.533  49.245  1.00  0.00     0.048 C 
HETATM   21  C13 UNL     1      26.615   5.052  48.970  1.00  0.00     0.009 A 
HETATM   22  C14 UNL     1      27.912   4.781  48.609  1.00  0.00     0.029 A 
ENDBRANCH  14  16
ENDBRANCH   7  14
BRANCH   1  23
HETATM   23  O1  UNL     1      32.945   6.039  44.143  1.00  0.00    -0.348 OA
BRANCH  23  24
HETATM   24  C2  UNL     1      34.131   6.628  43.650  1.00  0.00     0.171 C 
HETATM   25  C1  UNL     1      34.729   5.667  42.643  1.00  0.00     0.034 C 
ENDBRANCH  23  24
ENDBRANCH   1  23
TORSDOF 4
ENDMDL
MODEL 7
REMARK VINA RESULT:      -6.6      2.717      4.504
REMARK  4 active torsions:
REMARK  status: ('A' for Active; 'I' for Inactive)
REMARK    1  A    between atoms: C2_2  and  O1_3 
REMARK    2  A    between atoms: O1_3  and  C3_4 
REMARK    3  A    between atoms: C7_10  and  N3_11 
REMARK    4  A    between atoms: N3_11  and  C8_12 
ROOT
HETATM    1  C3  UNL     1      23.172   6.411  50.381  1.00  0.00     0.106 C 
HETATM    2  C4  UNL     1      24.373   7.036  50.594  1.00  0.00     0.072 C 
HETATM    3  C5  UNL     1      25.324   6.163  49.919  1.00  0.00     0.096 A 
HETATM    4  N1  UNL     1      26.363   6.642  49.267  1.00  0.00    -0.242 NA
HETATM    5  C6  UNL     1      27.142   5.630  48.661  1.00  0.00     0.231 A 
HETATM    6  N2  UNL     1      26.536   4.493  48.961  1.00  0.00    -0.237 NA
HETATM    7  C7  UNL     1      25.415   4.733  49.738  1.00  0.00     0.224 A 
HETATM    8  C15 UNL     1      24.058   4.249  49.418  1.00  0.00     0.140 C 
HETATM    9  C16 UNL     1      23.030   5.058  49.765  1.00  0.00     0.136 C 
HETATM   10  O2  UNL     1      21.777   4.529  49.502  1.00  0.00    -0.344 OA
HETATM   11  C17 UNL     1      21.679   3.112  49.352  1.00  0.00     0.202 C 
HETATM   12  C18 UNL     1      22.688   2.630  48.341  1.00  0.00     0.202 C 
HETATM   13  O3  UNL     1      23.977   3.039  48.805  1.00  0.00    -0.346 OA
ENDROOT
BRANCH   7  14
HETATM   14  N3  UNL     1      25.676   4.109  51.114  1.00  0.00    -0.351 N 
HETATM   15  H8  UNL     1      25.862   4.897  51.809  1.00  0.00     0.163 HD
BRANCH  14  16
HETATM   16  C8  UNL     1      25.717   2.821  51.654  1.00  0.00     0.030 A 
HETATM   17  C9  UNL     1      26.610   1.826  51.374  1.00  0.00     0.029 A 
HETATM   18  C10 UNL     1      26.633   0.560  51.911  1.00  0.00     0.009 A 
HETATM   19  C11 UNL     1      25.647   0.303  52.818  1.00  0.00    -0.062 A 
HETATM   20  C12 UNL     1      25.543  -1.010  53.479  1.00  0.00     0.048 C 
HETATM   21  C13 UNL     1      24.712   1.254  53.154  1.00  0.00     0.009 A 
HETATM   22  C14 UNL     1      24.748   2.500  52.577  1.00  0.00     0.029 A 
ENDBRANCH  14  16
ENDBRANCH   7  14
BRANCH   1  23
HETATM   23  O1  UNL     1      21.964   6.967  50.810  1.00  0.00    -0.348 OA
BRANCH  23  24
HETATM   24  C2  UNL     1      21.341   8.047  50.146  1.00  0.00     0.171 C 
HETATM   25  C1  UNL     1      20.013   7.546  49.616  1.00  0.00     0.034 C 
ENDBRANCH  23  24
ENDBRANCH   1  23
TORSDOF 4
ENDMDL
MODEL 8
REMARK VINA RESULT:      -6.5      8.659     11.168
REMARK  4 active torsions:
REMARK  status: ('A' for Active; 'I' for Inactive)
REMARK    1  A    between atoms: C2_2  and  O1_3 
REMARK    2  A    between atoms: O1_3  and  C3_4 
REMARK    3  A    between atoms: C7_10  and  N3_11 
REMARK    4  A    between atoms: N3_11  and  C8_12 
ROOT
HETATM    1  C3  UNL     1      31.051  10.247  48.133  1.00  0.00     0.106 C 
HETATM    2  C4  UNL     1      30.671   9.486  49.206  1.00  0.00     0.072 C 
HETATM    3  C5  UNL     1      31.253   8.183  48.911  1.00  0.00     0.096 A 
HETATM    4  N1  UNL     1      31.755   7.419  49.858  1.00  0.00    -0.242 NA
HETATM    5  C6  UNL     1      32.296   6.213  49.356  1.00  0.00     0.231 A 
HETATM    6  N2  UNL     1      32.113   6.263  48.047  1.00  0.00    -0.237 NA
HETATM    7  C7  UNL     1      31.471   7.438  47.693  1.00  0.00     0.224 A 
HETATM    8  C15 UNL     1      31.972   8.392  46.684  1.00  0.00     0.140 C 
HETATM    9  C16 UNL     1      31.726   9.702  46.917  1.00  0.00     0.136 C 
HETATM   10  O2  UNL     1      32.159  10.549  45.910  1.00  0.00    -0.344 OA
HETATM   11  C17 UNL     1      32.369   9.980  44.616  1.00  0.00     0.202 C 
HETATM   12  C18 UNL     1      33.265   8.771  44.724  1.00  0.00     0.202 C 
HETATM   13  O3  UNL     1      32.632   7.857  45.623  1.00  0.00    -0.346 OA
ENDROOT
BRANCH   7  14
HETATM   14  N3  UNL     1      30.096   7.054  47.135  1.00  0.00    -0.351 N 
HETATM   15  H8  UNL     1      30.129   7.142  46.073  1.00  0.00     0.163 HD
BRANCH  14  16
HETATM   16  C8  UNL     1      28.872   6.628  47.657  1.00  0.00     0.030 A 
HETATM   17  C9  UNL     1      27.700   7.328  47.720  1.00  0.00     0.029 A 
HETATM   18  C10 UNL     1      26.504   6.895  48.243  1.00  0.00     0.009 A 
HETATM   19  C11 UNL     1      26.523   5.625  48.742  1.00  0.00    -0.062 A 
HETATM   20  C12 UNL     1      25.316   5.023  49.335  1.00  0.00     0.048 C 
HETATM   21  C13 UNL     1      27.663   4.857  48.714  1.00  0.00     0.009 A 
HETATM   22  C14 UNL     1      28.825   5.353  48.177  1.00  0.00     0.029 A 
ENDBRANCH  14  16
ENDBRANCH   7  14
BRANCH   1  23
HETATM   23  O1  UNL     1      30.754  11.610  48.052  1.00  0.00    -0.348 OA
BRANCH  23  24
HETATM   24  C2  UNL     1      30.421  12.389  49.183  1.00  0.00     0.171 C 
HETATM   25  C1  UNL     1      28.975  12.813  49.029  1.00  0.00     0.034 C 
ENDBRANCH  23  24
ENDBRANCH   1  23
TORSDOF 4
ENDMDL
MODEL 9
REMARK VINA RESULT:      -6.4      2.308      5.915
REMARK  4 active torsions:
REMARK  status: ('A' for Active; 'I' for Inactive)
REMARK    1  A    between atoms: C2_2  and  O1_3 
REMARK    2  A    between atoms: O1_3  and  C3_4 
REMARK    3  A    between atoms: C7_10  and  N3_11 
REMARK    4  A    between atoms: N3_11  and  C8_12 
ROOT
HETATM    1  C3  UNL     1      23.198   4.989  51.278  1.00  0.00     0.106 C 
HETATM    2  C4  UNL     1      23.526   4.632  52.559  1.00  0.00     0.072 C 
HETATM    3  C5  UNL     1      23.650   3.182  52.478  1.00  0.00     0.096 A 
HETATM    4  N1  UNL     1      24.566   2.526  53.158  1.00  0.00    -0.242 NA
HETATM    5  C6  UNL     1      24.534   1.134  52.914  1.00  0.00     0.231 A 
HETATM    6  N2  UNL     1      23.557   0.952  52.042  1.00  0.00    -0.237 NA
HETATM    7  C7  UNL     1      22.958   2.160  51.727  1.00  0.00     0.224 A 
HETATM    8  C15 UNL     1      22.782   2.674  50.355  1.00  0.00     0.140 C 
HETATM    9  C16 UNL     1      22.874   4.014  50.194  1.00  0.00     0.136 C 
HETATM   10  O2  UNL     1      22.637   4.449  48.900  1.00  0.00    -0.344 OA
HETATM   11  C17 UNL     1      21.907   3.576  48.036  1.00  0.00     0.202 C 
HETATM   12  C18 UNL     1      22.537   2.206  48.035  1.00  0.00     0.202 C 
HETATM   13  O3  UNL     1      22.547   1.746  49.389  1.00  0.00    -0.346 OA
ENDROOT
BRANCH   7  14
HETATM   14  N3  UNL     1      21.517   2.101  52.249  1.00  0.00    -0.351 N 
HETATM   15  H8  UNL     1      21.222   3.087  52.529  1.00  0.00     0.163 HD
BRANCH  14  16
HETATM   16  C8  UNL     1      20.542   1.117  52.429  1.00  0.00     0.030 A 
HETATM   17  C9  UNL     1      19.496   0.816  51.604  1.00  0.00     0.029 A 
HETATM   18  C10 UNL     1      18.540  -0.154  51.800  1.00  0.00     0.009 A 
HETATM   19  C11 UNL     1      18.683  -0.876  52.950  1.00  0.00    -0.062 A 
HETATM   20  C12 UNL     1      17.736  -1.950  53.295  1.00  0.00     0.048 C 
HETATM   21  C13 UNL     1      19.711  -0.633  53.829  1.00  0.00     0.009 A 
HETATM   22  C14 UNL     1      20.631   0.353  53.571  1.00  0.00     0.029 A 
ENDBRANCH  14  16
ENDBRANCH   7  14
BRANCH   1  23
HETATM   23  O1  UNL     1      23.055   6.326  50.898  1.00  0.00    -0.348 OA
BRANCH  23  24
HETATM   24  C2  UNL     1      24.050   7.300  51.137  1.00  0.00     0.171 C 
HETATM   25  C1  UNL     1      25.212   6.995  50.214  1.00  0.00     0.034 C 
ENDBRANCH  23  24
ENDBRANCH   1  23
TORSDOF 4
ENDMDL
