MODEL 1
REMARK VINA RESULT:      -7.7      0.000      0.000
REMARK  5 active torsions:
REMARK  status: ('A' for Active; 'I' for Inactive)
REMARK    1  A    between atoms: O1_2  and  C2_3 
REMARK    2  A    between atoms: C5_6  and  C6_7 
REMARK    3  A    between atoms: C6_7  and  N1_8 
REMARK    4  A    between atoms: N1_8  and  C8_10 
REMARK    5  A    between atoms: C18_22  and  O2_23 
ROOT
HETATM    1  C2  UNL     1      20.924   0.943  52.492  1.00  0.00     0.049 C 
HETATM    2  C3  UNL     1      22.149   0.422  52.707  1.00  0.00     0.017 C 
HETATM    3  C4  UNL     1      23.139   1.431  52.913  1.00  0.00     0.073 C 
HETATM    4  C5  UNL     1      24.254   2.071  53.143  1.00  0.00     0.045 C 
HETATM    5  N2  UNL     1      23.534   3.202  52.768  1.00  0.00    -0.270 N 
HETATM    6  C15 UNL     1      23.679   4.432  52.930  1.00  0.00     0.199 A 
HETATM    7  N3  UNL     1      22.558   4.064  52.217  1.00  0.00    -0.159 NA
HETATM    8  C16 UNL     1      22.177   4.569  51.118  1.00  0.00     0.092 C 
HETATM    9  C17 UNL     1      20.947   3.846  50.762  1.00  0.00     0.046 C 
HETATM   10  C18 UNL     1      20.100   2.901  51.172  1.00  0.00     0.050 C 
HETATM   11  C19 UNL     1      20.446   2.317  52.463  1.00  0.00     0.128 C 
ENDROOT
BRANCH   4  12
HETATM   12  C6  UNL     1      25.609   2.513  53.421  1.00  0.00     0.327 C 
BRANCH  12  13
HETATM   13  N1  UNL     1      26.673   1.747  52.795  1.00  0.00     0.100 N 
HETATM   14  C7  UNL     1      26.446   1.787  51.359  1.00  0.00     0.311 C 
BRANCH  13  15
HETATM   15  C8  UNL     1      26.744   0.409  53.330  1.00  0.00     0.173 A 
HETATM   16  C9  UNL     1      26.510  -0.686  52.377  1.00  0.00     0.045 A 
HETATM   17  C10 UNL     1      27.755  -0.582  52.838  1.00  0.00     0.017 A 
HETATM   18  C11 UNL     1      28.977  -0.144  53.559  1.00  0.00    -0.006 C 
HETATM   19  C12 UNL     1      29.932  -1.305  53.793  1.00  0.00     0.011 C 
HETATM   20  C13 UNL     1      28.470   0.390  54.877  1.00  0.00     0.008 C 
HETATM   21  C14 UNL     1      26.948   0.189  54.813  1.00  0.00     0.043 C 
ENDBRANCH  13  15
ENDBRANCH  12  13
ENDBRANCH   4  12
BRANCH   1  22
HETATM   22  O1  UNL     1      19.971  -0.039  52.276  1.00  0.00    -0.360 OA
HETATM   23  C1  UNL     1      19.248  -0.672  53.301  1.00  0.00     0.209 C 
ENDBRANCH   1  22
BRANCH  10  24
HETATM   24  O2  UNL     1      18.935   2.402  50.546  1.00  0.00    -0.365 OA
HETATM   25  H23 UNL     1      18.101   2.494  51.130  1.00  0.00     0.217 HD
ENDBRANCH  10  24
TORSDOF 5
ENDMDL
MODEL 2
REMARK VINA RESULT:      -7.5      2.968      6.324
REMARK  5 active torsions:
REMARK  status: ('A' for Active; 'I' for Inactive)
REMARK    1  A    between atoms: O1_2  and  C2_3 
REMARK    2  A    between atoms: C5_6  and  C6_7 
REMARK    3  A    between atoms: C6_7  and  N1_8 
REMARK    4  A    between atoms: N1_8  and  C8_10 
REMARK    5  A    between atoms: C18_22  and  O2_23 
ROOT
HETATM    1  C2  UNL     1      23.662  -0.159  53.585  1.00  0.00     0.049 C 
HETATM    2  C3  UNL     1      22.833   0.765  53.057  1.00  0.00     0.017 C 
HETATM    3  C4  UNL     1      23.518   1.684  52.205  1.00  0.00     0.073 C 
HETATM    4  C5  UNL     1      23.818   2.656  51.386  1.00  0.00     0.045 C 
HETATM    5  N2  UNL     1      25.138   2.331  51.684  1.00  0.00    -0.270 N 
HETATM    6  C15 UNL     1      26.243   2.550  51.143  1.00  0.00     0.199 A 
HETATM    7  N3  UNL     1      26.298   1.822  52.313  1.00  0.00    -0.159 NA
HETATM    8  C16 UNL     1      27.082   2.036  53.286  1.00  0.00     0.092 C 
HETATM    9  C17 UNL     1      26.756   1.007  54.285  1.00  0.00     0.046 C 
HETATM   10  C18 UNL     1      25.978  -0.049  54.523  1.00  0.00     0.050 C 
HETATM   11  C19 UNL     1      25.088  -0.390  53.418  1.00  0.00     0.128 C 
ENDROOT
BRANCH   4  12
HETATM   12  C6  UNL     1      23.862   3.793  50.484  1.00  0.00     0.327 C 
BRANCH  12  13
HETATM   13  N1  UNL     1      23.715   5.103  51.096  1.00  0.00     0.100 N 
HETATM   14  C7  UNL     1      22.483   5.082  51.869  1.00  0.00     0.311 C 
BRANCH  13  15
HETATM   15  C8  UNL     1      23.757   6.153  50.107  1.00  0.00     0.173 A 
HETATM   16  C9  UNL     1      22.955   7.351  50.396  1.00  0.00     0.045 A 
HETATM   17  C10 UNL     1      24.276   7.520  50.435  1.00  0.00     0.017 A 
HETATM   18  C11 UNL     1      25.743   7.304  50.381  1.00  0.00    -0.006 C 
HETATM   19  C12 UNL     1      26.481   8.577  50.000  1.00  0.00     0.011 C 
HETATM   20  C13 UNL     1      25.934   6.250  49.316  1.00  0.00     0.008 C 
HETATM   21  C14 UNL     1      24.513   5.953  48.812  1.00  0.00     0.043 C 
ENDBRANCH  13  15
ENDBRANCH  12  13
ENDBRANCH   4  12
BRANCH   1  22
HETATM   22  O1  UNL     1      22.996  -1.037  54.424  1.00  0.00    -0.360 OA
HETATM   23  C1  UNL     1      21.602  -1.055  54.596  1.00  0.00     0.209 C 
ENDBRANCH   1  22
BRANCH  10  24
HETATM   24  O2  UNL     1      25.902  -0.872  55.670  1.00  0.00    -0.365 OA
HETATM   25  H23 UNL     1      25.117  -1.525  55.638  1.00  0.00     0.217 HD
ENDBRANCH  10  24
TORSDOF 5
ENDMDL
MODEL 3
REMARK VINA RESULT:      -7.4      4.435      6.150
REMARK  5 active torsions:
REMARK  status: ('A' for Active; 'I' for Inactive)
REMARK    1  A    between atoms: O1_2  and  C2_3 
REMARK    2  A    between atoms: C5_6  and  C6_7 
REMARK    3  A    between atoms: C6_7  and  N1_8 
REMARK    4  A    between atoms: N1_8  and  C8_10 
REMARK    5  A    between atoms: C18_22  and  O2_23 
ROOT
HETATM    1  C2  UNL     1      27.319   5.513  48.513  1.00  0.00     0.049 C 
HETATM    2  C3  UNL     1      27.180   4.352  49.185  1.00  0.00     0.017 C 
HETATM    3  C4  UNL     1      25.936   4.275  49.883  1.00  0.00     0.073 C 
HETATM    4  C5  UNL     1      24.924   3.885  50.610  1.00  0.00     0.045 C 
HETATM    5  N2  UNL     1      24.491   5.203  50.487  1.00  0.00    -0.270 N 
HETATM    6  C15 UNL     1      23.397   5.787  50.635  1.00  0.00     0.199 A 
HETATM    7  N3  UNL     1      24.450   6.599  50.267  1.00  0.00    -0.159 NA
HETATM    8  C16 UNL     1      24.759   7.704  50.805  1.00  0.00     0.092 C 
HETATM    9  C17 UNL     1      25.942   8.178  50.071  1.00  0.00     0.046 C 
HETATM   10  C18 UNL     1      26.767   7.890  49.063  1.00  0.00     0.050 C 
HETATM   11  C19 UNL     1      26.433   6.656  48.359  1.00  0.00     0.128 C 
ENDROOT
BRANCH   4  12
HETATM   12  C6  UNL     1      23.956   3.205  51.451  1.00  0.00     0.327 C 
BRANCH  12  13
HETATM   13  N1  UNL     1      24.030   1.754  51.469  1.00  0.00     0.100 N 
HETATM   14  C7  UNL     1      22.705   1.250  51.143  1.00  0.00     0.311 C 
BRANCH  13  15
HETATM   15  C8  UNL     1      24.536   1.268  52.731  1.00  0.00     0.173 A 
HETATM   16  C9  UNL     1      23.843   0.106  53.306  1.00  0.00     0.045 A 
HETATM   17  C10 UNL     1      25.084  -0.119  52.876  1.00  0.00     0.017 A 
HETATM   18  C11 UNL     1      26.444   0.036  52.302  1.00  0.00    -0.006 C 
HETATM   19  C12 UNL     1      27.423  -0.955  52.911  1.00  0.00     0.011 C 
HETATM   20  C13 UNL     1      26.845   1.450  52.648  1.00  0.00     0.008 C 
HETATM   21  C14 UNL     1      25.651   2.005  53.441  1.00  0.00     0.043 C 
ENDBRANCH  13  15
ENDBRANCH  12  13
ENDBRANCH   4  12
BRANCH   1  22
HETATM   22  O1  UNL     1      28.533   5.590  47.851  1.00  0.00    -0.360 OA
HETATM   23  C1  UNL     1      29.775   5.706  48.498  1.00  0.00     0.209 C 
ENDBRANCH   1  22
BRANCH  10  24
HETATM   24  O2  UNL     1      27.892   8.602  48.588  1.00  0.00    -0.365 OA
HETATM   25  H23 UNL     1      28.624   7.989  48.225  1.00  0.00     0.217 HD
ENDBRANCH  10  24
TORSDOF 5
ENDMDL
MODEL 4
REMARK VINA RESULT:      -7.2      3.356      6.301
REMARK  5 active torsions:
REMARK  status: ('A' for Active; 'I' for Inactive)
REMARK    1  A    between atoms: O1_2  and  C2_3 
REMARK    2  A    between atoms: C5_6  and  C6_7 
REMARK    3  A    between atoms: C6_7  and  N1_8 
REMARK    4  A    between atoms: N1_8  and  C8_10 
REMARK    5  A    between atoms: C18_22  and  O2_23 
ROOT
HETATM    1  C2  UNL     1      26.287   2.659  51.068  1.00  0.00     0.049 C 
HETATM    2  C3  UNL     1      25.280   2.359  51.913  1.00  0.00     0.017 C 
HETATM    3  C4  UNL     1      23.997   2.531  51.310  1.00  0.00     0.073 C 
HETATM    4  C5  UNL     1      22.713   2.573  51.076  1.00  0.00     0.045 C 
HETATM    5  N2  UNL     1      23.076   3.243  49.910  1.00  0.00    -0.270 N 
HETATM    6  C15 UNL     1      22.515   3.480  48.819  1.00  0.00     0.199 A 
HETATM    7  N3  UNL     1      23.794   3.982  48.941  1.00  0.00    -0.159 NA
HETATM    8  C16 UNL     1      24.160   5.161  48.654  1.00  0.00     0.092 C 
HETATM    9  C17 UNL     1      25.599   5.207  48.956  1.00  0.00     0.046 C 
HETATM   10  C18 UNL     1      26.630   4.478  49.385  1.00  0.00     0.050 C 
HETATM   11  C19 UNL     1      26.291   3.089  49.678  1.00  0.00     0.128 C 
ENDROOT
BRANCH   4  12
HETATM   12  C6  UNL     1      21.262   2.520  51.090  1.00  0.00     0.327 C 
BRANCH  12  13
HETATM   13  N1  UNL     1      20.669   1.194  51.028  1.00  0.00     0.100 N 
HETATM   14  C7  UNL     1      19.731   1.193  49.916  1.00  0.00     0.311 C 
BRANCH  13  15
HETATM   15  C8  UNL     1      20.068   0.827  52.288  1.00  0.00     0.173 A 
HETATM   16  C9  UNL     1      18.932  -0.103  52.221  1.00  0.00     0.045 A 
HETATM   17  C10 UNL     1      20.045  -0.593  52.763  1.00  0.00     0.017 A 
HETATM   18  C11 UNL     1      21.426  -0.756  53.285  1.00  0.00    -0.006 C 
HETATM   19  C12 UNL     1      21.484  -1.792  54.396  1.00  0.00     0.011 C 
HETATM   20  C13 UNL     1      21.794   0.607  53.820  1.00  0.00     0.008 C 
HETATM   21  C14 UNL     1      20.543   1.466  53.575  1.00  0.00     0.043 C 
ENDBRANCH  13  15
ENDBRANCH  12  13
ENDBRANCH   4  12
BRANCH   1  22
HETATM   22  O1  UNL     1      27.529   2.506  51.662  1.00  0.00    -0.360 OA
HETATM   23  C1  UNL     1      27.720   2.048  52.976  1.00  0.00     0.209 C 
ENDBRANCH   1  22
BRANCH  10  24
HETATM   24  O2  UNL     1      27.979   4.853  49.584  1.00  0.00    -0.365 OA
HETATM   25  H23 UNL     1      28.176   5.803  49.266  1.00  0.00     0.217 HD
ENDBRANCH  10  24
TORSDOF 5
ENDMDL
MODEL 5
REMARK VINA RESULT:      -7.2      2.472      5.640
REMARK  5 active torsions:
REMARK  status: ('A' for Active; 'I' for Inactive)
REMARK    1  A    between atoms: O1_2  and  C2_3 
REMARK    2  A    between atoms: C5_6  and  C6_7 
REMARK    3  A    between atoms: C6_7  and  N1_8 
REMARK    4  A    between atoms: N1_8  and  C8_10 
REMARK    5  A    between atoms: C18_22  and  O2_23 
ROOT
HETATM    1  C2  UNL     1      21.117   0.469  52.752  1.00  0.00     0.049 C 
HETATM    2  C3  UNL     1      21.453   1.723  52.388  1.00  0.00     0.017 C 
HETATM    3  C4  UNL     1      22.860   1.871  52.188  1.00  0.00     0.073 C 
HETATM    4  C5  UNL     1      24.050   2.339  51.922  1.00  0.00     0.045 C 
HETATM    5  N2  UNL     1      24.503   1.135  52.455  1.00  0.00    -0.270 N 
HETATM    6  C15 UNL     1      25.570   0.489  52.391  1.00  0.00     0.199 A 
HETATM    7  N3  UNL     1      24.583  -0.087  53.162  1.00  0.00    -0.159 NA
HETATM    8  C16 UNL     1      24.732  -0.558  54.330  1.00  0.00     0.092 C 
HETATM    9  C17 UNL     1      23.404  -1.051  54.724  1.00  0.00     0.046 C 
HETATM   10  C18 UNL     1      22.146  -1.200  54.306  1.00  0.00     0.050 C 
HETATM   11  C19 UNL     1      21.917  -0.732  52.943  1.00  0.00     0.128 C 
ENDROOT
BRANCH   4  12
HETATM   12  C6  UNL     1      25.229   3.108  51.568  1.00  0.00     0.327 C 
BRANCH  12  13
HETATM   13  N1  UNL     1      25.321   3.540  50.184  1.00  0.00     0.100 N 
HETATM   14  C7  UNL     1      26.587   3.048  49.661  1.00  0.00     0.311 C 
BRANCH  13  15
HETATM   15  C8  UNL     1      25.168   4.970  50.067  1.00  0.00     0.173 A 
HETATM   16  C9  UNL     1      26.139   5.661  49.207  1.00  0.00     0.045 A 
HETATM   17  C10 UNL     1      24.888   5.626  48.750  1.00  0.00     0.017 A 
HETATM   18  C11 UNL     1      23.432   5.378  48.596  1.00  0.00    -0.006 C 
HETATM   19  C12 UNL     1      22.768   6.459  47.758  1.00  0.00     0.011 C 
HETATM   20  C13 UNL     1      22.891   5.402  50.005  1.00  0.00     0.008 C 
HETATM   21  C14 UNL     1      24.118   5.694  50.883  1.00  0.00     0.043 C 
ENDBRANCH  13  15
ENDBRANCH  12  13
ENDBRANCH   4  12
BRANCH   1  22
HETATM   22  O1  UNL     1      19.755   0.334  52.961  1.00  0.00    -0.360 OA
HETATM   23  C1  UNL     1      18.833   0.009  51.952  1.00  0.00     0.209 C 
ENDBRANCH   1  22
BRANCH  10  24
HETATM   24  O2  UNL     1      21.030  -1.743  54.983  1.00  0.00    -0.365 OA
HETATM   25  H23 UNL     1      20.922  -2.746  54.827  1.00  0.00     0.217 HD
ENDBRANCH  10  24
TORSDOF 5
ENDMDL
MODEL 6
REMARK VINA RESULT:      -7.1      3.402      6.928
REMARK  5 active torsions:
REMARK  status: ('A' for Active; 'I' for Inactive)
REMARK    1  A    between atoms: O1_2  and  C2_3 
REMARK    2  A    between atoms: C5_6  and  C6_7 
REMARK    3  A    between atoms: C6_7  and  N1_8 
REMARK    4  A    between atoms: N1_8  and  C8_10 
REMARK    5  A    between atoms: C18_22  and  O2_23 
ROOT
HETATM    1  C2  UNL     1      26.902   1.587  52.751  1.00  0.00     0.049 C 
HETATM    2  C3  UNL     1      26.779   2.414  51.693  1.00  0.00     0.017 C 
HETATM    3  C4  UNL     1      25.440   2.880  51.522  1.00  0.00     0.073 C 
HETATM    4  C5  UNL     1      24.363   3.482  51.094  1.00  0.00     0.045 C 
HETATM    5  N2  UNL     1      23.695   2.645  51.985  1.00  0.00    -0.270 N 
HETATM    6  C15 UNL     1      22.570   2.655  52.527  1.00  0.00     0.199 A 
HETATM    7  N3  UNL     1      23.370   1.582  52.858  1.00  0.00    -0.159 NA
HETATM    8  C16 UNL     1      23.016   0.364  52.860  1.00  0.00     0.092 C 
HETATM    9  C17 UNL     1      24.210  -0.388  53.275  1.00  0.00     0.046 C 
HETATM   10  C18 UNL     1      25.480  -0.260  53.660  1.00  0.00     0.050 C 
HETATM   11  C19 UNL     1      25.937   1.124  53.737  1.00  0.00     0.128 C 
ENDROOT
BRANCH   4  12
HETATM   12  C6  UNL     1      23.346   4.268  50.419  1.00  0.00     0.327 C 
BRANCH  12  13
HETATM   13  N1  UNL     1      23.264   5.669  50.797  1.00  0.00     0.100 N 
HETATM   14  C7  UNL     1      21.898   5.919  51.234  1.00  0.00     0.311 C 
BRANCH  13  15
HETATM   15  C8  UNL     1      23.689   6.530  49.720  1.00  0.00     0.173 A 
HETATM   16  C9  UNL     1      23.037   7.846  49.641  1.00  0.00     0.045 A 
HETATM   17  C10 UNL     1      24.325   7.861  49.982  1.00  0.00     0.017 A 
HETATM   18  C11 UNL     1      25.715   7.466  50.321  1.00  0.00    -0.006 C 
HETATM   19  C12 UNL     1      26.708   8.563  49.971  1.00  0.00     0.011 C 
HETATM   20  C13 UNL     1      25.977   6.237  49.485  1.00  0.00     0.008 C 
HETATM   21  C14 UNL     1      24.678   6.031  48.689  1.00  0.00     0.043 C 
ENDBRANCH  13  15
ENDBRANCH  12  13
ENDBRANCH   4  12
BRANCH   1  22
HETATM   22  O1  UNL     1      28.199   1.125  52.903  1.00  0.00    -0.360 OA
HETATM   23  C1  UNL     1      28.953   1.271  54.080  1.00  0.00     0.209 C 
ENDBRANCH   1  22
BRANCH  10  24
HETATM   24  O2  UNL     1      26.423  -1.255  54.003  1.00  0.00    -0.365 OA
HETATM   25  H23 UNL     1      26.199  -1.727  54.881  1.00  0.00     0.217 HD
ENDBRANCH  10  24
TORSDOF 5
ENDMDL
MODEL 7
REMARK VINA RESULT:      -7.0      2.581      6.326
REMARK  5 active torsions:
REMARK  status: ('A' for Active; 'I' for Inactive)
REMARK    1  A    between atoms: O1_2  and  C2_3 
REMARK    2  A    between atoms: C5_6  and  C6_7 
REMARK    3  A    between atoms: C6_7  and  N1_8 
REMARK    4  A    between atoms: N1_8  and  C8_10 
REMARK    5  A    between atoms: C18_22  and  O2_23 
ROOT
HETATM    1  C2  UNL     1      23.375  -0.204  53.346  1.00  0.00     0.049 C 
HETATM    2  C3  UNL     1      22.821   0.922  52.853  1.00  0.00     0.017 C 
HETATM    3  C4  UNL     1      23.797   1.820  52.324  1.00  0.00     0.073 C 
HETATM    4  C5  UNL     1      24.401   2.835  51.765  1.00  0.00     0.045 C 
HETATM    5  N2  UNL     1      25.567   2.236  52.236  1.00  0.00    -0.270 N 
HETATM    6  C15 UNL     1      26.781   2.332  51.956  1.00  0.00     0.199 A 
HETATM    7  N3  UNL     1      26.480   1.439  52.963  1.00  0.00    -0.159 NA
HETATM    8  C16 UNL     1      27.065   1.360  54.085  1.00  0.00     0.092 C 
HETATM    9  C17 UNL     1      26.388   0.268  54.802  1.00  0.00     0.046 C 
HETATM   10  C18 UNL     1      25.431  -0.655  54.696  1.00  0.00     0.050 C 
HETATM   11  C19 UNL     1      24.755  -0.660  53.403  1.00  0.00     0.128 C 
ENDROOT
BRANCH   4  12
HETATM   12  C6  UNL     1      24.801   4.067  51.110  1.00  0.00     0.327 C 
BRANCH  12  13
HETATM   13  N1  UNL     1      24.641   4.106  49.666  1.00  0.00     0.100 N 
HETATM   14  C7  UNL     1      25.866   4.661  49.111  1.00  0.00     0.311 C 
BRANCH  13  15
HETATM   15  C8  UNL     1      23.455   4.836  49.287  1.00  0.00     0.173 A 
HETATM   16  C9  UNL     1      23.627   5.865  48.252  1.00  0.00     0.045 A 
HETATM   17  C10 UNL     1      22.921   4.796  47.888  1.00  0.00     0.017 A 
HETATM   18  C11 UNL     1      22.217   3.489  47.874  1.00  0.00    -0.006 C 
HETATM   19  C12 UNL     1      21.061   3.489  46.886  1.00  0.00     0.011 C 
HETATM   20  C13 UNL     1      21.701   3.319  49.283  1.00  0.00     0.008 C 
HETATM   21  C14 UNL     1      22.148   4.597  50.011  1.00  0.00     0.043 C 
ENDBRANCH  13  15
ENDBRANCH  12  13
ENDBRANCH   4  12
BRANCH   1  22
HETATM   22  O1  UNL     1      22.426  -1.064  53.873  1.00  0.00    -0.360 OA
HETATM   23  C1  UNL     1      21.556  -0.727  54.923  1.00  0.00     0.209 C 
ENDBRANCH   1  22
BRANCH  10  24
HETATM   24  O2  UNL     1      24.995  -1.613  55.640  1.00  0.00    -0.365 OA
HETATM   25  H23 UNL     1      25.494  -2.501  55.562  1.00  0.00     0.217 HD
ENDBRANCH  10  24
TORSDOF 5
ENDMDL
MODEL 8
REMARK VINA RESULT:      -7.0      2.897      5.710
REMARK  5 active torsions:
REMARK  status: ('A' for Active; 'I' for Inactive)
REMARK    1  A    between atoms: O1_2  and  C2_3 
REMARK    2  A    between atoms: C5_6  and  C6_7 
REMARK    3  A    between atoms: C6_7  and  N1_8 
REMARK    4  A    between atoms: N1_8  and  C8_10 
REMARK    5  A    between atoms: C18_22  and  O2_23 
ROOT
HETATM    1  C2  UNL     1      23.363   0.056  53.795  1.00  0.00     0.049 C 
HETATM    2  C3  UNL     1      23.807   0.770  52.741  1.00  0.00     0.017 C 
HETATM    3  C4  UNL     1      22.796   1.619  52.196  1.00  0.00     0.073 C 
HETATM    4  C5  UNL     1      22.136   2.487  51.479  1.00  0.00     0.045 C 
HETATM    5  N2  UNL     1      21.017   1.999  52.148  1.00  0.00    -0.270 N 
HETATM    6  C15 UNL     1      19.858   2.419  52.349  1.00  0.00     0.199 A 
HETATM    7  N3  UNL     1      20.137   1.185  52.898  1.00  0.00    -0.159 NA
HETATM    8  C16 UNL     1      19.410   0.150  52.806  1.00  0.00     0.092 C 
HETATM    9  C17 UNL     1      20.130  -0.899  53.545  1.00  0.00     0.046 C 
HETATM   10  C18 UNL     1      21.220  -1.143  54.273  1.00  0.00     0.050 C 
HETATM   11  C19 UNL     1      22.074   0.023  54.470  1.00  0.00     0.128 C 
ENDROOT
BRANCH   4  12
HETATM   12  C6  UNL     1      21.657   3.485  50.540  1.00  0.00     0.327 C 
BRANCH  12  13
HETATM   13  N1  UNL     1      22.508   4.647  50.350  1.00  0.00     0.100 N 
HETATM   14  C7  UNL     1      21.661   5.826  50.457  1.00  0.00     0.311 C 
BRANCH  13  15
HETATM   15  C8  UNL     1      23.233   4.572  49.104  1.00  0.00     0.173 A 
HETATM   16  C9  UNL     1      23.265   5.798  48.294  1.00  0.00     0.045 A 
HETATM   17  C10 UNL     1      24.427   5.436  48.836  1.00  0.00     0.017 A 
HETATM   18  C11 UNL     1      25.488   4.720  49.587  1.00  0.00    -0.006 C 
HETATM   19  C12 UNL     1      26.859   4.948  48.969  1.00  0.00     0.011 C 
HETATM   20  C13 UNL     1      25.106   3.263  49.491  1.00  0.00     0.008 C 
HETATM   21  C14 UNL     1      23.824   3.257  48.644  1.00  0.00     0.043 C 
ENDBRANCH  13  15
ENDBRANCH  12  13
ENDBRANCH   4  12
BRANCH   1  22
HETATM   22  O1  UNL     1      24.342  -0.778  54.310  1.00  0.00    -0.360 OA
HETATM   23  C1  UNL     1      25.667  -0.378  54.552  1.00  0.00     0.209 C 
ENDBRANCH   1  22
BRANCH  10  24
HETATM   24  O2  UNL     1      21.651  -2.349  54.874  1.00  0.00    -0.365 OA
HETATM   25  H23 UNL     1      21.742  -3.114  54.204  1.00  0.00     0.217 HD
ENDBRANCH  10  24
TORSDOF 5
ENDMDL
MODEL 9
REMARK VINA RESULT:      -7.0      3.381      7.506
REMARK  5 active torsions:
REMARK  status: ('A' for Active; 'I' for Inactive)
REMARK    1  A    between atoms: O1_2  and  C2_3 
REMARK    2  A    between atoms: C5_6  and  C6_7 
REMARK    3  A    between atoms: C6_7  and  N1_8 
REMARK    4  A    between atoms: N1_8  and  C8_10 
REMARK    5  A    between atoms: C18_22  and  O2_23 
ROOT
HETATM    1  C2  UNL     1      26.928   1.819  52.699  1.00  0.00     0.049 C 
HETATM    2  C3  UNL     1      26.422   2.199  51.509  1.00  0.00     0.017 C 
HETATM    3  C4  UNL     1      24.998   2.099  51.467  1.00  0.00     0.073 C 
HETATM    4  C5  UNL     1      23.745   2.136  51.102  1.00  0.00     0.045 C 
HETATM    5  N2  UNL     1      23.514   1.423  52.275  1.00  0.00    -0.270 N 
HETATM    6  C15 UNL     1      22.513   1.202  52.989  1.00  0.00     0.199 A 
HETATM    7  N3  UNL     1      23.684   0.621  53.427  1.00  0.00    -0.159 NA
HETATM    8  C16 UNL     1      23.824  -0.585  53.793  1.00  0.00     0.092 C 
HETATM    9  C17 UNL     1      25.241  -0.718  54.163  1.00  0.00     0.046 C 
HETATM   10  C18 UNL     1      26.390  -0.050  54.273  1.00  0.00     0.050 C 
HETATM   11  C19 UNL     1      26.287   1.363  53.923  1.00  0.00     0.128 C 
ENDROOT
BRANCH   4  12
HETATM   12  C6  UNL     1      22.459   2.284  50.444  1.00  0.00     0.327 C 
BRANCH  12  13
HETATM   13  N1  UNL     1      22.126   3.620  49.982  1.00  0.00     0.100 N 
HETATM   14  C7  UNL     1      21.709   4.388  51.146  1.00  0.00     0.311 C 
BRANCH  13  15
HETATM   15  C8  UNL     1      21.136   3.583  48.933  1.00  0.00     0.173 A 
HETATM   16  C9  UNL     1      20.197   4.714  48.883  1.00  0.00     0.045 A 
HETATM   17  C10 UNL     1      21.069   4.645  47.877  1.00  0.00     0.017 A 
HETATM   18  C11 UNL     1      22.165   4.229  46.966  1.00  0.00    -0.006 C 
HETATM   19  C12 UNL     1      21.900   4.675  45.537  1.00  0.00     0.011 C 
HETATM   20  C13 UNL     1      22.179   2.722  47.050  1.00  0.00     0.008 C 
HETATM   21  C14 UNL     1      21.036   2.380  48.020  1.00  0.00     0.043 C 
ENDBRANCH  13  15
ENDBRANCH  12  13
ENDBRANCH   4  12
BRANCH   1  22
HETATM   22  O1  UNL     1      28.310   1.902  52.729  1.00  0.00    -0.360 OA
HETATM   23  C1  UNL     1      29.041   2.472  53.784  1.00  0.00     0.209 C 
ENDBRANCH   1  22
BRANCH  10  24
HETATM   24  O2  UNL     1      27.664  -0.508  54.679  1.00  0.00    -0.365 OA
HETATM   25  H23 UNL     1      28.223  -0.866  53.903  1.00  0.00     0.217 HD
ENDBRANCH  10  24
TORSDOF 5
ENDMDL
