MODEL 1
REMARK VINA RESULT:      -8.5      0.000      0.000
REMARK  1 active torsions:
REMARK  status: ('A' for Active; 'I' for Inactive)
REMARK    1  A    between atoms: N4_13  and  C10_14 
ROOT
HETATM    1  C1  UNL     1      16.964  -0.594  52.429  1.00  0.00     0.018 C 
HETATM    2  C2  UNL     1      18.426  -0.371  52.125  1.00  0.00     0.029 C 
HETATM    3  C3  UNL     1      18.719   1.080  51.969  1.00  0.00    -0.020 C 
HETATM    4  C4  UNL     1      20.020   1.384  51.894  1.00  0.00     0.001 C 
HETATM    5  C5  UNL     1      20.933   0.188  51.983  1.00  0.00     0.161 A 
HETATM    6  N1  UNL     1      22.297   0.519  51.817  1.00  0.00    -0.383 N 
HETATM    7  C6  UNL     1      23.472   0.302  52.587  1.00  0.00     0.120 A 
HETATM    8  C7  UNL     1      23.584  -0.325  53.736  1.00  0.00     0.121 A 
HETATM    9  C8  UNL     1      22.577  -0.962  54.533  1.00  0.00     0.201 A 
HETATM   10  N2  UNL     1      22.910  -1.538  55.636  1.00  0.00    -0.214 NA
HETATM   11  C9  UNL     1      24.285  -1.518  56.023  1.00  0.00     0.258 A 
HETATM   12  N3  UNL     1      25.220  -0.954  55.334  1.00  0.00    -0.164 NA
HETATM   13  N4  UNL     1      24.957  -0.292  54.104  1.00  0.00    -0.254 N 
HETATM   14  O1  UNL     1      21.222  -1.062  54.289  1.00  0.00    -0.292 OA
HETATM   15  C14 UNL     1      20.549  -0.560  53.175  1.00  0.00     0.079 A 
HETATM   16  C15 UNL     1      19.256  -0.856  53.261  1.00  0.00     0.017 C 
HETATM   17  H8  UNL     1      22.398   1.035  50.911  1.00  0.00     0.160 HD
ENDROOT
BRANCH  13  18
HETATM   18  C10 UNL     1      26.067   0.341  53.401  1.00  0.00     0.139 A 
HETATM   19  C11 UNL     1      27.236   0.705  54.175  1.00  0.00     0.015 A 
HETATM   20  C12 UNL     1      28.002  -0.167  53.601  1.00  0.00    -0.011 A 
HETATM   21 BR1  UNL     1      29.792  -0.871  53.559  1.00  0.00    -0.056 Br
HETATM   22  C13 UNL     1      26.939  -0.663  52.738  1.00  0.00     0.077 A 
ENDBRANCH  13  18
TORSDOF 1
ENDMDL
MODEL 2
REMARK VINA RESULT:      -7.8      3.461      6.919
REMARK  1 active torsions:
REMARK  status: ('A' for Active; 'I' for Inactive)
REMARK    1  A    between atoms: N4_13  and  C10_14 
ROOT
HETATM    1  C1  UNL     1      28.646   0.069  54.835  1.00  0.00     0.018 C 
HETATM    2  C2  UNL     1      27.424   0.562  54.100  1.00  0.00     0.029 C 
HETATM    3  C3  UNL     1      27.529   0.271  52.644  1.00  0.00    -0.020 C 
HETATM    4  C4  UNL     1      26.409   0.494  51.946  1.00  0.00     0.001 C 
HETATM    5  C5  UNL     1      25.260   1.000  52.780  1.00  0.00     0.161 A 
HETATM    6  N1  UNL     1      24.113   1.311  52.014  1.00  0.00    -0.383 N 
HETATM    7  C6  UNL     1      22.751   0.909  52.059  1.00  0.00     0.120 A 
HETATM    8  C7  UNL     1      22.175   0.088  52.908  1.00  0.00     0.121 A 
HETATM    9  C8  UNL     1      22.738  -0.627  54.015  1.00  0.00     0.201 A 
HETATM   10  N2  UNL     1      21.981  -1.378  54.737  1.00  0.00    -0.214 NA
HETATM   11  C9  UNL     1      20.596  -1.469  54.400  1.00  0.00     0.258 A 
HETATM   12  N3  UNL     1      20.052  -0.842  53.411  1.00  0.00    -0.164 NA
HETATM   13  N4  UNL     1      20.800   0.011  52.556  1.00  0.00    -0.254 N 
HETATM   14  O1  UNL     1      24.046  -0.637  54.457  1.00  0.00    -0.292 OA
HETATM   15  C14 UNL     1      25.106   0.082  53.904  1.00  0.00     0.079 A 
HETATM   16  C15 UNL     1      26.216  -0.152  54.595  1.00  0.00     0.017 C 
HETATM   17  H8  UNL     1      24.397   1.988  51.266  1.00  0.00     0.160 HD
ENDROOT
BRANCH  13  18
HETATM   18  C10 UNL     1      20.112   0.663  51.446  1.00  0.00     0.139 A 
HETATM   19  C11 UNL     1      18.838   0.116  51.028  1.00  0.00     0.015 A 
HETATM   20  C12 UNL     1      18.161   1.148  51.420  1.00  0.00    -0.011 A 
HETATM   21 BR1  UNL     1      16.390   1.889  51.536  1.00  0.00    -0.056 Br
HETATM   22  C13 UNL     1      19.343   1.851  51.899  1.00  0.00     0.077 A 
ENDBRANCH  13  18
TORSDOF 1
ENDMDL
MODEL 3
REMARK VINA RESULT:      -7.6      3.433      7.462
REMARK  1 active torsions:
REMARK  status: ('A' for Active; 'I' for Inactive)
REMARK    1  A    between atoms: N4_13  and  C10_14 
ROOT
HETATM    1  C1  UNL     1      29.776  -0.137  53.552  1.00  0.00     0.018 C 
HETATM    2  C2  UNL     1      28.276  -0.306  53.591  1.00  0.00     0.029 C 
HETATM    3  C3  UNL     1      27.739   0.056  54.931  1.00  0.00    -0.020 C 
HETATM    4  C4  UNL     1      26.403   0.127  54.998  1.00  0.00     0.001 C 
HETATM    5  C5  UNL     1      25.709  -0.179  53.696  1.00  0.00     0.161 A 
HETATM    6  N1  UNL     1      24.300  -0.184  53.806  1.00  0.00    -0.383 N 
HETATM    7  C6  UNL     1      23.250   0.495  53.132  1.00  0.00     0.120 A 
HETATM    8  C7  UNL     1      23.343   1.359  52.147  1.00  0.00     0.121 A 
HETATM    9  C8  UNL     1      24.507   1.859  51.475  1.00  0.00     0.201 A 
HETATM   10  N2  UNL     1      24.371   2.702  50.512  1.00  0.00    -0.214 NA
HETATM   11  C9  UNL     1      23.051   3.110  50.148  1.00  0.00     0.258 A 
HETATM   12  N3  UNL     1      21.979   2.684  50.729  1.00  0.00    -0.164 NA
HETATM   13  N4  UNL     1      22.022   1.752  51.801  1.00  0.00    -0.254 N 
HETATM   14  O1  UNL     1      25.833   1.559  51.714  1.00  0.00    -0.292 OA
HETATM   15  C14 UNL     1      26.314   0.670  52.675  1.00  0.00     0.079 A 
HETATM   16  C15 UNL     1      27.641   0.613  52.610  1.00  0.00     0.017 C 
HETATM   17  H8  UNL     1      24.037  -0.853  54.569  1.00  0.00     0.160 HD
ENDROOT
BRANCH  13  18
HETATM   18  C10 UNL     1      20.765   1.341  52.418  1.00  0.00     0.139 A 
HETATM   19  C11 UNL     1      19.558   2.034  52.017  1.00  0.00     0.015 A 
HETATM   20  C12 UNL     1      19.049   1.000  51.428  1.00  0.00    -0.011 A 
HETATM   21 BR1  UNL     1      17.520   0.370  50.445  1.00  0.00    -0.056 Br
HETATM   22  C13 UNL     1      20.187   0.149  51.744  1.00  0.00     0.077 A 
ENDBRANCH  13  18
TORSDOF 1
ENDMDL
MODEL 4
REMARK VINA RESULT:      -7.4      2.180      3.477
REMARK  1 active torsions:
REMARK  status: ('A' for Active; 'I' for Inactive)
REMARK    1  A    between atoms: N4_13  and  C10_14 
ROOT
HETATM    1  C1  UNL     1      18.083   3.552  51.184  1.00  0.00     0.018 C 
HETATM    2  C2  UNL     1      19.166   2.775  51.892  1.00  0.00     0.029 C 
HETATM    3  C3  UNL     1      19.003   1.313  51.663  1.00  0.00    -0.020 C 
HETATM    4  C4  UNL     1      20.027   0.562  52.087  1.00  0.00     0.001 C 
HETATM    5  C5  UNL     1      21.145   1.353  52.717  1.00  0.00     0.161 A 
HETATM    6  N1  UNL     1      22.177   0.538  53.234  1.00  0.00    -0.383 N 
HETATM    7  C6  UNL     1      23.584   0.475  53.039  1.00  0.00     0.120 A 
HETATM    8  C7  UNL     1      24.332   1.235  52.272  1.00  0.00     0.121 A 
HETATM    9  C8  UNL     1      23.958   2.329  51.425  1.00  0.00     0.201 A 
HETATM   10  N2  UNL     1      24.865   2.956  50.759  1.00  0.00    -0.214 NA
HETATM   11  C9  UNL     1      26.222   2.529  50.895  1.00  0.00     0.258 A 
HETATM   12  N3  UNL     1      26.598   1.549  51.646  1.00  0.00    -0.164 NA
HETATM   13  N4  UNL     1      25.675   0.795  52.420  1.00  0.00    -0.254 N 
HETATM   14  O1  UNL     1      22.699   2.849  51.196  1.00  0.00    -0.292 OA
HETATM   15  C14 UNL     1      21.510   2.407  51.776  1.00  0.00     0.079 A 
HETATM   16  C15 UNL     1      20.497   3.150  51.342  1.00  0.00     0.017 C 
HETATM   17  H8  UNL     1      21.746  -0.148  53.899  1.00  0.00     0.160 HD
ENDROOT
BRANCH  13  18
HETATM   18  C10 UNL     1      26.181  -0.313  53.224  1.00  0.00     0.139 A 
HETATM   19  C11 UNL     1      27.084  -1.250  52.588  1.00  0.00     0.015 A 
HETATM   20  C12 UNL     1      28.102  -0.899  53.306  1.00  0.00    -0.011 A 
HETATM   21 BR1  UNL     1      29.970  -1.237  53.620  1.00  0.00    -0.056 Br
HETATM   22  C13 UNL     1      27.345   0.096  54.051  1.00  0.00     0.077 A 
ENDBRANCH  13  18
TORSDOF 1
ENDMDL
MODEL 5
REMARK VINA RESULT:      -7.4      3.704      7.190
REMARK  1 active torsions:
REMARK  status: ('A' for Active; 'I' for Inactive)
REMARK    1  A    between atoms: N4_13  and  C10_14 
ROOT
HETATM    1  C1  UNL     1      29.353  -0.768  54.221  1.00  0.00     0.018 C 
HETATM    2  C2  UNL     1      28.286   0.299  54.159  1.00  0.00     0.029 C 
HETATM    3  C3  UNL     1      28.622   1.323  53.133  1.00  0.00    -0.020 C 
HETATM    4  C4  UNL     1      27.642   2.196  52.871  1.00  0.00     0.001 C 
HETATM    5  C5  UNL     1      26.388   1.965  53.675  1.00  0.00     0.161 A 
HETATM    6  N1  UNL     1      25.396   2.946  53.447  1.00  0.00    -0.383 N 
HETATM    7  C6  UNL     1      24.032   2.904  53.049  1.00  0.00     0.120 A 
HETATM    8  C7  UNL     1      23.296   1.849  52.785  1.00  0.00     0.121 A 
HETATM    9  C8  UNL     1      23.643   0.459  52.820  1.00  0.00     0.201 A 
HETATM   10  N2  UNL     1      22.752  -0.426  52.534  1.00  0.00    -0.214 NA
HETATM   11  C9  UNL     1      21.440   0.020  52.187  1.00  0.00     0.258 A 
HETATM   12  N3  UNL     1      21.089   1.262  52.143  1.00  0.00    -0.164 NA
HETATM   13  N4  UNL     1      21.997   2.314  52.443  1.00  0.00    -0.254 N 
HETATM   14  O1  UNL     1      24.859  -0.117  53.133  1.00  0.00    -0.292 OA
HETATM   15  C14 UNL     1      26.018   0.564  53.504  1.00  0.00     0.079 A 
HETATM   16  C15 UNL     1      26.990  -0.308  53.752  1.00  0.00     0.017 C 
HETATM   17  H8  UNL     1      25.822   3.886  53.628  1.00  0.00     0.160 HD
ENDROOT
BRANCH  13  18
HETATM   18  C10 UNL     1      21.525   3.691  52.344  1.00  0.00     0.139 A 
HETATM   19  C11 UNL     1      21.768   4.400  51.105  1.00  0.00     0.015 A 
HETATM   20  C12 UNL     1      20.515   4.458  50.785  1.00  0.00    -0.011 A 
HETATM   21 BR1  UNL     1      19.283   5.082  49.446  1.00  0.00    -0.056 Br
HETATM   22  C13 UNL     1      20.085   3.752  51.984  1.00  0.00     0.077 A 
ENDBRANCH  13  18
TORSDOF 1
ENDMDL
MODEL 6
REMARK VINA RESULT:      -7.3      6.367      8.504
REMARK  1 active torsions:
REMARK  status: ('A' for Active; 'I' for Inactive)
REMARK    1  A    between atoms: N4_13  and  C10_14 
ROOT
HETATM    1  C1  UNL     1      28.243   8.722  47.088  1.00  0.00     0.018 C 
HETATM    2  C2  UNL     1      27.808   7.335  47.495  1.00  0.00     0.029 C 
HETATM    3  C3  UNL     1      28.936   6.586  48.113  1.00  0.00    -0.020 C 
HETATM    4  C4  UNL     1      28.593   5.424  48.681  1.00  0.00     0.001 C 
HETATM    5  C5  UNL     1      27.123   5.104  48.579  1.00  0.00     0.161 A 
HETATM    6  N1  UNL     1      26.794   3.836  49.109  1.00  0.00    -0.383 N 
HETATM    7  C6  UNL     1      25.873   3.379  50.089  1.00  0.00     0.120 A 
HETATM    8  C7  UNL     1      25.020   4.087  50.794  1.00  0.00     0.121 A 
HETATM    9  C8  UNL     1      24.773   5.499  50.781  1.00  0.00     0.201 A 
HETATM   10  N2  UNL     1      23.869   5.993  51.555  1.00  0.00    -0.214 NA
HETATM   11  C9  UNL     1      23.143   5.103  52.404  1.00  0.00     0.258 A 
HETATM   12  N3  UNL     1      23.337   3.827  52.445  1.00  0.00    -0.164 NA
HETATM   13  N4  UNL     1      24.309   3.185  51.632  1.00  0.00    -0.254 N 
HETATM   14  O1  UNL     1      25.389   6.474  50.022  1.00  0.00    -0.292 OA
HETATM   15  C14 UNL     1      26.394   6.266  49.077  1.00  0.00     0.079 A 
HETATM   16  C15 UNL     1      26.738   7.425  48.525  1.00  0.00     0.017 C 
HETATM   17  H8  UNL     1      27.395   3.121  48.634  1.00  0.00     0.160 HD
ENDROOT
BRANCH  13  18
HETATM   18  C10 UNL     1      24.482   1.742  51.759  1.00  0.00     0.139 A 
HETATM   19  C11 UNL     1      24.653   1.198  53.089  1.00  0.00     0.015 A 
HETATM   20  C12 UNL     1      23.518   0.575  53.081  1.00  0.00    -0.011 A 
HETATM   21 BR1  UNL     1      22.364  -0.561  54.120  1.00  0.00    -0.056 Br
HETATM   22  C13 UNL     1      23.177   1.031  51.741  1.00  0.00     0.077 A 
ENDBRANCH  13  18
TORSDOF 1
ENDMDL
MODEL 7
REMARK VINA RESULT:      -7.2      4.859      7.979
REMARK  1 active torsions:
REMARK  status: ('A' for Active; 'I' for Inactive)
REMARK    1  A    between atoms: N4_13  and  C10_14 
ROOT
HETATM    1  C1  UNL     1      29.435  -1.010  53.695  1.00  0.00     0.018 C 
HETATM    2  C2  UNL     1      28.032  -0.487  53.502  1.00  0.00     0.029 C 
HETATM    3  C3  UNL     1      27.519   0.126  54.758  1.00  0.00    -0.020 C 
HETATM    4  C4  UNL     1      26.364   0.790  54.627  1.00  0.00     0.001 C 
HETATM    5  C5  UNL     1      25.811   0.783  53.225  1.00  0.00     0.161 A 
HETATM    6  N1  UNL     1      24.552   1.415  53.122  1.00  0.00    -0.383 N 
HETATM    7  C6  UNL     1      24.032   2.469  52.323  1.00  0.00     0.120 A 
HETATM    8  C7  UNL     1      24.650   3.163  51.395  1.00  0.00     0.121 A 
HETATM    9  C8  UNL     1      26.000   3.064  50.925  1.00  0.00     0.201 A 
HETATM   10  N2  UNL     1      26.404   3.845  49.983  1.00  0.00    -0.214 NA
HETATM   11  C9  UNL     1      25.479   4.788  49.441  1.00  0.00     0.258 A 
HETATM   12  N3  UNL     1      24.256   4.909  49.838  1.00  0.00    -0.164 NA
HETATM   13  N4  UNL     1      23.714   4.095  50.870  1.00  0.00    -0.254 N 
HETATM   14  O1  UNL     1      26.999   2.209  51.348  1.00  0.00    -0.292 OA
HETATM   15  C14 UNL     1      26.879   1.234  52.338  1.00  0.00     0.079 A 
HETATM   16  C15 UNL     1      28.032   0.585  52.471  1.00  0.00     0.017 C 
HETATM   17  H8  UNL     1      23.905   0.962  53.812  1.00  0.00     0.160 HD
ENDROOT
BRANCH  13  18
HETATM   18  C10 UNL     1      22.330   4.314  51.275  1.00  0.00     0.139 A 
HETATM   19  C11 UNL     1      21.877   5.682  51.420  1.00  0.00     0.015 A 
HETATM   20  C12 UNL     1      21.065   5.617  50.414  1.00  0.00    -0.011 A 
HETATM   21 BR1  UNL     1      19.786   6.621  49.385  1.00  0.00    -0.056 Br
HETATM   22  C13 UNL     1      21.400   4.232  50.119  1.00  0.00     0.077 A 
ENDBRANCH  13  18
TORSDOF 1
ENDMDL
MODEL 8
REMARK VINA RESULT:      -7.2      2.819      3.750
REMARK  1 active torsions:
REMARK  status: ('A' for Active; 'I' for Inactive)
REMARK    1  A    between atoms: N4_13  and  C10_14 
ROOT
HETATM    1  C1  UNL     1      19.636   5.268  49.598  1.00  0.00     0.018 C 
HETATM    2  C2  UNL     1      21.025   4.909  50.066  1.00  0.00     0.029 C 
HETATM    3  C3  UNL     1      21.505   5.876  51.091  1.00  0.00    -0.020 C 
HETATM    4  C4  UNL     1      22.642   5.524  51.704  1.00  0.00     0.001 C 
HETATM    5  C5  UNL     1      23.212   4.212  51.228  1.00  0.00     0.161 A 
HETATM    6  N1  UNL     1      24.455   3.899  51.824  1.00  0.00    -0.383 N 
HETATM    7  C6  UNL     1      24.954   2.786  52.552  1.00  0.00     0.120 A 
HETATM    8  C7  UNL     1      24.328   1.673  52.863  1.00  0.00     0.121 A 
HETATM    9  C8  UNL     1      22.987   1.264  52.565  1.00  0.00     0.201 A 
HETATM   10  N2  UNL     1      22.573   0.110  52.958  1.00  0.00    -0.214 NA
HETATM   11  C9  UNL     1      23.478  -0.725  53.684  1.00  0.00     0.258 A 
HETATM   12  N3  UNL     1      24.691  -0.392  53.972  1.00  0.00    -0.164 NA
HETATM   13  N4  UNL     1      25.243   0.859  53.584  1.00  0.00    -0.254 N 
HETATM   14  O1  UNL     1      22.008   1.956  51.880  1.00  0.00    -0.292 OA
HETATM   15  C14 UNL     1      22.143   3.222  51.311  1.00  0.00     0.079 A 
HETATM   16  C15 UNL     1      21.008   3.569  50.714  1.00  0.00     0.017 C 
HETATM   17  H8  UNL     1      25.105   4.704  51.659  1.00  0.00     0.160 HD
ENDROOT
BRANCH  13  18
HETATM   18  C10 UNL     1      26.616   1.166  53.972  1.00  0.00     0.139 A 
HETATM   19  C11 UNL     1      27.307   0.214  54.816  1.00  0.00     0.015 A 
HETATM   20  C12 UNL     1      28.155  -0.125  53.898  1.00  0.00    -0.011 A 
HETATM   21 BR1  UNL     1      29.662  -1.259  53.520  1.00  0.00    -0.056 Br
HETATM   22  C13 UNL     1      27.584   0.782  52.912  1.00  0.00     0.077 A 
ENDBRANCH  13  18
TORSDOF 1
ENDMDL
MODEL 9
REMARK VINA RESULT:      -6.8      9.473     10.753
REMARK  1 active torsions:
REMARK  status: ('A' for Active; 'I' for Inactive)
REMARK    1  A    between atoms: N4_13  and  C10_14 
ROOT
HETATM    1  C1  UNL     1      24.091   2.837  50.308  1.00  0.00     0.018 C 
HETATM    2  C2  UNL     1      24.654   4.070  49.643  1.00  0.00     0.029 C 
HETATM    3  C3  UNL     1      24.551   5.250  50.544  1.00  0.00    -0.020 C 
HETATM    4  C4  UNL     1      25.202   6.339  50.117  1.00  0.00     0.001 C 
HETATM    5  C5  UNL     1      25.910   6.150  48.800  1.00  0.00     0.161 A 
HETATM    6  N1  UNL     1      26.520   7.333  48.324  1.00  0.00    -0.383 N 
HETATM    7  C6  UNL     1      27.838   7.677  47.921  1.00  0.00     0.120 A 
HETATM    8  C7  UNL     1      28.901   6.906  47.878  1.00  0.00     0.121 A 
HETATM    9  C8  UNL     1      29.040   5.520  48.217  1.00  0.00     0.201 A 
HETATM   10  N2  UNL     1      30.185   4.946  48.087  1.00  0.00    -0.214 NA
HETATM   11  C9  UNL     1      31.283   5.724  47.605  1.00  0.00     0.258 A 
HETATM   12  N3  UNL     1      31.198   6.973  47.290  1.00  0.00    -0.164 NA
HETATM   13  N4  UNL     1      29.979   7.697  47.398  1.00  0.00    -0.254 N 
HETATM   14  O1  UNL     1      28.078   4.649  48.690  1.00  0.00    -0.292 OA
HETATM   15  C14 UNL     1      26.738   4.954  48.923  1.00  0.00     0.079 A 
HETATM   16  C15 UNL     1      26.100   3.871  49.357  1.00  0.00     0.017 C 
HETATM   17  H8  UNL     1      25.787   8.081  48.283  1.00  0.00     0.160 HD
ENDROOT
BRANCH  13  18
HETATM   18  C10 UNL     1      29.976   9.113  47.045  1.00  0.00     0.139 A 
HETATM   19  C11 UNL     1      30.629  10.035  47.951  1.00  0.00     0.015 A 
HETATM   20  C12 UNL     1      31.577  10.326  47.119  1.00  0.00    -0.011 A 
HETATM   21 BR1  UNL     1      33.168  11.383  46.888  1.00  0.00    -0.056 Br
HETATM   22  C13 UNL     1      31.062   9.441  46.085  1.00  0.00     0.077 A 
ENDBRANCH  13  18
TORSDOF 1
ENDMDL
