MODEL 1
REMARK VINA RESULT:      -8.5      0.000      0.000
REMARK  4 active torsions:
REMARK  status: ('A' for Active; 'I' for Inactive)
REMARK    1  A    between atoms: C2_2  and  O1_3 
REMARK    2  A    between atoms: O1_3  and  C3_4 
REMARK    3  A    between atoms: C8_10  and  N2_11 
REMARK    4  A    between atoms: N2_11  and  C9_12 
ROOT
HETATM    1  C3  UNL     1      20.300   0.186  52.569  1.00  0.00     0.050 A 
HETATM    2  C4  UNL     1      20.417  -0.447  53.721  1.00  0.00     0.064 A 
HETATM    3  C5  UNL     1      21.800  -0.648  54.108  1.00  0.00     0.068 A 
HETATM    4  N1  UNL     1      21.934  -1.340  55.278  1.00  0.00    -0.260 NA
HETATM    5  C6  UNL     1      23.158  -1.644  55.759  1.00  0.00     0.119 A 
HETATM    6  C7  UNL     1      24.220  -1.218  55.004  1.00  0.00     0.049 A 
HETATM    7  C8  UNL     1      24.097  -0.520  53.823  1.00  0.00     0.043 A 
HETATM    8  C15 UNL     1      22.833  -0.203  53.326  1.00  0.00     0.015 A 
HETATM    9  C16 UNL     1      22.729   0.581  52.072  1.00  0.00     0.136 A 
HETATM   10  C17 UNL     1      23.261   1.954  52.288  1.00  0.00     0.069 C 
HETATM   11  N3  UNL     1      23.666   3.029  52.448  1.00  0.00    -0.197 NA
HETATM   12  C18 UNL     1      21.319   0.708  51.630  1.00  0.00     0.088 A 
ENDROOT
BRANCH   7  13
HETATM   13  N2  UNL     1      25.226  -0.126  53.068  1.00  0.00    -0.356 N 
HETATM   14  H9  UNL     1      25.119   0.389  52.173  1.00  0.00     0.166 HD
BRANCH  13  15
HETATM   15  C9  UNL     1      26.628  -0.260  53.207  1.00  0.00     0.034 A 
HETATM   16  C10 UNL     1      27.392  -1.391  52.889  1.00  0.00     0.032 A 
HETATM   17  C11 UNL     1      28.747  -1.422  53.086  1.00  0.00     0.046 A 
HETATM   18  C12 UNL     1      29.403  -0.333  53.605  1.00  0.00     0.138 A 
HETATM   19  F1  UNL     1      30.744  -0.443  53.768  1.00  0.00    -0.204 F 
HETATM   20  C13 UNL     1      28.682   0.798  53.931  1.00  0.00     0.074 A 
HETATM   21 CL1  UNL     1      29.647   2.106  54.582  1.00  0.00    -0.081 Cl
HETATM   22  C14 UNL     1      27.319   0.801  53.723  1.00  0.00     0.056 A 
ENDBRANCH  13  15
ENDBRANCH   7  13
BRANCH   1  23
HETATM   23  O1  UNL     1      19.003   0.448  52.078  1.00  0.00    -0.356 OA
BRANCH  23  24
HETATM   24  C2  UNL     1      18.064  -0.599  52.203  1.00  0.00     0.170 C 
HETATM   25  C1  UNL     1      16.968  -0.378  51.171  1.00  0.00     0.034 C 
ENDBRANCH  23  24
ENDBRANCH   1  23
TORSDOF 4
ENDMDL
MODEL 2
REMARK VINA RESULT:      -8.4      4.600      8.081
REMARK  4 active torsions:
REMARK  status: ('A' for Active; 'I' for Inactive)
REMARK    1  A    between atoms: C2_2  and  O1_3 
REMARK    2  A    between atoms: O1_3  and  C3_4 
REMARK    3  A    between atoms: C8_10  and  N2_11 
REMARK    4  A    between atoms: N2_11  and  C9_12 
ROOT
HETATM    1  C3  UNL     1      26.305   0.266  54.317  1.00  0.00     0.050 A 
HETATM    2  C4  UNL     1      26.139   1.550  54.060  1.00  0.00     0.064 A 
HETATM    3  C5  UNL     1      24.883   1.826  53.391  1.00  0.00     0.068 A 
HETATM    4  N1  UNL     1      24.719   3.147  53.082  1.00  0.00    -0.260 NA
HETATM    5  C6  UNL     1      23.619   3.566  52.422  1.00  0.00     0.119 A 
HETATM    6  C7  UNL     1      22.709   2.593  52.097  1.00  0.00     0.049 A 
HETATM    7  C8  UNL     1      22.864   1.259  52.403  1.00  0.00     0.043 A 
HETATM    8  C15 UNL     1      23.999   0.824  53.087  1.00  0.00     0.015 A 
HETATM    9  C16 UNL     1      24.123  -0.611  53.436  1.00  0.00     0.136 A 
HETATM   10  C17 UNL     1      23.080  -0.982  54.431  1.00  0.00     0.069 C 
HETATM   11  N3  UNL     1      22.276  -1.279  55.211  1.00  0.00    -0.197 NA
HETATM   12  C18 UNL     1      25.446  -0.907  54.039  1.00  0.00     0.088 A 
ENDROOT
BRANCH   7  13
HETATM   13  N2  UNL     1      21.906   0.290  52.022  1.00  0.00    -0.356 N 
HETATM   14  H9  UNL     1      22.143  -0.721  52.010  1.00  0.00     0.166 HD
BRANCH  13  15
HETATM   15  C9  UNL     1      20.558   0.320  51.593  1.00  0.00     0.034 A 
HETATM   16  C10 UNL     1      20.070   0.912  50.420  1.00  0.00     0.032 A 
HETATM   17  C11 UNL     1      18.735   0.903  50.112  1.00  0.00     0.046 A 
HETATM   18  C12 UNL     1      17.828   0.306  50.952  1.00  0.00     0.138 A 
HETATM   19  F1  UNL     1      16.527   0.338  50.575  1.00  0.00    -0.204 F 
HETATM   20  C13 UNL     1      18.273  -0.287  52.116  1.00  0.00     0.074 A 
HETATM   21 CL1  UNL     1      17.008  -1.008  53.089  1.00  0.00    -0.081 Cl
HETATM   22  C14 UNL     1      19.622  -0.262  52.402  1.00  0.00     0.056 A 
ENDBRANCH  13  15
ENDBRANCH   7  13
BRANCH   1  23
HETATM   23  O1  UNL     1      27.488  -0.138  54.970  1.00  0.00    -0.356 OA
BRANCH  23  24
HETATM   24  C2  UNL     1      28.680   0.497  54.555  1.00  0.00     0.170 C 
HETATM   25  C1  UNL     1      29.526  -0.524  53.810  1.00  0.00     0.034 C 
ENDBRANCH  23  24
ENDBRANCH   1  23
TORSDOF 4
ENDMDL
MODEL 3
REMARK VINA RESULT:      -8.2      4.833      7.402
REMARK  4 active torsions:
REMARK  status: ('A' for Active; 'I' for Inactive)
REMARK    1  A    between atoms: C2_2  and  O1_3 
REMARK    2  A    between atoms: O1_3  and  C3_4 
REMARK    3  A    between atoms: C8_10  and  N2_11 
REMARK    4  A    between atoms: N2_11  and  C9_12 
ROOT
HETATM    1  C3  UNL     1      26.398   5.314  49.290  1.00  0.00     0.050 A 
HETATM    2  C4  UNL     1      25.388   5.962  49.839  1.00  0.00     0.064 A 
HETATM    3  C5  UNL     1      24.525   5.093  50.614  1.00  0.00     0.068 A 
HETATM    4  N1  UNL     1      23.451   5.744  51.152  1.00  0.00    -0.260 NA
HETATM    5  C6  UNL     1      22.529   5.070  51.871  1.00  0.00     0.119 A 
HETATM    6  C7  UNL     1      22.748   3.724  52.013  1.00  0.00     0.049 A 
HETATM    7  C8  UNL     1      23.826   3.057  51.475  1.00  0.00     0.043 A 
HETATM    8  C15 UNL     1      24.781   3.752  50.734  1.00  0.00     0.015 A 
HETATM    9  C16 UNL     1      25.950   3.016  50.197  1.00  0.00     0.136 A 
HETATM   10  C17 UNL     1      26.807   2.541  51.318  1.00  0.00     0.069 C 
HETATM   11  N3  UNL     1      27.485   2.172  52.183  1.00  0.00    -0.197 NA
HETATM   12  C18 UNL     1      26.783   3.885  49.330  1.00  0.00     0.088 A 
ENDROOT
BRANCH   7  13
HETATM   13  N2  UNL     1      23.991   1.661  51.629  1.00  0.00    -0.356 N 
HETATM   14  H9  UNL     1      24.305   1.068  50.836  1.00  0.00     0.166 HD
BRANCH  13  15
HETATM   15  C9  UNL     1      23.820   0.736  52.687  1.00  0.00     0.034 A 
HETATM   16  C10 UNL     1      24.813   0.281  53.564  1.00  0.00     0.032 A 
HETATM   17  C11 UNL     1      24.541  -0.637  54.543  1.00  0.00     0.046 A 
HETATM   18  C12 UNL     1      23.274  -1.144  54.695  1.00  0.00     0.138 A 
HETATM   19  F1  UNL     1      23.087  -2.046  55.688  1.00  0.00    -0.204 F 
HETATM   20  C13 UNL     1      22.270  -0.717  53.848  1.00  0.00     0.074 A 
HETATM   21 CL1  UNL     1      20.708  -1.445  54.157  1.00  0.00    -0.081 Cl
HETATM   22  C14 UNL     1      22.573   0.207  52.871  1.00  0.00     0.056 A 
ENDBRANCH  13  15
ENDBRANCH   7  13
BRANCH   1  23
HETATM   23  O1  UNL     1      27.317   6.047  48.510  1.00  0.00    -0.356 OA
BRANCH  23  24
HETATM   24  C2  UNL     1      28.574   5.441  48.288  1.00  0.00     0.170 C 
HETATM   25  C1  UNL     1      29.613   6.542  48.144  1.00  0.00     0.034 C 
ENDBRANCH  23  24
ENDBRANCH   1  23
TORSDOF 4
ENDMDL
MODEL 4
REMARK VINA RESULT:      -8.2      4.408      7.141
REMARK  4 active torsions:
REMARK  status: ('A' for Active; 'I' for Inactive)
REMARK    1  A    between atoms: C2_2  and  O1_3 
REMARK    2  A    between atoms: O1_3  and  C3_4 
REMARK    3  A    between atoms: C8_10  and  N2_11 
REMARK    4  A    between atoms: N2_11  and  C9_12 
ROOT
HETATM    1  C3  UNL     1      26.631   0.049  54.257  1.00  0.00     0.050 A 
HETATM    2  C4  UNL     1      25.538  -0.675  54.100  1.00  0.00     0.064 A 
HETATM    3  C5  UNL     1      24.468   0.065  53.460  1.00  0.00     0.068 A 
HETATM    4  N1  UNL     1      23.317  -0.661  53.331  1.00  0.00    -0.260 NA
HETATM    5  C6  UNL     1      22.213  -0.106  52.790  1.00  0.00     0.119 A 
HETATM    6  C7  UNL     1      22.333   1.201  52.393  1.00  0.00     0.049 A 
HETATM    7  C8  UNL     1      23.487   1.942  52.518  1.00  0.00     0.043 A 
HETATM    8  C15 UNL     1      24.630   1.370  53.075  1.00  0.00     0.015 A 
HETATM    9  C16 UNL     1      25.870   2.178  53.165  1.00  0.00     0.136 A 
HETATM   10  C17 UNL     1      26.382   2.471  51.798  1.00  0.00     0.069 C 
HETATM   11  N3  UNL     1      26.794   2.698  50.739  1.00  0.00    -0.197 NA
HETATM   12  C18 UNL     1      26.935   1.453  53.900  1.00  0.00     0.088 A 
ENDROOT
BRANCH   7  13
HETATM   13  N2  UNL     1      23.551   3.297  52.116  1.00  0.00    -0.356 N 
HETATM   14  H9  UNL     1      23.737   4.052  52.805  1.00  0.00     0.166 HD
BRANCH  13  15
HETATM   15  C9  UNL     1      23.408   3.993  50.893  1.00  0.00     0.034 A 
HETATM   16  C10 UNL     1      23.339   3.424  49.614  1.00  0.00     0.032 A 
HETATM   17  C11 UNL     1      23.223   4.197  48.489  1.00  0.00     0.046 A 
HETATM   18  C12 UNL     1      23.168   5.566  48.583  1.00  0.00     0.138 A 
HETATM   19  F1  UNL     1      23.051   6.257  47.424  1.00  0.00    -0.204 F 
HETATM   20  C13 UNL     1      23.233   6.160  49.827  1.00  0.00     0.074 A 
HETATM   21 CL1  UNL     1      23.153   7.909  49.795  1.00  0.00    -0.081 Cl
HETATM   22  C14 UNL     1      23.351   5.358  50.942  1.00  0.00     0.056 A 
ENDBRANCH  13  15
ENDBRANCH   7  13
BRANCH   1  23
HETATM   23  O1  UNL     1      27.751  -0.555  54.866  1.00  0.00    -0.356 OA
BRANCH  23  24
HETATM   24  C2  UNL     1      29.014  -0.025  54.519  1.00  0.00     0.170 C 
HETATM   25  C1  UNL     1      29.721  -1.034  53.627  1.00  0.00     0.034 C 
ENDBRANCH  23  24
ENDBRANCH   1  23
TORSDOF 4
ENDMDL
MODEL 5
REMARK VINA RESULT:      -7.9      1.587      1.881
REMARK  4 active torsions:
REMARK  status: ('A' for Active; 'I' for Inactive)
REMARK    1  A    between atoms: C2_2  and  O1_3 
REMARK    2  A    between atoms: O1_3  and  C3_4 
REMARK    3  A    between atoms: C8_10  and  N2_11 
REMARK    4  A    between atoms: N2_11  and  C9_12 
ROOT
HETATM    1  C3  UNL     1      20.534   0.986  50.586  1.00  0.00     0.050 A 
HETATM    2  C4  UNL     1      20.282   0.184  51.604  1.00  0.00     0.064 A 
HETATM    3  C5  UNL     1      21.438  -0.009  52.458  1.00  0.00     0.068 A 
HETATM    4  N1  UNL     1      21.203  -0.872  53.491  1.00  0.00    -0.260 NA
HETATM    5  C6  UNL     1      22.188  -1.190  54.358  1.00  0.00     0.119 A 
HETATM    6  C7  UNL     1      23.403  -0.598  54.125  1.00  0.00     0.049 A 
HETATM    7  C8  UNL     1      23.651   0.272  53.088  1.00  0.00     0.043 A 
HETATM    8  C15 UNL     1      22.635   0.603  52.192  1.00  0.00     0.015 A 
HETATM    9  C16 UNL     1      22.919   1.571  51.106  1.00  0.00     0.136 A 
HETATM   10  C17 UNL     1      23.187   2.916  51.684  1.00  0.00     0.069 C 
HETATM   11  N3  UNL     1      23.390   3.970  52.123  1.00  0.00    -0.197 NA
HETATM   12  C18 UNL     1      21.766   1.699  50.182  1.00  0.00     0.088 A 
ENDROOT
BRANCH   7  13
HETATM   13  N2  UNL     1      24.932   0.835  52.877  1.00  0.00    -0.356 N 
HETATM   14  H9  UNL     1      25.039   1.786  52.473  1.00  0.00     0.166 HD
BRANCH  13  15
HETATM   15  C9  UNL     1      26.266   0.409  53.081  1.00  0.00     0.034 A 
HETATM   16  C10 UNL     1      26.793  -0.853  52.775  1.00  0.00     0.032 A 
HETATM   17  C11 UNL     1      28.100  -1.168  53.037  1.00  0.00     0.046 A 
HETATM   18  C12 UNL     1      28.941  -0.246  53.611  1.00  0.00     0.138 A 
HETATM   19  F1  UNL     1      30.218  -0.635  53.836  1.00  0.00    -0.204 F 
HETATM   20  C13 UNL     1      28.455   1.007  53.925  1.00  0.00     0.074 A 
HETATM   21 CL1  UNL     1      29.636   2.077  54.651  1.00  0.00    -0.081 Cl
HETATM   22  C14 UNL     1      27.135   1.297  53.652  1.00  0.00     0.056 A 
ENDBRANCH  13  15
ENDBRANCH   7  13
BRANCH   1  23
HETATM   23  O1  UNL     1      19.489   1.260  49.678  1.00  0.00    -0.356 OA
BRANCH  23  24
HETATM   24  C2  UNL     1      19.591   2.468  48.953  1.00  0.00     0.170 C 
HETATM   25  C1  UNL     1      18.501   3.409  49.444  1.00  0.00     0.034 C 
ENDBRANCH  23  24
ENDBRANCH   1  23
TORSDOF 4
ENDMDL
MODEL 6
REMARK VINA RESULT:      -7.8      1.896      2.264
REMARK  4 active torsions:
REMARK  status: ('A' for Active; 'I' for Inactive)
REMARK    1  A    between atoms: C2_2  and  O1_3 
REMARK    2  A    between atoms: O1_3  and  C3_4 
REMARK    3  A    between atoms: C8_10  and  N2_11 
REMARK    4  A    between atoms: N2_11  and  C9_12 
ROOT
HETATM    1  C3  UNL     1      20.180   2.490  52.382  1.00  0.00     0.050 A 
HETATM    2  C4  UNL     1      20.071   1.449  53.188  1.00  0.00     0.064 A 
HETATM    3  C5  UNL     1      21.333   0.761  53.381  1.00  0.00     0.068 A 
HETATM    4  N1  UNL     1      21.225  -0.343  54.178  1.00  0.00    -0.260 NA
HETATM    5  C6  UNL     1      22.302  -1.117  54.427  1.00  0.00     0.119 A 
HETATM    6  C7  UNL     1      23.473  -0.722  53.835  1.00  0.00     0.049 A 
HETATM    7  C8  UNL     1      23.594   0.389  53.030  1.00  0.00     0.043 A 
HETATM    8  C15 UNL     1      22.483   1.192  52.773  1.00  0.00     0.015 A 
HETATM    9  C16 UNL     1      22.648   2.401  51.932  1.00  0.00     0.136 A 
HETATM   10  C17 UNL     1      23.511   3.391  52.634  1.00  0.00     0.069 C 
HETATM   11  N3  UNL     1      24.175   4.172  53.175  1.00  0.00    -0.197 NA
HETATM   12  C18 UNL     1      21.344   3.052  51.661  1.00  0.00     0.088 A 
ENDROOT
BRANCH   7  13
HETATM   13  N2  UNL     1      24.822   0.739  52.421  1.00  0.00    -0.356 N 
HETATM   14  H9  UNL     1      24.856   1.078  51.440  1.00  0.00     0.166 HD
BRANCH  13  15
HETATM   15  C9  UNL     1      26.178   0.749  52.822  1.00  0.00     0.034 A 
HETATM   16  C10 UNL     1      26.928   1.873  53.195  1.00  0.00     0.032 A 
HETATM   17  C11 UNL     1      28.248   1.772  53.546  1.00  0.00     0.046 A 
HETATM   18  C12 UNL     1      28.882   0.553  53.543  1.00  0.00     0.138 A 
HETATM   19  F1  UNL     1      30.187   0.538  53.904  1.00  0.00    -0.204 F 
HETATM   20  C13 UNL     1      28.174  -0.575  53.181  1.00  0.00     0.074 A 
HETATM   21 CL1  UNL     1      29.107  -2.056  53.223  1.00  0.00    -0.081 Cl
HETATM   22  C14 UNL     1      26.847  -0.444  52.832  1.00  0.00     0.056 A 
ENDBRANCH  13  15
ENDBRANCH   7  13
BRANCH   1  23
HETATM   23  O1  UNL     1      19.022   3.250  52.113  1.00  0.00    -0.356 OA
BRANCH  23  24
HETATM   24  C2  UNL     1      18.382   2.997  50.879  1.00  0.00     0.170 C 
HETATM   25  C1  UNL     1      16.879   3.084  51.099  1.00  0.00     0.034 C 
ENDBRANCH  23  24
ENDBRANCH   1  23
TORSDOF 4
ENDMDL
MODEL 7
REMARK VINA RESULT:      -7.6      4.823      6.411
REMARK  4 active torsions:
REMARK  status: ('A' for Active; 'I' for Inactive)
REMARK    1  A    between atoms: C2_2  and  O1_3 
REMARK    2  A    between atoms: O1_3  and  C3_4 
REMARK    3  A    between atoms: C8_10  and  N2_11 
REMARK    4  A    between atoms: N2_11  and  C9_12 
ROOT
HETATM    1  C3  UNL     1      22.191   0.523  51.903  1.00  0.00     0.050 A 
HETATM    2  C4  UNL     1      21.669   0.554  50.691  1.00  0.00     0.064 A 
HETATM    3  C5  UNL     1      22.240   1.602  49.867  1.00  0.00     0.068 A 
HETATM    4  N1  UNL     1      21.678   1.672  48.623  1.00  0.00    -0.260 NA
HETATM    5  C6  UNL     1      22.071   2.618  47.745  1.00  0.00     0.119 A 
HETATM    6  C7  UNL     1      23.047   3.475  48.185  1.00  0.00     0.049 A 
HETATM    7  C8  UNL     1      23.620   3.414  49.436  1.00  0.00     0.043 A 
HETATM    8  C15 UNL     1      23.217   2.436  50.344  1.00  0.00     0.015 A 
HETATM    9  C16 UNL     1      23.876   2.369  51.670  1.00  0.00     0.136 A 
HETATM   10  C17 UNL     1      25.304   1.980  51.507  1.00  0.00     0.069 C 
HETATM   11  N3  UNL     1      26.415   1.670  51.391  1.00  0.00    -0.197 NA
HETATM   12  C18 UNL     1      23.231   1.360  52.544  1.00  0.00     0.088 A 
ENDROOT
BRANCH   7  13
HETATM   13  N2  UNL     1      24.606   4.340  49.850  1.00  0.00    -0.356 N 
HETATM   14  H9  UNL     1      24.592   4.743  50.807  1.00  0.00     0.166 HD
BRANCH  13  15
HETATM   15  C9  UNL     1      25.734   4.947  49.250  1.00  0.00     0.034 A 
HETATM   16  C10 UNL     1      27.005   4.376  49.098  1.00  0.00     0.032 A 
HETATM   17  C11 UNL     1      28.037   5.066  48.519  1.00  0.00     0.046 A 
HETATM   18  C12 UNL     1      27.855   6.349  48.066  1.00  0.00     0.138 A 
HETATM   19  F1  UNL     1      28.925   6.961  47.505  1.00  0.00    -0.204 F 
HETATM   20  C13 UNL     1      26.616   6.943  48.199  1.00  0.00     0.074 A 
HETATM   21 CL1  UNL     1      26.529   8.577  47.578  1.00  0.00    -0.081 Cl
HETATM   22  C14 UNL     1      25.595   6.226  48.786  1.00  0.00     0.056 A 
ENDBRANCH  13  15
ENDBRANCH   7  13
BRANCH   1  23
HETATM   23  O1  UNL     1      21.723  -0.454  52.807  1.00  0.00    -0.356 OA
BRANCH  23  24
HETATM   24  C2  UNL     1      22.640  -0.889  53.789  1.00  0.00     0.170 C 
HETATM   25  C1  UNL     1      21.849  -1.403  54.982  1.00  0.00     0.034 C 
ENDBRANCH  23  24
ENDBRANCH   1  23
TORSDOF 4
ENDMDL
MODEL 8
REMARK VINA RESULT:      -7.4      2.896      4.595
REMARK  4 active torsions:
REMARK  status: ('A' for Active; 'I' for Inactive)
REMARK    1  A    between atoms: C2_2  and  O1_3 
REMARK    2  A    between atoms: O1_3  and  C3_4 
REMARK    3  A    between atoms: C8_10  and  N2_11 
REMARK    4  A    between atoms: N2_11  and  C9_12 
ROOT
HETATM    1  C3  UNL     1      21.245   4.243  50.969  1.00  0.00     0.050 A 
HETATM    2  C4  UNL     1      22.047   4.604  49.985  1.00  0.00     0.064 A 
HETATM    3  C5  UNL     1      23.429   4.237  50.230  1.00  0.00     0.068 A 
HETATM    4  N1  UNL     1      24.275   4.644  49.238  1.00  0.00    -0.260 NA
HETATM    5  C6  UNL     1      25.602   4.414  49.331  1.00  0.00     0.119 A 
HETATM    6  C7  UNL     1      26.018   3.763  50.463  1.00  0.00     0.049 A 
HETATM    7  C8  UNL     1      25.174   3.348  51.469  1.00  0.00     0.043 A 
HETATM    8  C15 UNL     1      23.803   3.582  51.374  1.00  0.00     0.015 A 
HETATM    9  C16 UNL     1      22.913   3.094  52.453  1.00  0.00     0.136 A 
HETATM   10  C17 UNL     1      22.907   1.605  52.470  1.00  0.00     0.069 C 
HETATM   11  N3  UNL     1      22.890   0.446  52.486  1.00  0.00    -0.197 NA
HETATM   12  C18 UNL     1      21.516   3.547  52.248  1.00  0.00     0.088 A 
ENDROOT
BRANCH   7  13
HETATM   13  N2  UNL     1      25.659   2.701  52.630  1.00  0.00    -0.356 N 
HETATM   14  H9  UNL     1      25.268   2.919  53.567  1.00  0.00     0.166 HD
BRANCH  13  15
HETATM   15  C9  UNL     1      26.652   1.731  52.903  1.00  0.00     0.034 A 
HETATM   16  C10 UNL     1      27.921   1.968  53.446  1.00  0.00     0.032 A 
HETATM   17  C11 UNL     1      28.818   0.952  53.648  1.00  0.00     0.046 A 
HETATM   18  C12 UNL     1      28.494  -0.342  53.322  1.00  0.00     0.138 A 
HETATM   19  F1  UNL     1      29.435  -1.289  53.554  1.00  0.00    -0.204 F 
HETATM   20  C13 UNL     1      27.252  -0.612  52.784  1.00  0.00     0.074 A 
HETATM   21 CL1  UNL     1      26.977  -2.302  52.416  1.00  0.00    -0.081 Cl
HETATM   22  C14 UNL     1      26.370   0.430  52.590  1.00  0.00     0.056 A 
ENDBRANCH  13  15
ENDBRANCH   7  13
BRANCH   1  23
HETATM   23  O1  UNL     1      19.871   4.539  50.854  1.00  0.00    -0.356 OA
BRANCH  23  24
HETATM   24  C2  UNL     1      18.989   3.717  51.591  1.00  0.00     0.170 C 
HETATM   25  C1  UNL     1      17.608   3.819  50.961  1.00  0.00     0.034 C 
ENDBRANCH  23  24
ENDBRANCH   1  23
TORSDOF 4
ENDMDL
MODEL 9
REMARK VINA RESULT:      -7.3      5.048      7.425
REMARK  4 active torsions:
REMARK  status: ('A' for Active; 'I' for Inactive)
REMARK    1  A    between atoms: C2_2  and  O1_3 
REMARK    2  A    between atoms: O1_3  and  C3_4 
REMARK    3  A    between atoms: C8_10  and  N2_11 
REMARK    4  A    between atoms: N2_11  and  C9_12 
ROOT
HETATM    1  C3  UNL     1      24.987   5.435  48.882  1.00  0.00     0.050 A 
HETATM    2  C4  UNL     1      26.068   4.920  49.438  1.00  0.00     0.064 A 
HETATM    3  C5  UNL     1      25.788   3.705  50.177  1.00  0.00     0.068 A 
HETATM    4  N1  UNL     1      26.892   3.186  50.793  1.00  0.00    -0.260 NA
HETATM    5  C6  UNL     1      26.795   2.075  51.554  1.00  0.00     0.119 A 
HETATM    6  C7  UNL     1      25.542   1.529  51.657  1.00  0.00     0.049 A 
HETATM    7  C8  UNL     1      24.423   2.043  51.042  1.00  0.00     0.043 A 
HETATM    8  C15 UNL     1      24.521   3.189  50.253  1.00  0.00     0.015 A 
HETATM    9  C16 UNL     1      23.308   3.701  49.572  1.00  0.00     0.136 A 
HETATM   10  C17 UNL     1      22.860   2.729  48.538  1.00  0.00     0.069 C 
HETATM   11  N3  UNL     1      22.507   1.982  47.725  1.00  0.00    -0.197 NA
HETATM   12  C18 UNL     1      23.575   4.992  48.892  1.00  0.00     0.088 A 
ENDROOT
BRANCH   7  13
HETATM   13  N2  UNL     1      23.146   1.455  51.202  1.00  0.00    -0.356 N 
HETATM   14  H9  UNL     1      22.384   1.635  50.519  1.00  0.00     0.166 HD
BRANCH  13  15
HETATM   15  C9  UNL     1      22.546   0.594  52.150  1.00  0.00     0.034 A 
HETATM   16  C10 UNL     1      23.207  -0.143  53.142  1.00  0.00     0.032 A 
HETATM   17  C11 UNL     1      22.526  -0.968  53.998  1.00  0.00     0.046 A 
HETATM   18  C12 UNL     1      21.162  -1.099  53.907  1.00  0.00     0.138 A 
HETATM   19  F1  UNL     1      20.564  -1.934  54.791  1.00  0.00    -0.204 F 
HETATM   20  C13 UNL     1      20.478  -0.388  52.941  1.00  0.00     0.074 A 
HETATM   21 CL1  UNL     1      18.747  -0.652  52.942  1.00  0.00    -0.081 Cl
HETATM   22  C14 UNL     1      21.189   0.434  52.093  1.00  0.00     0.056 A 
ENDBRANCH  13  15
ENDBRANCH   7  13
BRANCH   1  23
HETATM   23  O1  UNL     1      25.123   6.621  48.130  1.00  0.00    -0.356 OA
BRANCH  23  24
HETATM   24  C2  UNL     1      25.731   7.713  48.787  1.00  0.00     0.170 C 
HETATM   25  C1  UNL     1      24.632   8.580  49.383  1.00  0.00     0.034 C 
ENDBRANCH  23  24
ENDBRANCH   1  23
TORSDOF 4
ENDMDL
