MODEL 1
REMARK VINA RESULT:      -7.4      0.000      0.000
REMARK  6 active torsions:
REMARK  status: ('A' for Active; 'I' for Inactive)
REMARK    1  A    between atoms: C1_2  and  C2_3 
REMARK    2  A    between atoms: C2_3  and  N1_4 
REMARK    3  A    between atoms: N1_4  and  C3_5 
REMARK    4  A    between atoms: C6_8  and  O2_9 
REMARK    5  A    between atoms: O2_9  and  C7_10 
REMARK    6  A    between atoms: C7_10  and  N2_11 
ROOT
HETATM    1  C3  UNL     1      26.608   0.114  53.901  1.00  0.00     0.039 A 
HETATM    2  C4  UNL     1      26.811   0.881  52.775  1.00  0.00     0.033 A 
HETATM    3  C5  UNL     1      25.794   1.281  51.934  1.00  0.00     0.040 A 
HETATM    4  C6  UNL     1      24.494   0.912  52.208  1.00  0.00     0.082 A 
HETATM    5  C12 UNL     1      24.246   0.146  53.325  1.00  0.00     0.010 A 
HETATM    6  C13 UNL     1      22.946  -0.234  53.615  1.00  0.00     0.015 A 
HETATM    7  C14 UNL     1      22.665  -1.004  54.731  1.00  0.00     0.001 A 
HETATM    8  C15 UNL     1      23.720  -1.385  55.549  1.00  0.00     0.001 A 
HETATM    9  C16 UNL     1      25.000  -0.993  55.235  1.00  0.00     0.014 A 
HETATM   10  C17 UNL     1      25.297  -0.230  54.134  1.00  0.00     0.003 A 
ENDROOT
BRANCH   4  11
HETATM   11  O2  UNL     1      23.473   1.299  51.386  1.00  0.00    -0.321 OA
BRANCH  11  12
HETATM   12  C7  UNL     1      23.055   2.640  51.214  1.00  0.00     0.447 C 
BRANCH  12  13
HETATM   13  N2  UNL     1      21.771   2.921  51.831  1.00  0.00     0.116 N 
HETATM   14  C8  UNL     1      21.269   4.163  51.259  1.00  0.00     0.301 C 
HETATM   15  C9  UNL     1      19.771   4.220  51.232  1.00  0.00     0.198 C 
HETATM   16  O3  UNL     1      19.220   3.395  52.225  1.00  0.00    -0.388 OA
HETATM   17  C10 UNL     1      19.447   2.093  51.764  1.00  0.00     0.198 C 
HETATM   18  C11 UNL     1      20.895   1.837  51.428  1.00  0.00     0.301 C 
ENDBRANCH  12  13
ENDBRANCH  11  12
ENDBRANCH   4  11
BRANCH   1  19
HETATM   19  N1  UNL     1      27.706  -0.261  54.722  1.00  0.00    -0.387 N 
HETATM   20  H4  UNL     1      27.680  -0.464  55.733  1.00  0.00     0.159 HD
BRANCH  19  21
HETATM   21  C2  UNL     1      29.025  -0.385  54.109  1.00  0.00     0.156 C 
BRANCH  21  22
HETATM   22  C1  UNL     1      29.211  -1.659  53.405  1.00  0.00     0.410 C 
HETATM   23  O1  UNL     1      29.000  -2.851  53.403  1.00  0.00    -0.428 OA
ENDBRANCH  21  22
ENDBRANCH  19  21
ENDBRANCH   1  19
TORSDOF 6
ENDMDL
MODEL 2
REMARK VINA RESULT:      -7.2      2.533      7.333
REMARK  6 active torsions:
REMARK  status: ('A' for Active; 'I' for Inactive)
REMARK    1  A    between atoms: C1_2  and  C2_3 
REMARK    2  A    between atoms: C2_3  and  N1_4 
REMARK    3  A    between atoms: N1_4  and  C3_5 
REMARK    4  A    between atoms: C6_8  and  O2_9 
REMARK    5  A    between atoms: O2_9  and  C7_10 
REMARK    6  A    between atoms: C7_10  and  N2_11 
ROOT
HETATM    1  C3  UNL     1      20.777  -0.293  53.936  1.00  0.00     0.039 A 
HETATM    2  C4  UNL     1      21.671  -1.239  54.387  1.00  0.00     0.033 A 
HETATM    3  C5  UNL     1      23.038  -1.121  54.246  1.00  0.00     0.040 A 
HETATM    4  C6  UNL     1      23.570  -0.011  53.625  1.00  0.00     0.082 A 
HETATM    5  C12 UNL     1      22.711   0.959  53.159  1.00  0.00     0.010 A 
HETATM    6  C13 UNL     1      23.229   2.081  52.532  1.00  0.00     0.015 A 
HETATM    7  C14 UNL     1      22.392   3.075  52.053  1.00  0.00     0.001 A 
HETATM    8  C15 UNL     1      21.022   2.915  52.218  1.00  0.00     0.001 A 
HETATM    9  C16 UNL     1      20.538   1.790  52.843  1.00  0.00     0.014 A 
HETATM   10  C17 UNL     1      21.353   0.797  53.324  1.00  0.00     0.003 A 
ENDROOT
BRANCH   4  11
HETATM   11  O2  UNL     1      24.922   0.121  53.475  1.00  0.00    -0.321 OA
BRANCH  11  12
HETATM   12  C7  UNL     1      25.874  -0.306  54.430  1.00  0.00     0.447 C 
BRANCH  12  13
HETATM   13  N2  UNL     1      26.922   0.670  54.668  1.00  0.00     0.116 N 
HETATM   14  C8  UNL     1      28.189  -0.045  54.714  1.00  0.00     0.301 C 
HETATM   15  C9  UNL     1      29.342   0.798  54.258  1.00  0.00     0.198 C 
HETATM   16  O3  UNL     1      29.067   2.163  54.439  1.00  0.00    -0.388 OA
HETATM   17  C10 UNL     1      28.114   2.461  53.459  1.00  0.00     0.198 C 
HETATM   18  C11 UNL     1      26.920   1.540  53.507  1.00  0.00     0.301 C 
ENDBRANCH  12  13
ENDBRANCH  11  12
ENDBRANCH   4  11
BRANCH   1  19
HETATM   19  N1  UNL     1      19.380  -0.480  54.117  1.00  0.00    -0.387 N 
HETATM   20  H4  UNL     1      18.771   0.019  54.783  1.00  0.00     0.159 HD
BRANCH  19  21
HETATM   21  C2  UNL     1      18.697  -1.473  53.294  1.00  0.00     0.156 C 
BRANCH  21  22
HETATM   22  C1  UNL     1      17.353  -1.050  52.885  1.00  0.00     0.410 C 
HETATM   23  O1  UNL     1      16.357  -0.428  53.181  1.00  0.00    -0.428 OA
ENDBRANCH  21  22
ENDBRANCH  19  21
ENDBRANCH   1  19
TORSDOF 6
ENDMDL
MODEL 3
REMARK VINA RESULT:      -7.2      1.567      1.818
REMARK  6 active torsions:
REMARK  status: ('A' for Active; 'I' for Inactive)
REMARK    1  A    between atoms: C1_2  and  C2_3 
REMARK    2  A    between atoms: C2_3  and  N1_4 
REMARK    3  A    between atoms: N1_4  and  C3_5 
REMARK    4  A    between atoms: C6_8  and  O2_9 
REMARK    5  A    between atoms: O2_9  and  C7_10 
REMARK    6  A    between atoms: C7_10  and  N2_11 
ROOT
HETATM    1  C3  UNL     1      26.575   0.146  53.821  1.00  0.00     0.039 A 
HETATM    2  C4  UNL     1      26.820   0.931  52.716  1.00  0.00     0.033 A 
HETATM    3  C5  UNL     1      25.832   1.364  51.857  1.00  0.00     0.040 A 
HETATM    4  C6  UNL     1      24.519   1.011  52.089  1.00  0.00     0.082 A 
HETATM    5  C12 UNL     1      24.230   0.227  53.183  1.00  0.00     0.010 A 
HETATM    6  C13 UNL     1      22.917  -0.136  53.431  1.00  0.00     0.015 A 
HETATM    7  C14 UNL     1      22.593  -0.924  54.523  1.00  0.00     0.001 A 
HETATM    8  C15 UNL     1      23.620  -1.338  55.362  1.00  0.00     0.001 A 
HETATM    9  C16 UNL     1      24.914  -0.961  55.089  1.00  0.00     0.014 A 
HETATM   10  C17 UNL     1      25.252  -0.181  54.012  1.00  0.00     0.003 A 
ENDROOT
BRANCH   4  11
HETATM   11  O2  UNL     1      23.527   1.431  51.248  1.00  0.00    -0.321 OA
BRANCH  11  12
HETATM   12  C7  UNL     1      23.621   2.569  50.412  1.00  0.00     0.447 C 
BRANCH  12  13
HETATM   13  N2  UNL     1      22.884   3.713  50.919  1.00  0.00     0.116 N 
HETATM   14  C8  UNL     1      23.855   4.704  51.358  1.00  0.00     0.301 C 
HETATM   15  C9  UNL     1      23.341   6.107  51.237  1.00  0.00     0.198 C 
HETATM   16  O3  UNL     1      21.938   6.132  51.286  1.00  0.00    -0.388 OA
HETATM   17  C10 UNL     1      21.535   5.592  50.059  1.00  0.00     0.198 C 
HETATM   18  C11 UNL     1      22.157   4.246  49.782  1.00  0.00     0.301 C 
ENDBRANCH  12  13
ENDBRANCH  11  12
ENDBRANCH   4  11
BRANCH   1  19
HETATM   19  N1  UNL     1      27.644  -0.264  54.663  1.00  0.00    -0.387 N 
HETATM   20  H4  UNL     1      27.582  -0.523  55.659  1.00  0.00     0.159 HD
BRANCH  19  21
HETATM   21  C2  UNL     1      28.987  -0.341  54.097  1.00  0.00     0.156 C 
BRANCH  21  22
HETATM   22  C1  UNL     1      29.258  -1.624  53.440  1.00  0.00     0.410 C 
HETATM   23  O1  UNL     1      29.033  -2.814  53.417  1.00  0.00    -0.428 OA
ENDBRANCH  21  22
ENDBRANCH  19  21
ENDBRANCH   1  19
TORSDOF 6
ENDMDL
MODEL 4
REMARK VINA RESULT:      -7.1      1.628      1.902
REMARK  6 active torsions:
REMARK  status: ('A' for Active; 'I' for Inactive)
REMARK    1  A    between atoms: C1_2  and  C2_3 
REMARK    2  A    between atoms: C2_3  and  N1_4 
REMARK    3  A    between atoms: N1_4  and  C3_5 
REMARK    4  A    between atoms: C6_8  and  O2_9 
REMARK    5  A    between atoms: O2_9  and  C7_10 
REMARK    6  A    between atoms: C7_10  and  N2_11 
ROOT
HETATM    1  C3  UNL     1      26.192  -0.022  53.765  1.00  0.00     0.039 A 
HETATM    2  C4  UNL     1      26.380   0.767  52.652  1.00  0.00     0.033 A 
HETATM    3  C5  UNL     1      25.346   1.251  51.880  1.00  0.00     0.040 A 
HETATM    4  C6  UNL     1      24.042   0.948  52.212  1.00  0.00     0.082 A 
HETATM    5  C12 UNL     1      23.809   0.162  53.318  1.00  0.00     0.010 A 
HETATM    6  C13 UNL     1      22.506  -0.152  53.666  1.00  0.00     0.015 A 
HETATM    7  C14 UNL     1      22.238  -0.940  54.773  1.00  0.00     0.001 A 
HETATM    8  C15 UNL     1      23.310  -1.406  55.522  1.00  0.00     0.001 A 
HETATM    9  C16 UNL     1      24.593  -1.078  55.151  1.00  0.00     0.014 A 
HETATM   10  C17 UNL     1      24.876  -0.298  54.058  1.00  0.00     0.003 A 
ENDROOT
BRANCH   4  11
HETATM   11  O2  UNL     1      23.004   1.419  51.458  1.00  0.00    -0.321 OA
BRANCH  11  12
HETATM   12  C7  UNL     1      22.700   2.790  51.290  1.00  0.00     0.447 C 
BRANCH  12  13
HETATM   13  N2  UNL     1      22.112   3.091  49.997  1.00  0.00     0.116 N 
HETATM   14  C8  UNL     1      23.064   2.684  48.974  1.00  0.00     0.301 C 
HETATM   15  C9  UNL     1      22.396   2.276  47.696  1.00  0.00     0.198 C 
HETATM   16  O3  UNL     1      21.139   2.889  47.569  1.00  0.00    -0.388 OA
HETATM   17  C10 UNL     1      20.335   2.239  48.512  1.00  0.00     0.198 C 
HETATM   18  C11 UNL     1      20.934   2.251  49.897  1.00  0.00     0.301 C 
ENDBRANCH  12  13
ENDBRANCH  11  12
ENDBRANCH   4  11
BRANCH   1  19
HETATM   19  N1  UNL     1      27.307  -0.486  54.515  1.00  0.00    -0.387 N 
HETATM   20  H4  UNL     1      27.285  -0.925  55.447  1.00  0.00     0.159 HD
BRANCH  19  21
HETATM   21  C2  UNL     1      28.641  -0.345  53.940  1.00  0.00     0.156 C 
BRANCH  21  22
HETATM   22  C1  UNL     1      29.176  -1.608  53.419  1.00  0.00     0.410 C 
HETATM   23  O1  UNL     1      29.087  -2.815  53.413  1.00  0.00    -0.428 OA
ENDBRANCH  21  22
ENDBRANCH  19  21
ENDBRANCH   1  19
TORSDOF 6
ENDMDL
MODEL 5
REMARK VINA RESULT:      -7.1      2.903      3.694
REMARK  6 active torsions:
REMARK  status: ('A' for Active; 'I' for Inactive)
REMARK    1  A    between atoms: C1_2  and  C2_3 
REMARK    2  A    between atoms: C2_3  and  N1_4 
REMARK    3  A    between atoms: N1_4  and  C3_5 
REMARK    4  A    between atoms: C6_8  and  O2_9 
REMARK    5  A    between atoms: O2_9  and  C7_10 
REMARK    6  A    between atoms: C7_10  and  N2_11 
ROOT
HETATM    1  C3  UNL     1      26.276   0.031  52.770  1.00  0.00     0.039 A 
HETATM    2  C4  UNL     1      26.886   0.924  51.917  1.00  0.00     0.033 A 
HETATM    3  C5  UNL     1      26.215   1.946  51.279  1.00  0.00     0.040 A 
HETATM    4  C6  UNL     1      24.861   2.109  51.484  1.00  0.00     0.082 A 
HETATM    5  C12 UNL     1      24.212   1.238  52.328  1.00  0.00     0.010 A 
HETATM    6  C13 UNL     1      22.852   1.388  52.545  1.00  0.00     0.015 A 
HETATM    7  C14 UNL     1      22.170   0.528  53.390  1.00  0.00     0.001 A 
HETATM    8  C15 UNL     1      22.885  -0.486  54.012  1.00  0.00     0.001 A 
HETATM    9  C16 UNL     1      24.234  -0.610  53.777  1.00  0.00     0.014 A 
HETATM   10  C17 UNL     1      24.926   0.233  52.944  1.00  0.00     0.003 A 
ENDROOT
BRANCH   4  11
HETATM   11  O2  UNL     1      24.180   3.115  50.858  1.00  0.00    -0.321 OA
BRANCH  11  12
HETATM   12  C7  UNL     1      24.330   3.449  49.492  1.00  0.00     0.447 C 
BRANCH  12  13
HETATM   13  N2  UNL     1      24.537   4.869  49.270  1.00  0.00     0.116 N 
HETATM   14  C8  UNL     1      24.099   5.571  50.467  1.00  0.00     0.301 C 
HETATM   15  C9  UNL     1      24.846   6.851  50.690  1.00  0.00     0.198 C 
HETATM   16  O3  UNL     1      25.350   7.355  49.480  1.00  0.00    -0.388 OA
HETATM   17  C10 UNL     1      26.397   6.487  49.148  1.00  0.00     0.198 C 
HETATM   18  C11 UNL     1      25.971   5.040  49.130  1.00  0.00     0.301 C 
ENDBRANCH  12  13
ENDBRANCH  11  12
ENDBRANCH   4  11
BRANCH   1  19
HETATM   19  N1  UNL     1      27.031  -0.998  53.394  1.00  0.00    -0.387 N 
HETATM   20  H4  UNL     1      26.683  -1.917  53.708  1.00  0.00     0.159 HD
BRANCH  19  21
HETATM   21  C2  UNL     1      28.453  -0.772  53.633  1.00  0.00     0.156 C 
BRANCH  21  22
HETATM   22  C1  UNL     1      28.708   0.096  54.788  1.00  0.00     0.410 C 
HETATM   23  O1  UNL     1      28.856   1.230  55.185  1.00  0.00    -0.428 OA
ENDBRANCH  21  22
ENDBRANCH  19  21
ENDBRANCH   1  19
TORSDOF 6
ENDMDL
MODEL 6
REMARK VINA RESULT:      -7.1      2.197      2.728
REMARK  6 active torsions:
REMARK  status: ('A' for Active; 'I' for Inactive)
REMARK    1  A    between atoms: C1_2  and  C2_3 
REMARK    2  A    between atoms: C2_3  and  N1_4 
REMARK    3  A    between atoms: N1_4  and  C3_5 
REMARK    4  A    between atoms: C6_8  and  O2_9 
REMARK    5  A    between atoms: O2_9  and  C7_10 
REMARK    6  A    between atoms: C7_10  and  N2_11 
ROOT
HETATM    1  C3  UNL     1      25.412  -0.202  53.186  1.00  0.00     0.039 A 
HETATM    2  C4  UNL     1      25.649   0.727  52.197  1.00  0.00     0.033 A 
HETATM    3  C5  UNL     1      24.676   1.563  51.689  1.00  0.00     0.040 A 
HETATM    4  C6  UNL     1      23.388   1.489  52.176  1.00  0.00     0.082 A 
HETATM    5  C12 UNL     1      23.108   0.574  53.165  1.00  0.00     0.010 A 
HETATM    6  C13 UNL     1      21.819   0.487  53.665  1.00  0.00     0.015 A 
HETATM    7  C14 UNL     1      21.505  -0.423  54.661  1.00  0.00     0.001 A 
HETATM    8  C15 UNL     1      22.516  -1.244  55.143  1.00  0.00     0.001 A 
HETATM    9  C16 UNL     1      23.785  -1.135  54.626  1.00  0.00     0.014 A 
HETATM   10  C17 UNL     1      24.114  -0.239  53.640  1.00  0.00     0.003 A 
ENDROOT
BRANCH   4  11
HETATM   11  O2  UNL     1      22.411   2.308  51.684  1.00  0.00    -0.321 OA
BRANCH  11  12
HETATM   12  C7  UNL     1      22.155   3.616  52.159  1.00  0.00     0.447 C 
BRANCH  12  13
HETATM   13  N2  UNL     1      22.529   4.651  51.212  1.00  0.00     0.116 N 
HETATM   14  C8  UNL     1      21.397   5.556  51.077  1.00  0.00     0.301 C 
HETATM   15  C9  UNL     1      21.816   6.956  50.743  1.00  0.00     0.198 C 
HETATM   16  O3  UNL     1      23.062   6.965  50.096  1.00  0.00    -0.388 OA
HETATM   17  C10 UNL     1      23.981   6.644  51.102  1.00  0.00     0.198 C 
HETATM   18  C11 UNL     1      23.628   5.370  51.828  1.00  0.00     0.301 C 
ENDBRANCH  12  13
ENDBRANCH  11  12
ENDBRANCH   4  11
BRANCH   1  19
HETATM   19  N1  UNL     1      26.465  -1.030  53.661  1.00  0.00    -0.387 N 
HETATM   20  H4  UNL     1      26.372  -1.966  54.082  1.00  0.00     0.159 HD
BRANCH  19  21
HETATM   21  C2  UNL     1      27.836  -0.541  53.561  1.00  0.00     0.156 C 
BRANCH  21  22
HETATM   22  C1  UNL     1      28.262   0.215  54.744  1.00  0.00     0.410 C 
HETATM   23  O1  UNL     1      28.915   1.142  55.169  1.00  0.00    -0.428 OA
ENDBRANCH  21  22
ENDBRANCH  19  21
ENDBRANCH   1  19
TORSDOF 6
ENDMDL
MODEL 7
REMARK VINA RESULT:      -7.1      2.270      3.678
REMARK  6 active torsions:
REMARK  status: ('A' for Active; 'I' for Inactive)
REMARK    1  A    between atoms: C1_2  and  C2_3 
REMARK    2  A    between atoms: C2_3  and  N1_4 
REMARK    3  A    between atoms: N1_4  and  C3_5 
REMARK    4  A    between atoms: C6_8  and  O2_9 
REMARK    5  A    between atoms: O2_9  and  C7_10 
REMARK    6  A    between atoms: C7_10  and  N2_11 
ROOT
HETATM    1  C3  UNL     1      26.535   0.051  52.900  1.00  0.00     0.039 A 
HETATM    2  C4  UNL     1      25.650  -0.723  53.618  1.00  0.00     0.033 A 
HETATM    3  C5  UNL     1      24.281  -0.557  53.570  1.00  0.00     0.040 A 
HETATM    4  C6  UNL     1      23.739   0.428  52.772  1.00  0.00     0.082 A 
HETATM    5  C12 UNL     1      24.587   1.225  52.038  1.00  0.00     0.010 A 
HETATM    6  C13 UNL     1      24.059   2.219  51.231  1.00  0.00     0.015 A 
HETATM    7  C14 UNL     1      24.886   3.038  50.480  1.00  0.00     0.001 A 
HETATM    8  C15 UNL     1      26.258   2.835  50.559  1.00  0.00     0.001 A 
HETATM    9  C16 UNL     1      26.753   1.840  51.369  1.00  0.00     0.014 A 
HETATM   10  C17 UNL     1      25.948   1.020  52.119  1.00  0.00     0.003 A 
ENDROOT
BRANCH   4  11
HETATM   11  O2  UNL     1      22.385   0.608  52.713  1.00  0.00    -0.321 OA
BRANCH  11  12
HETATM   12  C7  UNL     1      21.516   0.476  53.822  1.00  0.00     0.447 C 
BRANCH  12  13
HETATM   13  N2  UNL     1      20.113   0.459  53.448  1.00  0.00     0.116 N 
HETATM   14  C8  UNL     1      20.030   0.772  52.029  1.00  0.00     0.301 C 
HETATM   15  C9  UNL     1      18.843   0.138  51.368  1.00  0.00     0.198 C 
HETATM   16  O3  UNL     1      17.823  -0.110  52.301  1.00  0.00    -0.388 OA
HETATM   17  C10 UNL     1      18.303  -1.176  53.070  1.00  0.00     0.198 C 
HETATM   18  C11 UNL     1      19.670  -0.908  53.649  1.00  0.00     0.301 C 
ENDBRANCH  12  13
ENDBRANCH  11  12
ENDBRANCH   4  11
BRANCH   1  19
HETATM   19  N1  UNL     1      27.933  -0.178  52.999  1.00  0.00    -0.387 N 
HETATM   20  H4  UNL     1      28.567  -0.465  52.238  1.00  0.00     0.159 HD
BRANCH  19  21
HETATM   21  C2  UNL     1      28.581   0.002  54.295  1.00  0.00     0.156 C 
BRANCH  21  22
HETATM   22  C1  UNL     1      28.911   1.403  54.579  1.00  0.00     0.410 C 
HETATM   23  O1  UNL     1      28.806   2.557  54.226  1.00  0.00    -0.428 OA
ENDBRANCH  21  22
ENDBRANCH  19  21
ENDBRANCH   1  19
TORSDOF 6
ENDMDL
MODEL 8
REMARK VINA RESULT:      -6.9      1.753      6.848
REMARK  6 active torsions:
REMARK  status: ('A' for Active; 'I' for Inactive)
REMARK    1  A    between atoms: C1_2  and  C2_3 
REMARK    2  A    between atoms: C2_3  and  N1_4 
REMARK    3  A    between atoms: N1_4  and  C3_5 
REMARK    4  A    between atoms: C6_8  and  O2_9 
REMARK    5  A    between atoms: O2_9  and  C7_10 
REMARK    6  A    between atoms: C7_10  and  N2_11 
ROOT
HETATM    1  C3  UNL     1      21.222   1.963  52.303  1.00  0.00     0.039 A 
HETATM    2  C4  UNL     1      22.075   2.554  51.397  1.00  0.00     0.033 A 
HETATM    3  C5  UNL     1      23.400   2.198  51.257  1.00  0.00     0.040 A 
HETATM    4  C6  UNL     1      23.930   1.202  52.049  1.00  0.00     0.082 A 
HETATM    5  C12 UNL     1      23.111   0.584  52.967  1.00  0.00     0.010 A 
HETATM    6  C13 UNL     1      23.627  -0.419  53.771  1.00  0.00     0.015 A 
HETATM    7  C14 UNL     1      22.829  -1.061  54.704  1.00  0.00     0.001 A 
HETATM    8  C15 UNL     1      21.501  -0.671  54.811  1.00  0.00     0.001 A 
HETATM    9  C16 UNL     1      21.018   0.329  54.000  1.00  0.00     0.014 A 
HETATM   10  C17 UNL     1      21.794   0.974  53.070  1.00  0.00     0.003 A 
ENDROOT
BRANCH   4  11
HETATM   11  O2  UNL     1      25.241   0.837  51.924  1.00  0.00    -0.321 OA
BRANCH  11  12
HETATM   12  C7  UNL     1      26.327   1.743  51.972  1.00  0.00     0.447 C 
BRANCH  12  13
HETATM   13  N2  UNL     1      27.573   1.120  52.380  1.00  0.00     0.116 N 
HETATM   14  C8  UNL     1      27.984   1.734  53.634  1.00  0.00     0.301 C 
HETATM   15  C9  UNL     1      28.777   0.802  54.499  1.00  0.00     0.198 C 
HETATM   16  O3  UNL     1      29.411  -0.184  53.726  1.00  0.00    -0.388 OA
HETATM   17  C10 UNL     1      28.371  -1.023  53.309  1.00  0.00     0.198 C 
HETATM   18  C11 UNL     1      27.253  -0.274  52.628  1.00  0.00     0.301 C 
ENDBRANCH  12  13
ENDBRANCH  11  12
ENDBRANCH   4  11
BRANCH   1  19
HETATM   19  N1  UNL     1      19.867   2.380  52.392  1.00  0.00    -0.387 N 
HETATM   20  H4  UNL     1      19.438   2.926  53.154  1.00  0.00     0.159 HD
BRANCH  19  21
HETATM   21  C2  UNL     1      18.953   2.021  51.311  1.00  0.00     0.156 C 
BRANCH  21  22
HETATM   22  C1  UNL     1      18.295   0.728  51.525  1.00  0.00     0.410 C 
HETATM   23  O1  UNL     1      18.002  -0.346  51.049  1.00  0.00    -0.428 OA
ENDBRANCH  21  22
ENDBRANCH  19  21
ENDBRANCH   1  19
TORSDOF 6
ENDMDL
MODEL 9
REMARK VINA RESULT:      -6.7      3.011      7.468
REMARK  6 active torsions:
REMARK  status: ('A' for Active; 'I' for Inactive)
REMARK    1  A    between atoms: C1_2  and  C2_3 
REMARK    2  A    between atoms: C2_3  and  N1_4 
REMARK    3  A    between atoms: N1_4  and  C3_5 
REMARK    4  A    between atoms: C6_8  and  O2_9 
REMARK    5  A    between atoms: O2_9  and  C7_10 
REMARK    6  A    between atoms: C7_10  and  N2_11 
ROOT
HETATM    1  C3  UNL     1      19.826  -0.680  53.464  1.00  0.00     0.039 A 
HETATM    2  C4  UNL     1      20.897  -0.962  54.284  1.00  0.00     0.033 A 
HETATM    3  C5  UNL     1      22.201  -0.642  53.970  1.00  0.00     0.040 A 
HETATM    4  C6  UNL     1      22.482  -0.006  52.780  1.00  0.00     0.082 A 
HETATM    5  C12 UNL     1      21.442   0.295  51.930  1.00  0.00     0.010 A 
HETATM    6  C13 UNL     1      21.706   0.935  50.730  1.00  0.00     0.015 A 
HETATM    7  C14 UNL     1      20.682   1.251  49.854  1.00  0.00     0.001 A 
HETATM    8  C15 UNL     1      19.384   0.911  50.211  1.00  0.00     0.001 A 
HETATM    9  C16 UNL     1      19.152   0.276  51.409  1.00  0.00     0.014 A 
HETATM   10  C17 UNL     1      20.155  -0.045  52.289  1.00  0.00     0.003 A 
ENDROOT
BRANCH   4  11
HETATM   11  O2  UNL     1      23.768   0.318  52.451  1.00  0.00    -0.321 OA
BRANCH  11  12
HETATM   12  C7  UNL     1      24.623   1.103  53.261  1.00  0.00     0.447 C 
BRANCH  12  13
HETATM   13  N2  UNL     1      26.028   0.777  53.092  1.00  0.00     0.116 N 
HETATM   14  C8  UNL     1      26.700   1.056  54.353  1.00  0.00     0.301 C 
HETATM   15  C9  UNL     1      27.891   0.174  54.577  1.00  0.00     0.198 C 
HETATM   16  O3  UNL     1      28.413  -0.285  53.356  1.00  0.00    -0.388 OA
HETATM   17  C10 UNL     1      27.472  -1.215  52.901  1.00  0.00     0.198 C 
HETATM   18  C11 UNL     1      26.073  -0.652  52.847  1.00  0.00     0.301 C 
ENDBRANCH  12  13
ENDBRANCH  11  12
ENDBRANCH   4  11
BRANCH   1  19
HETATM   19  N1  UNL     1      18.508  -1.039  53.854  1.00  0.00    -0.387 N 
HETATM   20  H4  UNL     1      17.785  -0.413  54.237  1.00  0.00     0.159 HD
BRANCH  19  21
HETATM   21  C2  UNL     1      18.093  -2.432  53.711  1.00  0.00     0.156 C 
BRANCH  21  22
HETATM   22  C1  UNL     1      16.854  -2.584  52.942  1.00  0.00     0.410 C 
HETATM   23  O1  UNL     1      15.806  -3.179  52.823  1.00  0.00    -0.428 OA
ENDBRANCH  21  22
ENDBRANCH  19  21
ENDBRANCH   1  19
TORSDOF 6
ENDMDL
