MODEL 1
REMARK VINA RESULT:      -7.9      0.000      0.000
REMARK  5 active torsions:
REMARK  status: ('A' for Active; 'I' for Inactive)
REMARK    1  A    between atoms: N1_2  and  C2_3 
REMARK    2  A    between atoms: C2_3  and  N2_4 
REMARK    3  A    between atoms: N2_4  and  C3_5 
REMARK    4  A    between atoms: C8_11  and  O1_12 
REMARK    5  A    between atoms: C14_19  and  N4_20 
ROOT
HETATM    1  C2  UNL     1      23.165   0.517  53.446  1.00  0.00     0.154 C 
HETATM    2  C9  UNL     1      23.695   1.456  52.687  1.00  0.00     0.107 A 
HETATM    3  N3  UNL     1      22.968   2.670  52.537  1.00  0.00    -0.259 NA
HETATM    4  C10 UNL     1      23.415   3.641  51.814  1.00  0.00     0.117 A 
HETATM    5  C11 UNL     1      24.684   3.580  51.100  1.00  0.00     0.024 A 
HETATM    6  C12 UNL     1      25.359   2.455  51.239  1.00  0.00    -0.053 A 
HETATM    7  C13 UNL     1      26.656   2.286  50.561  1.00  0.00     0.046 C 
HETATM    8  C14 UNL     1      25.005   1.234  52.025  1.00  0.00     0.179 A 
ENDROOT
BRANCH   1   9
HETATM    9  N1  UNL     1      23.674  -0.760  53.756  1.00  0.00    -0.252 NA
HETATM   10  C1  UNL     1      24.000  -1.073  54.967  1.00  0.00     0.151 C 
ENDBRANCH   1   9
BRANCH   1  11
HETATM   11  N2  UNL     1      21.918   0.680  54.101  1.00  0.00    -0.337 N 
HETATM   12  H3  UNL     1      21.806   1.142  55.045  1.00  0.00     0.167 HD
BRANCH  11  13
HETATM   13  C3  UNL     1      20.757   0.199  53.464  1.00  0.00     0.068 A 
HETATM   14  C4  UNL     1      20.183   0.881  52.410  1.00  0.00     0.051 A 
HETATM   15  C5  UNL     1      19.047   0.466  51.743  1.00  0.00     0.013 A 
HETATM   16 BR1  UNL     1      18.290   1.443  50.290  1.00  0.00    -0.051 Br
HETATM   17  C6  UNL     1      18.459  -0.695  52.157  1.00  0.00     0.022 A 
HETATM   18  C7  UNL     1      18.985  -1.436  53.216  1.00  0.00     0.040 A 
HETATM   19  C8  UNL     1      20.133  -0.979  53.861  1.00  0.00     0.092 A 
BRANCH  19  20
HETATM   20  O1  UNL     1      20.706  -1.669  54.919  1.00  0.00    -0.358 OA
HETATM   21  H7  UNL     1      21.601  -2.128  54.889  1.00  0.00     0.217 HD
ENDBRANCH  19  20
ENDBRANCH  11  13
ENDBRANCH   1  11
BRANCH   8  22
HETATM   22  N4  UNL     1      26.053   0.841  52.914  1.00  0.00    -0.283 N 
HETATM   23  C15 UNL     1      26.787  -0.355  52.706  1.00  0.00     0.010 C 
HETATM   24  C16 UNL     1      26.475  -1.231  51.768  1.00  0.00     0.038 C 
HETATM   25  C17 UNL     1      27.976  -0.833  53.456  1.00  0.00     0.083 C 
HETATM   26  C18 UNL     1      28.402   0.081  54.539  1.00  0.00     0.186 C 
HETATM   27  O2  UNL     1      27.501   1.106  54.865  1.00  0.00    -0.303 OA
HETATM   28  C19 UNL     1      26.471   1.569  54.063  1.00  0.00     0.368 C 
HETATM   29  O3  UNL     1      25.847   2.658  54.303  1.00  0.00    -0.238 OA
ENDBRANCH   8  22
TORSDOF 5
ENDMDL
MODEL 2
REMARK VINA RESULT:      -7.4      3.094      6.743
REMARK  5 active torsions:
REMARK  status: ('A' for Active; 'I' for Inactive)
REMARK    1  A    between atoms: N1_2  and  C2_3 
REMARK    2  A    between atoms: C2_3  and  N2_4 
REMARK    3  A    between atoms: N2_4  and  C3_5 
REMARK    4  A    between atoms: C8_11  and  O1_12 
REMARK    5  A    between atoms: C14_19  and  N4_20 
ROOT
HETATM    1  C2  UNL     1      24.760   2.056  52.432  1.00  0.00     0.154 C 
HETATM    2  C9  UNL     1      23.659   1.411  52.100  1.00  0.00     0.107 A 
HETATM    3  N3  UNL     1      23.179   0.421  53.002  1.00  0.00    -0.259 NA
HETATM    4  C10 UNL     1      22.108  -0.256  52.755  1.00  0.00     0.117 A 
HETATM    5  C11 UNL     1      21.310  -0.068  51.551  1.00  0.00     0.024 A 
HETATM    6  C12 UNL     1      21.754   0.851  50.714  1.00  0.00    -0.053 A 
HETATM    7  C13 UNL     1      21.023   1.123  49.464  1.00  0.00     0.046 C 
HETATM    8  C14 UNL     1      22.962   1.724  50.827  1.00  0.00     0.179 A 
ENDROOT
BRANCH   1   9
HETATM    9  N1  UNL     1      25.436   3.071  51.725  1.00  0.00    -0.252 NA
HETATM   10  C1  UNL     1      26.367   2.786  50.874  1.00  0.00     0.151 C 
ENDBRANCH   1   9
BRANCH   1  11
HETATM   11  N2  UNL     1      25.463   1.796  53.636  1.00  0.00    -0.337 N 
HETATM   12  H3  UNL     1      25.123   2.096  54.591  1.00  0.00     0.167 HD
BRANCH  11  13
HETATM   13  C3  UNL     1      26.686   1.099  53.562  1.00  0.00     0.068 A 
HETATM   14  C4  UNL     1      26.727  -0.245  53.255  1.00  0.00     0.051 A 
HETATM   15  C5  UNL     1      27.889  -0.986  53.167  1.00  0.00     0.013 A 
HETATM   16 BR1  UNL     1      27.896  -2.845  52.738  1.00  0.00    -0.051 Br
HETATM   17  C6  UNL     1      29.069  -0.342  53.401  1.00  0.00     0.022 A 
HETATM   18  C7  UNL     1      29.103   1.018  53.717  1.00  0.00     0.040 A 
HETATM   19  C8  UNL     1      27.905   1.727  53.795  1.00  0.00     0.092 A 
BRANCH  19  20
HETATM   20  O1  UNL     1      27.870   3.078  54.105  1.00  0.00    -0.358 OA
HETATM   21  H7  UNL     1      28.559   3.752  53.816  1.00  0.00     0.217 HD
ENDBRANCH  19  20
ENDBRANCH  11  13
ENDBRANCH   1  11
BRANCH   8  22
HETATM   22  N4  UNL     1      22.646   3.108  50.656  1.00  0.00    -0.283 N 
HETATM   23  C15 UNL     1      23.060   3.821  49.502  1.00  0.00     0.010 C 
HETATM   24  C16 UNL     1      23.854   3.299  48.585  1.00  0.00     0.038 C 
HETATM   25  C17 UNL     1      22.706   5.211  49.119  1.00  0.00     0.083 C 
HETATM   26  C18 UNL     1      21.818   5.888  50.090  1.00  0.00     0.186 C 
HETATM   27  O2  UNL     1      21.652   5.239  51.323  1.00  0.00    -0.303 OA
HETATM   28  C19 UNL     1      21.910   3.902  51.579  1.00  0.00     0.368 C 
HETATM   29  O3  UNL     1      21.508   3.314  52.640  1.00  0.00    -0.238 OA
ENDBRANCH   8  22
TORSDOF 5
ENDMDL
MODEL 3
REMARK VINA RESULT:      -7.1      3.987      6.723
REMARK  5 active torsions:
REMARK  status: ('A' for Active; 'I' for Inactive)
REMARK    1  A    between atoms: N1_2  and  C2_3 
REMARK    2  A    between atoms: C2_3  and  N2_4 
REMARK    3  A    between atoms: N2_4  and  C3_5 
REMARK    4  A    between atoms: C8_11  and  O1_12 
REMARK    5  A    between atoms: C14_19  and  N4_20 
ROOT
HETATM    1  C2  UNL     1      23.334   2.987  51.678  1.00  0.00     0.154 C 
HETATM    2  C9  UNL     1      22.723   2.501  50.616  1.00  0.00     0.107 A 
HETATM    3  N3  UNL     1      22.130   1.212  50.729  1.00  0.00    -0.259 NA
HETATM    4  C10 UNL     1      21.511   0.664  49.738  1.00  0.00     0.117 A 
HETATM    5  C11 UNL     1      21.366   1.307  48.439  1.00  0.00     0.024 A 
HETATM    6  C12 UNL     1      21.915   2.503  48.333  1.00  0.00    -0.053 A 
HETATM    7  C13 UNL     1      21.828   3.243  47.063  1.00  0.00     0.046 C 
HETATM    8  C14 UNL     1      22.665   3.289  49.359  1.00  0.00     0.179 A 
ENDROOT
BRANCH   1   9
HETATM    9  N1  UNL     1      23.993   4.223  51.830  1.00  0.00    -0.252 NA
HETATM   10  C1  UNL     1      23.587   5.095  52.695  1.00  0.00     0.151 C 
ENDBRANCH   1   9
BRANCH   1  11
HETATM   11  N2  UNL     1      23.417   2.275  52.903  1.00  0.00    -0.337 N 
HETATM   12  H3  UNL     1      22.668   2.303  53.649  1.00  0.00     0.167 HD
BRANCH  11  13
HETATM   13  C3  UNL     1      24.558   1.485  53.145  1.00  0.00     0.068 A 
HETATM   14  C4  UNL     1      25.805   2.056  53.297  1.00  0.00     0.051 A 
HETATM   15  C5  UNL     1      26.962   1.341  53.535  1.00  0.00     0.013 A 
HETATM   16 BR1  UNL     1      28.666   2.175  53.739  1.00  0.00    -0.051 Br
HETATM   17  C6  UNL     1      26.859  -0.017  53.625  1.00  0.00     0.022 A 
HETATM   18  C7  UNL     1      25.630  -0.663  53.481  1.00  0.00     0.040 A 
HETATM   19  C8  UNL     1      24.487   0.100  53.242  1.00  0.00     0.092 A 
BRANCH  19  20
HETATM   20  O1  UNL     1      23.236  -0.479  53.089  1.00  0.00    -0.358 OA
HETATM   21  H7  UNL     1      22.400  -0.172  53.558  1.00  0.00     0.217 HD
ENDBRANCH  19  20
ENDBRANCH  11  13
ENDBRANCH   1  11
BRANCH   8  22
HETATM   22  N4  UNL     1      22.140   4.609  49.517  1.00  0.00    -0.283 N 
HETATM   23  C15 UNL     1      22.873   5.750  49.099  1.00  0.00     0.010 C 
HETATM   24  C16 UNL     1      24.116   5.678  48.658  1.00  0.00     0.038 C 
HETATM   25  C17 UNL     1      22.419   7.163  49.077  1.00  0.00     0.083 C 
HETATM   26  C18 UNL     1      21.033   7.350  49.560  1.00  0.00     0.186 C 
HETATM   27  O2  UNL     1      20.452   6.242  50.196  1.00  0.00    -0.303 OA
HETATM   28  C19 UNL     1      20.875   4.927  50.086  1.00  0.00     0.368 C 
HETATM   29  O3  UNL     1      20.166   3.940  50.482  1.00  0.00    -0.238 OA
ENDBRANCH   8  22
TORSDOF 5
ENDMDL
MODEL 4
REMARK VINA RESULT:      -7.1      3.553      6.810
REMARK  5 active torsions:
REMARK  status: ('A' for Active; 'I' for Inactive)
REMARK    1  A    between atoms: N1_2  and  C2_3 
REMARK    2  A    between atoms: C2_3  and  N2_4 
REMARK    3  A    between atoms: N2_4  and  C3_5 
REMARK    4  A    between atoms: C8_11  and  O1_12 
REMARK    5  A    between atoms: C14_19  and  N4_20 
ROOT
HETATM    1  C2  UNL     1      22.797   1.805  52.307  1.00  0.00     0.154 C 
HETATM    2  C9  UNL     1      21.614   1.223  52.285  1.00  0.00     0.107 A 
HETATM    3  N3  UNL     1      21.174   0.582  53.477  1.00  0.00    -0.259 NA
HETATM    4  C10 UNL     1      20.029  -0.010  53.542  1.00  0.00     0.117 A 
HETATM    5  C11 UNL     1      19.102  -0.072  52.421  1.00  0.00     0.024 A 
HETATM    6  C12 UNL     1      19.509   0.523  51.315  1.00  0.00    -0.053 A 
HETATM    7  C13 UNL     1      18.650   0.521  50.119  1.00  0.00     0.046 C 
HETATM    8  C14 UNL     1      20.788   1.250  51.052  1.00  0.00     0.179 A 
ENDROOT
BRANCH   1   9
HETATM    9  N1  UNL     1      23.458   2.501  51.275  1.00  0.00    -0.252 NA
HETATM   10  C1  UNL     1      23.724   3.762  51.382  1.00  0.00     0.151 C 
ENDBRANCH   1   9
BRANCH   1  11
HETATM   11  N2  UNL     1      23.624   1.809  53.459  1.00  0.00    -0.337 N 
HETATM   12  H3  UNL     1      23.366   2.289  54.365  1.00  0.00     0.167 HD
BRANCH  11  13
HETATM   13  C3  UNL     1      24.862   1.139  53.399  1.00  0.00     0.068 A 
HETATM   14  C4  UNL     1      26.054   1.824  53.512  1.00  0.00     0.051 A 
HETATM   15  C5  UNL     1      27.300   1.230  53.461  1.00  0.00     0.013 A 
HETATM   16 BR1  UNL     1      28.923   2.220  53.623  1.00  0.00    -0.051 Br
HETATM   17  C6  UNL     1      27.348  -0.123  53.288  1.00  0.00     0.022 A 
HETATM   18  C7  UNL     1      26.182  -0.881  53.167  1.00  0.00     0.040 A 
HETATM   19  C8  UNL     1      24.946  -0.239  53.224  1.00  0.00     0.092 A 
BRANCH  19  20
HETATM   20  O1  UNL     1      23.751  -0.933  53.109  1.00  0.00    -0.358 OA
HETATM   21  H7  UNL     1      23.056  -0.767  52.401  1.00  0.00     0.217 HD
ENDBRANCH  19  20
ENDBRANCH  11  13
ENDBRANCH   1  11
BRANCH   8  22
HETATM   22  N4  UNL     1      20.566   2.559  50.522  1.00  0.00    -0.283 N 
HETATM   23  C15 UNL     1      20.890   2.875  49.178  1.00  0.00     0.010 C 
HETATM   24  C16 UNL     1      21.520   2.034  48.377  1.00  0.00     0.038 C 
HETATM   25  C17 UNL     1      20.605   4.136  48.448  1.00  0.00     0.083 C 
HETATM   26  C18 UNL     1      19.903   5.150  49.265  1.00  0.00     0.186 C 
HETATM   27  O2  UNL     1      19.839   4.889  50.642  1.00  0.00    -0.303 OA
HETATM   28  C19 UNL     1      20.017   3.655  51.245  1.00  0.00     0.368 C 
HETATM   29  O3  UNL     1      19.704   3.432  52.464  1.00  0.00    -0.238 OA
ENDBRANCH   8  22
TORSDOF 5
ENDMDL
MODEL 5
REMARK VINA RESULT:      -7.1      9.513     12.790
REMARK  5 active torsions:
REMARK  status: ('A' for Active; 'I' for Inactive)
REMARK    1  A    between atoms: N1_2  and  C2_3 
REMARK    2  A    between atoms: C2_3  and  N2_4 
REMARK    3  A    between atoms: N2_4  and  C3_5 
REMARK    4  A    between atoms: C8_11  and  O1_12 
REMARK    5  A    between atoms: C14_19  and  N4_20 
ROOT
HETATM    1  C2  UNL     1      29.534   8.925  48.526  1.00  0.00     0.154 C 
HETATM    2  C9  UNL     1      28.337   8.516  48.153  1.00  0.00     0.107 A 
HETATM    3  N3  UNL     1      27.797   7.374  48.808  1.00  0.00    -0.259 NA
HETATM    4  C10 UNL     1      26.632   6.909  48.505  1.00  0.00     0.117 A 
HETATM    5  C11 UNL     1      25.781   7.503  47.483  1.00  0.00     0.024 A 
HETATM    6  C12 UNL     1      26.281   8.563  46.874  1.00  0.00    -0.053 A 
HETATM    7  C13 UNL     1      25.505   9.243  45.823  1.00  0.00     0.046 C 
HETATM    8  C14 UNL     1      27.598   9.238  47.087  1.00  0.00     0.179 A 
ENDROOT
BRANCH   1   9
HETATM    9  N1  UNL     1      30.285  10.015  48.044  1.00  0.00    -0.252 NA
HETATM   10  C1  UNL     1      30.588  11.010  48.813  1.00  0.00     0.151 C 
ENDBRANCH   1   9
BRANCH   1  11
HETATM   11  N2  UNL     1      30.281   8.272  49.539  1.00  0.00    -0.337 N 
HETATM   12  H3  UNL     1      30.080   8.371  50.573  1.00  0.00     0.167 HD
BRANCH  11  13
HETATM   13  C3  UNL     1      31.354   7.444  49.155  1.00  0.00     0.068 A 
HETATM   14  C4  UNL     1      32.609   7.963  48.916  1.00  0.00     0.051 A 
HETATM   15  C5  UNL     1      33.702   7.209  48.536  1.00  0.00     0.013 A 
HETATM   16 BR1  UNL     1      35.422   7.973  48.218  1.00  0.00    -0.051 Br
HETATM   17  C6  UNL     1      33.523   5.864  48.389  1.00  0.00     0.022 A 
HETATM   18  C7  UNL     1      32.280   5.270  48.614  1.00  0.00     0.040 A 
HETATM   19  C8  UNL     1      31.204   6.070  48.996  1.00  0.00     0.092 A 
BRANCH  19  20
HETATM   20  O1  UNL     1      29.944   5.543  49.234  1.00  0.00    -0.358 OA
HETATM   21  H7  UNL     1      29.160   6.065  49.587  1.00  0.00     0.217 HD
ENDBRANCH  19  20
ENDBRANCH  11  13
ENDBRANCH   1  11
BRANCH   8  22
HETATM   22  N4  UNL     1      27.454  10.641  47.318  1.00  0.00    -0.283 N 
HETATM   23  C15 UNL     1      27.899  11.595  46.367  1.00  0.00     0.010 C 
HETATM   24  C16 UNL     1      28.574  11.261  45.282  1.00  0.00     0.038 C 
HETATM   25  C17 UNL     1      27.708  13.067  46.401  1.00  0.00     0.083 C 
HETATM   26  C18 UNL     1      26.964  13.543  47.587  1.00  0.00     0.186 C 
HETATM   27  O2  UNL     1      26.776  12.602  48.611  1.00  0.00    -0.303 OA
HETATM   28  C19 UNL     1      26.872  11.226  48.478  1.00  0.00     0.368 C 
HETATM   29  O3  UNL     1      26.451  10.417  49.372  1.00  0.00    -0.238 OA
ENDBRANCH   8  22
TORSDOF 5
ENDMDL
MODEL 6
REMARK VINA RESULT:      -6.9      4.029      7.296
REMARK  5 active torsions:
REMARK  status: ('A' for Active; 'I' for Inactive)
REMARK    1  A    between atoms: N1_2  and  C2_3 
REMARK    2  A    between atoms: C2_3  and  N2_4 
REMARK    3  A    between atoms: N2_4  and  C3_5 
REMARK    4  A    between atoms: C8_11  and  O1_12 
REMARK    5  A    between atoms: C14_19  and  N4_20 
ROOT
HETATM    1  C2  UNL     1      23.782   4.300  50.930  1.00  0.00     0.154 C 
HETATM    2  C9  UNL     1      22.468   4.203  50.975  1.00  0.00     0.107 A 
HETATM    3  N3  UNL     1      21.880   3.788  52.203  1.00  0.00    -0.259 NA
HETATM    4  C10 UNL     1      20.602   3.669  52.334  1.00  0.00     0.117 A 
HETATM    5  C11 UNL     1      19.664   3.944  51.254  1.00  0.00     0.024 A 
HETATM    6  C12 UNL     1      20.208   4.329  50.114  1.00  0.00    -0.053 A 
HETATM    7  C13 UNL     1      19.352   4.633  48.955  1.00  0.00     0.046 C 
HETATM    8  C14 UNL     1      21.652   4.521  49.777  1.00  0.00     0.179 A 
ENDROOT
BRANCH   1   9
HETATM    9  N1  UNL     1      24.603   4.684  49.851  1.00  0.00    -0.252 NA
HETATM   10  C1  UNL     1      25.338   5.747  49.916  1.00  0.00     0.151 C 
ENDBRANCH   1   9
BRANCH   1  11
HETATM   11  N2  UNL     1      24.607   4.009  52.046  1.00  0.00    -0.337 N 
HETATM   12  H3  UNL     1      24.917   4.733  52.753  1.00  0.00     0.167 HD
BRANCH  11  13
HETATM   13  C3  UNL     1      25.045   2.682  52.230  1.00  0.00     0.068 A 
HETATM   14  C4  UNL     1      24.250   1.747  52.861  1.00  0.00     0.051 A 
HETATM   15  C5  UNL     1      24.618   0.433  53.074  1.00  0.00     0.013 A 
HETATM   16 BR1  UNL     1      23.484  -0.825  53.953  1.00  0.00    -0.051 Br
HETATM   17  C6  UNL     1      25.846   0.039  52.629  1.00  0.00     0.022 A 
HETATM   18  C7  UNL     1      26.703   0.932  51.982  1.00  0.00     0.040 A 
HETATM   19  C8  UNL     1      26.291   2.250  51.789  1.00  0.00     0.092 A 
BRANCH  19  20
HETATM   20  O1  UNL     1      27.093   3.185  51.154  1.00  0.00    -0.358 OA
HETATM   21  H7  UNL     1      26.851   4.152  51.018  1.00  0.00     0.217 HD
ENDBRANCH  19  20
ENDBRANCH  11  13
ENDBRANCH   1  11
BRANCH   8  22
HETATM   22  N4  UNL     1      21.908   5.811  49.217  1.00  0.00    -0.283 N 
HETATM   23  C15 UNL     1      22.246   5.967  47.848  1.00  0.00     0.010 C 
HETATM   24  C16 UNL     1      22.463   4.942  47.044  1.00  0.00     0.038 C 
HETATM   25  C17 UNL     1      22.414   7.234  47.094  1.00  0.00     0.083 C 
HETATM   26  C18 UNL     1      22.196   8.447  47.912  1.00  0.00     0.186 C 
HETATM   27  O2  UNL     1      22.121   8.244  49.299  1.00  0.00    -0.303 OA
HETATM   28  C19 UNL     1      21.857   7.041  49.931  1.00  0.00     0.368 C 
HETATM   29  O3  UNL     1      21.557   6.965  51.171  1.00  0.00    -0.238 OA
ENDBRANCH   8  22
TORSDOF 5
ENDMDL
MODEL 7
REMARK VINA RESULT:      -6.9      4.185      8.004
REMARK  5 active torsions:
REMARK  status: ('A' for Active; 'I' for Inactive)
REMARK    1  A    between atoms: N1_2  and  C2_3 
REMARK    2  A    between atoms: C2_3  and  N2_4 
REMARK    3  A    between atoms: N2_4  and  C3_5 
REMARK    4  A    between atoms: C8_11  and  O1_12 
REMARK    5  A    between atoms: C14_19  and  N4_20 
ROOT
HETATM    1  C2  UNL     1      23.907   4.442  50.280  1.00  0.00     0.154 C 
HETATM    2  C9  UNL     1      23.696   3.360  51.004  1.00  0.00     0.107 A 
HETATM    3  N3  UNL     1      24.498   3.179  52.165  1.00  0.00    -0.259 NA
HETATM    4  C10 UNL     1      24.357   2.149  52.930  1.00  0.00     0.117 A 
HETATM    5  C11 UNL     1      23.378   1.100  52.677  1.00  0.00     0.024 A 
HETATM    6  C12 UNL     1      22.633   1.268  51.600  1.00  0.00    -0.053 A 
HETATM    7  C13 UNL     1      21.611   0.267  51.249  1.00  0.00     0.046 C 
HETATM    8  C14 UNL     1      22.653   2.383  50.604  1.00  0.00     0.179 A 
ENDROOT
BRANCH   1   9
HETATM    9  N1  UNL     1      23.258   4.855  49.100  1.00  0.00    -0.252 NA
HETATM   10  C1  UNL     1      22.514   5.912  49.081  1.00  0.00     0.151 C 
ENDBRANCH   1   9
BRANCH   1  11
HETATM   11  N2  UNL     1      24.890   5.407  50.619  1.00  0.00    -0.337 N 
HETATM   12  H3  UNL     1      24.882   5.961  51.520  1.00  0.00     0.167 HD
BRANCH  11  13
HETATM   13  C3  UNL     1      25.937   5.647  49.708  1.00  0.00     0.068 A 
HETATM   14  C4  UNL     1      25.982   6.803  48.957  1.00  0.00     0.051 A 
HETATM   15  C5  UNL     1      26.978   7.100  48.047  1.00  0.00     0.013 A 
HETATM   16 BR1  UNL     1      26.998   8.714  47.029  1.00  0.00    -0.051 Br
HETATM   17  C6  UNL     1      27.980   6.187  47.885  1.00  0.00     0.022 A 
HETATM   18  C7  UNL     1      27.999   4.995  48.612  1.00  0.00     0.040 A 
HETATM   19  C8  UNL     1      26.973   4.737  49.520  1.00  0.00     0.092 A 
BRANCH  19  20
HETATM   20  O1  UNL     1      26.932   3.573  50.273  1.00  0.00    -0.358 OA
HETATM   21  H7  UNL     1      26.104   3.028  50.444  1.00  0.00     0.217 HD
ENDBRANCH  19  20
ENDBRANCH  11  13
ENDBRANCH   1  11
BRANCH   8  22
HETATM   22  N4  UNL     1      21.358   2.953  50.406  1.00  0.00    -0.283 N 
HETATM   23  C15 UNL     1      20.654   2.780  49.187  1.00  0.00     0.010 C 
HETATM   24  C16 UNL     1      21.189   2.197  48.130  1.00  0.00     0.038 C 
HETATM   25  C17 UNL     1      19.263   3.196  48.875  1.00  0.00     0.083 C 
HETATM   26  C18 UNL     1      18.577   3.868  50.000  1.00  0.00     0.186 C 
HETATM   27  O2  UNL     1      19.392   4.241  51.080  1.00  0.00    -0.303 OA
HETATM   28  C19 UNL     1      20.647   3.729  51.365  1.00  0.00     0.368 C 
HETATM   29  O3  UNL     1      21.231   3.920  52.486  1.00  0.00    -0.238 OA
ENDBRANCH   8  22
TORSDOF 5
ENDMDL
MODEL 8
REMARK VINA RESULT:      -6.9      9.528     12.786
REMARK  5 active torsions:
REMARK  status: ('A' for Active; 'I' for Inactive)
REMARK    1  A    between atoms: N1_2  and  C2_3 
REMARK    2  A    between atoms: C2_3  and  N2_4 
REMARK    3  A    between atoms: N2_4  and  C3_5 
REMARK    4  A    between atoms: C8_11  and  O1_12 
REMARK    5  A    between atoms: C14_19  and  N4_20 
ROOT
HETATM    1  C2  UNL     1      31.751   6.894  47.752  1.00  0.00     0.154 C 
HETATM    2  C9  UNL     1      30.435   6.806  47.755  1.00  0.00     0.107 A 
HETATM    3  N3  UNL     1      29.847   5.762  48.523  1.00  0.00    -0.259 NA
HETATM    4  C10 UNL     1      28.568   5.605  48.582  1.00  0.00     0.117 A 
HETATM    5  C11 UNL     1      27.629   6.469  47.880  1.00  0.00     0.024 A 
HETATM    6  C12 UNL     1      28.173   7.438  47.166  1.00  0.00    -0.053 A 
HETATM    7  C13 UNL     1      27.315   8.370  46.416  1.00  0.00     0.046 C 
HETATM    8  C14 UNL     1      29.617   7.772  46.979  1.00  0.00     0.179 A 
ENDROOT
BRANCH   1   9
HETATM    9  N1  UNL     1      32.572   7.824  47.083  1.00  0.00    -0.252 NA
HETATM   10  C1  UNL     1      33.272   8.691  47.739  1.00  0.00     0.151 C 
ENDBRANCH   1   9
BRANCH   1  11
HETATM   11  N2  UNL     1      32.577   5.998  48.477  1.00  0.00    -0.337 N 
HETATM   12  H3  UNL     1      32.788   6.098  49.508  1.00  0.00     0.167 HD
BRANCH  11  13
HETATM   13  C3  UNL     1      33.154   4.912  47.789  1.00  0.00     0.068 A 
HETATM   14  C4  UNL     1      32.444   3.753  47.557  1.00  0.00     0.051 A 
HETATM   15  C5  UNL     1      32.949   2.653  46.892  1.00  0.00     0.013 A 
HETATM   16 BR1  UNL     1      31.928   1.069  46.593  1.00  0.00    -0.051 Br
HETATM   17  C6  UNL     1      34.234   2.723  46.437  1.00  0.00     0.022 A 
HETATM   18  C7  UNL     1      35.012   3.865  46.637  1.00  0.00     0.040 A 
HETATM   19  C8  UNL     1      34.461   4.952  47.313  1.00  0.00     0.092 A 
BRANCH  19  20
HETATM   20  O1  UNL     1      35.180   6.116  47.545  1.00  0.00    -0.358 OA
HETATM   21  H7  UNL     1      34.883   7.038  47.272  1.00  0.00     0.217 HD
ENDBRANCH  19  20
ENDBRANCH  11  13
ENDBRANCH   1  11
BRANCH   8  22
HETATM   22  N4  UNL     1      29.896   9.143  47.268  1.00  0.00    -0.283 N 
HETATM   23  C15 UNL     1      30.271  10.052  46.245  1.00  0.00     0.010 C 
HETATM   24  C16 UNL     1      30.503   9.672  45.001  1.00  0.00     0.038 C 
HETATM   25  C17 UNL     1      30.467  11.519  46.361  1.00  0.00     0.083 C 
HETATM   26  C18 UNL     1      30.235  12.044  47.724  1.00  0.00     0.186 C 
HETATM   27  O2  UNL     1      30.122  11.082  48.740  1.00  0.00    -0.303 OA
HETATM   28  C19 UNL     1      29.834   9.739  48.559  1.00  0.00     0.368 C 
HETATM   29  O3  UNL     1      29.501   8.970  49.524  1.00  0.00    -0.238 OA
ENDBRANCH   8  22
TORSDOF 5
ENDMDL
MODEL 9
REMARK VINA RESULT:      -6.7      5.998      9.164
REMARK  5 active torsions:
REMARK  status: ('A' for Active; 'I' for Inactive)
REMARK    1  A    between atoms: N1_2  and  C2_3 
REMARK    2  A    between atoms: C2_3  and  N2_4 
REMARK    3  A    between atoms: N2_4  and  C3_5 
REMARK    4  A    between atoms: C8_11  and  O1_12 
REMARK    5  A    between atoms: C14_19  and  N4_20 
ROOT
HETATM    1  C2  UNL     1      25.334   5.475  49.626  1.00  0.00     0.154 C 
HETATM    2  C9  UNL     1      24.180   5.995  49.995  1.00  0.00     0.107 A 
HETATM    3  N3  UNL     1      24.197   7.300  50.562  1.00  0.00    -0.259 NA
HETATM    4  C10 UNL     1      23.112   7.883  50.948  1.00  0.00     0.117 A 
HETATM    5  C11 UNL     1      21.797   7.267  50.838  1.00  0.00     0.024 A 
HETATM    6  C12 UNL     1      21.780   6.056  50.312  1.00  0.00    -0.053 A 
HETATM    7  C13 UNL     1      20.503   5.340  50.154  1.00  0.00     0.046 C 
HETATM    8  C14 UNL     1      22.921   5.229  49.814  1.00  0.00     0.179 A 
ENDROOT
BRANCH   1   9
HETATM    9  N1  UNL     1      25.591   4.217  49.045  1.00  0.00    -0.252 NA
HETATM   10  C1  UNL     1      26.273   3.317  49.675  1.00  0.00     0.151 C 
ENDBRANCH   1   9
BRANCH   1  11
HETATM   11  N2  UNL     1      26.564   6.165  49.776  1.00  0.00    -0.337 N 
HETATM   12  H3  UNL     1      27.069   6.272  50.700  1.00  0.00     0.167 HD
BRANCH  11  13
HETATM   13  C3  UNL     1      27.152   6.746  48.635  1.00  0.00     0.068 A 
HETATM   14  C4  UNL     1      26.448   7.619  47.832  1.00  0.00     0.051 A 
HETATM   15  C5  UNL     1      26.963   8.221  46.701  1.00  0.00     0.013 A 
HETATM   16 BR1  UNL     1      25.949   9.424  45.621  1.00  0.00    -0.051 Br
HETATM   17  C6  UNL     1      28.252   7.931  46.361  1.00  0.00     0.022 A 
HETATM   18  C7  UNL     1      29.025   7.055  47.127  1.00  0.00     0.040 A 
HETATM   19  C8  UNL     1      28.463   6.470  48.261  1.00  0.00     0.092 A 
BRANCH  19  20
HETATM   20  O1  UNL     1      29.176   5.593  49.065  1.00  0.00    -0.358 OA
HETATM   21  H7  UNL     1      29.359   4.629  48.841  1.00  0.00     0.217 HD
ENDBRANCH  19  20
ENDBRANCH  11  13
ENDBRANCH   1  11
BRANCH   8  22
HETATM   22  N4  UNL     1      22.706   4.759  48.482  1.00  0.00    -0.283 N 
HETATM   23  C15 UNL     1      22.515   3.380  48.208  1.00  0.00     0.010 C 
HETATM   24  C16 UNL     1      22.644   2.444  49.130  1.00  0.00     0.038 C 
HETATM   25  C17 UNL     1      22.157   2.754  46.910  1.00  0.00     0.083 C 
HETATM   26  C18 UNL     1      21.995   3.725  45.806  1.00  0.00     0.186 C 
HETATM   27  O2  UNL     1      22.443   5.029  46.067  1.00  0.00    -0.303 OA
HETATM   28  C19 UNL     1      22.658   5.579  47.319  1.00  0.00     0.368 C 
HETATM   29  O3  UNL     1      22.823   6.833  47.502  1.00  0.00    -0.238 OA
ENDBRANCH   8  22
TORSDOF 5
ENDMDL
