MODEL 1
REMARK VINA RESULT:     -10.2      0.000      0.000
REMARK  5 active torsions:
REMARK  status: ('A' for Active; 'I' for Inactive)
REMARK    1  A    between atoms: N1_1  and  C1_2 
REMARK    2  A    between atoms: C3_4  and  N2_5 
REMARK    3  A    between atoms: C7_9  and  O1_10 
REMARK    4  A    between atoms: O1_10  and  C8_11 
REMARK    5  A    between atoms: C8_11  and  C9_12 
ROOT
HETATM    1  N2  UNL     1      26.459   0.993  52.897  1.00  0.00    -0.285 N 
HETATM    2  C4  UNL     1      26.570   1.927  51.903  1.00  0.00     0.019 C 
HETATM    3  C5  UNL     1      26.660   2.734  51.073  1.00  0.00    -0.052 C 
HETATM    4  C6  UNL     1      26.756   3.718  50.096  1.00  0.00     0.102 C 
HETATM    5  C7  UNL     1      25.681   4.148  49.490  1.00  0.00     0.077 C 
HETATM    6  C15 UNL     1      24.225   3.765  49.552  1.00  0.00     0.037 C 
HETATM    7  C16 UNL     1      23.109   4.124  49.029  1.00  0.00     0.005 C 
HETATM    8  C17 UNL     1      21.998   3.242  49.570  1.00  0.00     0.025 C 
HETATM    9  C18 UNL     1      21.330   2.286  50.241  1.00  0.00     0.008 C 
HETATM   10  C19 UNL     1      20.041   1.540  50.662  1.00  0.00     0.076 C 
HETATM   11  C20 UNL     1      20.928   0.446  50.035  1.00  0.00     0.128 C 
HETATM   12  N3  UNL     1      21.897   1.112  51.007  1.00  0.00    -0.383 N 
HETATM   13  C21 UNL     1      22.659   0.355  51.933  1.00  0.00     0.127 C 
HETATM   14  C22 UNL     1      23.245   0.984  53.151  1.00  0.00     0.007 C 
HETATM   15  C23 UNL     1      24.303   0.115  53.778  1.00  0.00     0.033 C 
HETATM   16  C24 UNL     1      25.257   1.246  53.722  1.00  0.00     0.102 C 
HETATM   17  C25 UNL     1      24.247   2.026  52.910  1.00  0.00     0.033 C 
ENDROOT
BRANCH   1  18
HETATM   18  C3  UNL     1      27.427  -0.038  53.051  1.00  0.00     0.142 A 
HETATM   19  C2  UNL     1      27.451  -1.394  52.922  1.00  0.00     0.095 A 
HETATM   20  C1  UNL     1      28.622  -2.067  53.146  1.00  0.00     0.105 A 
HETATM   21  N5  UNL     1      29.737  -1.416  53.486  1.00  0.00    -0.230 NA
HETATM   22  C26 UNL     1      29.738  -0.087  53.618  1.00  0.00     0.237 A 
HETATM   23  N4  UNL     1      28.597   0.583  53.401  1.00  0.00    -0.224 NA
BRANCH  20  24
HETATM   24  N1  UNL     1      28.473  -3.478  52.989  1.00  0.00    -0.287 NA
HETATM   25  H1  UNL     1      28.132  -4.285  52.432  1.00  0.00     0.125 HD
HETATM   26  H2  UNL     1      28.003  -3.900  52.162  1.00  0.00     0.125 HD
ENDBRANCH  20  24
ENDBRANCH   1  18
BRANCH   5  27
HETATM   27  O1  UNL     1      25.742   5.158  48.514  1.00  0.00    -0.346 OA
BRANCH  27  28
HETATM   28  C8  UNL     1      26.424   6.329  48.972  1.00  0.00     0.214 C 
BRANCH  28  29
HETATM   29  C9  UNL     1      27.570   6.735  48.172  1.00  0.00    -0.034 A 
HETATM   30  C10 UNL     1      28.811   6.097  48.293  1.00  0.00     0.009 A 
HETATM   31  C11 UNL     1      29.833   6.585  47.491  1.00  0.00     0.001 A 
HETATM   32  C12 UNL     1      29.700   7.629  46.611  1.00  0.00     0.000 A 
HETATM   33  C13 UNL     1      28.465   8.271  46.485  1.00  0.00     0.001 A 
HETATM   34  C14 UNL     1      27.475   7.762  47.293  1.00  0.00     0.009 A 
ENDBRANCH  28  29
ENDBRANCH  27  28
ENDBRANCH   5  27
TORSDOF 5
ENDMDL
MODEL 2
REMARK VINA RESULT:      -9.8      3.274      7.539
REMARK  5 active torsions:
REMARK  status: ('A' for Active; 'I' for Inactive)
REMARK    1  A    between atoms: N1_1  and  C1_2 
REMARK    2  A    between atoms: C3_4  and  N2_5 
REMARK    3  A    between atoms: C7_9  and  O1_10 
REMARK    4  A    between atoms: O1_10  and  C8_11 
REMARK    5  A    between atoms: C8_11  and  C9_12 
ROOT
HETATM    1  N2  UNL     1      26.008   1.424  51.995  1.00  0.00    -0.285 N 
HETATM    2  C4  UNL     1      24.770   1.133  52.500  1.00  0.00     0.019 C 
HETATM    3  C5  UNL     1      23.715   0.877  52.910  1.00  0.00    -0.052 C 
HETATM    4  C6  UNL     1      22.444   0.564  53.378  1.00  0.00     0.102 C 
HETATM    5  C7  UNL     1      21.427   1.325  53.073  1.00  0.00     0.077 C 
HETATM    6  C15 UNL     1      21.283   2.618  52.312  1.00  0.00     0.037 C 
HETATM    7  C16 UNL     1      20.353   3.423  51.944  1.00  0.00     0.005 C 
HETATM    8  C17 UNL     1      20.971   4.584  51.186  1.00  0.00     0.025 C 
HETATM    9  C18 UNL     1      21.861   5.412  50.608  1.00  0.00     0.008 C 
HETATM   10  C19 UNL     1      22.250   6.669  49.793  1.00  0.00     0.076 C 
HETATM   11  C20 UNL     1      22.999   6.834  51.131  1.00  0.00     0.128 C 
HETATM   12  N3  UNL     1      23.367   5.405  50.743  1.00  0.00    -0.383 N 
HETATM   13  C21 UNL     1      24.713   4.961  50.735  1.00  0.00     0.127 C 
HETATM   14  C22 UNL     1      25.128   3.760  49.955  1.00  0.00     0.007 C 
HETATM   15  C23 UNL     1      26.483   3.255  50.378  1.00  0.00     0.033 C 
HETATM   16  C24 UNL     1      25.906   1.911  50.601  1.00  0.00     0.102 C 
HETATM   17  C25 UNL     1      24.527   2.490  50.374  1.00  0.00     0.033 C 
ENDROOT
BRANCH   1  18
HETATM   18  C3  UNL     1      27.184   1.235  52.773  1.00  0.00     0.142 A 
HETATM   19  C2  UNL     1      28.041   2.031  53.474  1.00  0.00     0.095 A 
HETATM   20  C1  UNL     1      29.093   1.461  54.137  1.00  0.00     0.105 A 
HETATM   21  N5  UNL     1      29.293   0.140  54.107  1.00  0.00    -0.230 NA
HETATM   22  C26 UNL     1      28.468  -0.660  53.427  1.00  0.00     0.237 A 
HETATM   23  N4  UNL     1      27.432  -0.112  52.774  1.00  0.00    -0.224 NA
BRANCH  20  24
HETATM   24  N1  UNL     1      29.902   2.430  54.802  1.00  0.00    -0.287 NA
HETATM   25  H1  UNL     1      30.828   2.724  55.167  1.00  0.00     0.125 HD
HETATM   26  H2  UNL     1      30.917   2.286  54.975  1.00  0.00     0.125 HD
ENDBRANCH  20  24
ENDBRANCH   1  18
BRANCH   5  27
HETATM   27  O1  UNL     1      20.125   1.023  53.510  1.00  0.00    -0.346 OA
BRANCH  27  28
HETATM   28  C8  UNL     1      19.718  -0.302  53.160  1.00  0.00     0.214 C 
BRANCH  28  29
HETATM   29  C9  UNL     1      18.537  -0.388  52.314  1.00  0.00    -0.034 A 
HETATM   30  C10 UNL     1      17.377  -1.047  52.742  1.00  0.00     0.009 A 
HETATM   31  C11 UNL     1      16.322  -1.079  51.841  1.00  0.00     0.001 A 
HETATM   32  C12 UNL     1      16.351  -0.518  50.590  1.00  0.00     0.000 A 
HETATM   33  C13 UNL     1      17.504   0.140  50.156  1.00  0.00     0.001 A 
HETATM   34  C14 UNL     1      18.530   0.154  51.073  1.00  0.00     0.009 A 
ENDBRANCH  28  29
ENDBRANCH  27  28
ENDBRANCH   5  27
TORSDOF 5
ENDMDL
MODEL 3
REMARK VINA RESULT:      -9.5      3.970      7.554
REMARK  5 active torsions:
REMARK  status: ('A' for Active; 'I' for Inactive)
REMARK    1  A    between atoms: N1_1  and  C1_2 
REMARK    2  A    between atoms: C3_4  and  N2_5 
REMARK    3  A    between atoms: C7_9  and  O1_10 
REMARK    4  A    between atoms: O1_10  and  C8_11 
REMARK    5  A    between atoms: C8_11  and  C9_12 
ROOT
HETATM    1  N2  UNL     1      20.667   1.898  52.383  1.00  0.00    -0.285 N 
HETATM    2  C4  UNL     1      22.001   1.592  52.358  1.00  0.00     0.019 C 
HETATM    3  C5  UNL     1      23.135   1.347  52.351  1.00  0.00    -0.052 C 
HETATM    4  C6  UNL     1      24.499   1.074  52.358  1.00  0.00     0.102 C 
HETATM    5  C7  UNL     1      25.319   1.822  51.670  1.00  0.00     0.077 C 
HETATM    6  C15 UNL     1      25.133   2.987  50.732  1.00  0.00     0.037 C 
HETATM    7  C16 UNL     1      25.852   3.788  50.033  1.00  0.00     0.005 C 
HETATM    8  C17 UNL     1      24.945   4.749  49.286  1.00  0.00     0.025 C 
HETATM    9  C18 UNL     1      23.853   5.374  48.807  1.00  0.00     0.008 C 
HETATM   10  C19 UNL     1      23.144   6.466  47.970  1.00  0.00     0.076 C 
HETATM   11  C20 UNL     1      22.604   5.139  47.401  1.00  0.00     0.128 C 
HETATM   12  N3  UNL     1      22.410   4.937  48.901  1.00  0.00    -0.383 N 
HETATM   13  C21 UNL     1      21.167   4.515  49.438  1.00  0.00     0.127 C 
HETATM   14  C22 UNL     1      20.826   4.741  50.871  1.00  0.00     0.007 C 
HETATM   15  C23 UNL     1      19.655   3.902  51.310  1.00  0.00     0.033 C 
HETATM   16  C24 UNL     1      20.465   3.363  52.425  1.00  0.00     0.102 C 
HETATM   17  C25 UNL     1      21.680   4.052  51.845  1.00  0.00     0.033 C 
ENDROOT
BRANCH   1  18
HETATM   18  C3  UNL     1      19.677   0.876  52.383  1.00  0.00     0.142 A 
HETATM   19  C2  UNL     1      19.214  -0.048  53.272  1.00  0.00     0.095 A 
HETATM   20  C1  UNL     1      18.196  -0.883  52.901  1.00  0.00     0.105 A 
HETATM   21  N5  UNL     1      17.651  -0.807  51.684  1.00  0.00    -0.230 NA
HETATM   22  C26 UNL     1      18.087   0.090  50.796  1.00  0.00     0.237 A 
HETATM   23  N4  UNL     1      19.084   0.914  51.149  1.00  0.00    -0.224 NA
BRANCH  20  24
HETATM   24  N1  UNL     1      17.844  -1.800  53.937  1.00  0.00    -0.287 NA
HETATM   25  H1  UNL     1      18.129  -2.407  54.729  1.00  0.00     0.125 HD
HETATM   26  H2  UNL     1      18.550  -2.212  54.580  1.00  0.00     0.125 HD
ENDBRANCH  20  24
ENDBRANCH   1  18
BRANCH   5  27
HETATM   27  O1  UNL     1      26.706   1.588  51.674  1.00  0.00    -0.346 OA
BRANCH  27  28
HETATM   28  C8  UNL     1      27.210   1.275  52.975  1.00  0.00     0.214 C 
BRANCH  28  29
HETATM   29  C9  UNL     1      27.890  -0.007  53.089  1.00  0.00    -0.034 A 
HETATM   30  C10 UNL     1      29.211  -0.097  53.545  1.00  0.00     0.009 A 
HETATM   31  C11 UNL     1      29.758  -1.371  53.593  1.00  0.00     0.001 A 
HETATM   32  C12 UNL     1      29.096  -2.516  53.229  1.00  0.00     0.000 A 
HETATM   33  C13 UNL     1      27.778  -2.434  52.773  1.00  0.00     0.001 A 
HETATM   34  C14 UNL     1      27.266  -1.158  52.738  1.00  0.00     0.009 A 
ENDBRANCH  28  29
ENDBRANCH  27  28
ENDBRANCH   5  27
TORSDOF 5
ENDMDL
MODEL 4
REMARK VINA RESULT:      -9.5      3.878      8.336
REMARK  5 active torsions:
REMARK  status: ('A' for Active; 'I' for Inactive)
REMARK    1  A    between atoms: N1_1  and  C1_2 
REMARK    2  A    between atoms: C3_4  and  N2_5 
REMARK    3  A    between atoms: C7_9  and  O1_10 
REMARK    4  A    between atoms: O1_10  and  C8_11 
REMARK    5  A    between atoms: C8_11  and  C9_12 
ROOT
HETATM    1  N2  UNL     1      17.480   2.553  51.322  1.00  0.00    -0.285 N 
HETATM    2  C4  UNL     1      18.607   3.326  51.238  1.00  0.00     0.019 C 
HETATM    3  C5  UNL     1      19.567   3.972  51.149  1.00  0.00    -0.052 C 
HETATM    4  C6  UNL     1      20.724   4.733  51.022  1.00  0.00     0.102 C 
HETATM    5  C7  UNL     1      21.883   4.219  51.336  1.00  0.00     0.077 C 
HETATM    6  C15 UNL     1      22.316   2.896  51.914  1.00  0.00     0.037 C 
HETATM    7  C16 UNL     1      23.403   2.294  52.238  1.00  0.00     0.005 C 
HETATM    8  C17 UNL     1      23.064   0.925  52.800  1.00  0.00     0.025 C 
HETATM    9  C18 UNL     1      22.384  -0.153  53.232  1.00  0.00     0.008 C 
HETATM   10  C19 UNL     1      22.291  -1.585  53.812  1.00  0.00     0.076 C 
HETATM   11  C20 UNL     1      21.504  -0.717  54.813  1.00  0.00     0.128 C 
HETATM   12  N3  UNL     1      20.899  -0.283  53.482  1.00  0.00    -0.383 N 
HETATM   13  C21 UNL     1      19.496  -0.255  53.277  1.00  0.00     0.127 C 
HETATM   14  C22 UNL     1      18.912  -0.275  51.906  1.00  0.00     0.007 C 
HETATM   15  C23 UNL     1      17.463   0.134  51.906  1.00  0.00     0.033 C 
HETATM   16  C24 UNL     1      17.761   1.167  50.888  1.00  0.00     0.102 C 
HETATM   17  C25 UNL     1      19.235   0.878  51.060  1.00  0.00     0.033 C 
ENDROOT
BRANCH   1  18
HETATM   18  C3  UNL     1      16.243   3.101  51.762  1.00  0.00     0.142 A 
HETATM   19  C2  UNL     1      15.773   3.685  52.900  1.00  0.00     0.095 A 
HETATM   20  C1  UNL     1      14.476   4.119  52.944  1.00  0.00     0.105 A 
HETATM   21  N5  UNL     1      13.666   3.977  51.891  1.00  0.00    -0.230 NA
HETATM   22  C26 UNL     1      14.103   3.408  50.765  1.00  0.00     0.237 A 
HETATM   23  N4  UNL     1      15.373   2.980  50.711  1.00  0.00    -0.224 NA
BRANCH  20  24
HETATM   24  N1  UNL     1      14.138   4.687  54.209  1.00  0.00    -0.287 NA
HETATM   25  H1  UNL     1      13.566   4.667  55.074  1.00  0.00     0.125 HD
HETATM   26  H2  UNL     1      13.405   4.281  54.825  1.00  0.00     0.125 HD
ENDBRANCH  20  24
ENDBRANCH   1  18
BRANCH   5  27
HETATM   27  O1  UNL     1      23.074   4.953  51.197  1.00  0.00    -0.346 OA
BRANCH  27  28
HETATM   28  C8  UNL     1      23.404   5.217  49.831  1.00  0.00     0.214 C 
BRANCH  28  29
HETATM   29  C9  UNL     1      24.799   5.004  49.474  1.00  0.00    -0.034 A 
HETATM   30  C10 UNL     1      25.423   3.765  49.667  1.00  0.00     0.009 A 
HETATM   31  C11 UNL     1      26.760   3.689  49.306  1.00  0.00     0.001 A 
HETATM   32  C12 UNL     1      27.485   4.729  48.784  1.00  0.00     0.000 A 
HETATM   33  C13 UNL     1      26.870   5.968  48.588  1.00  0.00     0.001 A 
HETATM   34  C14 UNL     1      25.545   6.010  48.957  1.00  0.00     0.009 A 
ENDBRANCH  28  29
ENDBRANCH  27  28
ENDBRANCH   5  27
TORSDOF 5
ENDMDL
MODEL 5
REMARK VINA RESULT:      -9.4      3.322      7.430
REMARK  5 active torsions:
REMARK  status: ('A' for Active; 'I' for Inactive)
REMARK    1  A    between atoms: N1_1  and  C1_2 
REMARK    2  A    between atoms: C3_4  and  N2_5 
REMARK    3  A    between atoms: C7_9  and  O1_10 
REMARK    4  A    between atoms: O1_10  and  C8_11 
REMARK    5  A    between atoms: C8_11  and  C9_12 
ROOT
HETATM    1  N2  UNL     1      24.992   4.758  49.474  1.00  0.00    -0.285 N 
HETATM    2  C4  UNL     1      25.242   3.777  50.395  1.00  0.00     0.019 C 
HETATM    3  C5  UNL     1      25.453   2.931  51.161  1.00  0.00    -0.052 C 
HETATM    4  C6  UNL     1      25.701   1.900  52.060  1.00  0.00     0.102 C 
HETATM    5  C7  UNL     1      24.715   1.169  52.506  1.00  0.00     0.077 C 
HETATM    6  C15 UNL     1      23.220   1.203  52.317  1.00  0.00     0.037 C 
HETATM    7  C16 UNL     1      22.185   0.539  52.683  1.00  0.00     0.005 C 
HETATM    8  C17 UNL     1      20.943   1.188  52.097  1.00  0.00     0.025 C 
HETATM    9  C18 UNL     1      20.123   2.026  51.436  1.00  0.00     0.008 C 
HETATM   10  C19 UNL     1      18.733   2.489  50.938  1.00  0.00     0.076 C 
HETATM   11  C20 UNL     1      19.268   3.688  51.746  1.00  0.00     0.128 C 
HETATM   12  N3  UNL     1      20.451   3.374  50.835  1.00  0.00    -0.383 N 
HETATM   13  C21 UNL     1      21.083   4.381  50.064  1.00  0.00     0.127 C 
HETATM   14  C22 UNL     1      21.908   4.040  48.870  1.00  0.00     0.007 C 
HETATM   15  C23 UNL     1      22.773   5.194  48.436  1.00  0.00     0.033 C 
HETATM   16  C24 UNL     1      23.965   4.319  48.504  1.00  0.00     0.102 C 
HETATM   17  C25 UNL     1      23.110   3.243  49.134  1.00  0.00     0.033 C 
ENDROOT
BRANCH   1  18
HETATM   18  C3  UNL     1      25.690   5.998  49.512  1.00  0.00     0.142 A 
HETATM   19  C2  UNL     1      25.563   7.180  50.179  1.00  0.00     0.095 A 
HETATM   20  C1  UNL     1      26.475   8.176  49.955  1.00  0.00     0.105 A 
HETATM   21  N5  UNL     1      27.483   8.007  49.095  1.00  0.00    -0.230 NA
HETATM   22  C26 UNL     1      27.628   6.858  48.430  1.00  0.00     0.237 A 
HETATM   23  N4  UNL     1      26.740   5.875  48.642  1.00  0.00    -0.224 NA
BRANCH  20  24
HETATM   24  N1  UNL     1      26.190   9.350  50.714  1.00  0.00    -0.287 NA
HETATM   25  H1  UNL     1      26.283   9.888  51.596  1.00  0.00     0.125 HD
HETATM   26  H2  UNL     1      26.531   9.480  51.689  1.00  0.00     0.125 HD
ENDBRANCH  20  24
ENDBRANCH   1  18
BRANCH   5  27
HETATM   27  O1  UNL     1      24.935   0.104  53.398  1.00  0.00    -0.346 OA
BRANCH  27  28
HETATM   28  C8  UNL     1      26.048   0.331  54.266  1.00  0.00     0.214 C 
BRANCH  28  29
HETATM   29  C9  UNL     1      27.255  -0.414  53.941  1.00  0.00    -0.034 A 
HETATM   30  C10 UNL     1      28.518   0.014  54.370  1.00  0.00     0.009 A 
HETATM   31  C11 UNL     1      29.595  -0.770  53.982  1.00  0.00     0.001 A 
HETATM   32  C12 UNL     1      29.497  -1.908  53.225  1.00  0.00     0.000 A 
HETATM   33  C13 UNL     1      28.240  -2.342  52.793  1.00  0.00     0.001 A 
HETATM   34  C14 UNL     1      27.195  -1.543  53.194  1.00  0.00     0.009 A 
ENDBRANCH  28  29
ENDBRANCH  27  28
ENDBRANCH   5  27
TORSDOF 5
ENDMDL
MODEL 6
REMARK VINA RESULT:      -9.2      4.231      8.342
REMARK  5 active torsions:
REMARK  status: ('A' for Active; 'I' for Inactive)
REMARK    1  A    between atoms: N1_1  and  C1_2 
REMARK    2  A    between atoms: C3_4  and  N2_5 
REMARK    3  A    between atoms: C7_9  and  O1_10 
REMARK    4  A    between atoms: O1_10  and  C8_11 
REMARK    5  A    between atoms: C8_11  and  C9_12 
ROOT
HETATM    1  N2  UNL     1      19.312   1.490  51.868  1.00  0.00    -0.285 N 
HETATM    2  C4  UNL     1      20.462   0.939  52.364  1.00  0.00     0.019 C 
HETATM    3  C5  UNL     1      21.437   0.485  52.801  1.00  0.00    -0.052 C 
HETATM    4  C6  UNL     1      22.605  -0.040  53.342  1.00  0.00     0.102 C 
HETATM    5  C7  UNL     1      23.741   0.582  53.176  1.00  0.00     0.077 C 
HETATM    6  C15 UNL     1      24.153   1.820  52.422  1.00  0.00     0.037 C 
HETATM    7  C16 UNL     1      25.212   2.515  52.212  1.00  0.00     0.005 C 
HETATM    8  C17 UNL     1      24.871   3.677  51.296  1.00  0.00     0.025 C 
HETATM    9  C18 UNL     1      24.202   4.527  50.496  1.00  0.00     0.008 C 
HETATM   10  C19 UNL     1      24.095   5.786  49.602  1.00  0.00     0.076 C 
HETATM   11  C20 UNL     1      23.677   4.625  48.677  1.00  0.00     0.128 C 
HETATM   12  N3  UNL     1      22.818   4.366  49.910  1.00  0.00    -0.383 N 
HETATM   13  C21 UNL     1      21.419   4.153  49.810  1.00  0.00     0.127 C 
HETATM   14  C22 UNL     1      20.520   4.345  50.983  1.00  0.00     0.007 C 
HETATM   15  C23 UNL     1      19.169   3.716  50.764  1.00  0.00     0.033 C 
HETATM   16  C24 UNL     1      19.322   2.961  52.028  1.00  0.00     0.102 C 
HETATM   17  C25 UNL     1      20.752   3.445  52.116  1.00  0.00     0.033 C 
ENDROOT
BRANCH   1  18
HETATM   18  C3  UNL     1      18.288   0.676  51.308  1.00  0.00     0.142 A 
HETATM   19  C2  UNL     1      17.772   0.457  50.065  1.00  0.00     0.095 A 
HETATM   20  C1  UNL     1      16.761  -0.452  49.910  1.00  0.00     0.105 A 
HETATM   21  N5  UNL     1      16.274  -1.126  50.956  1.00  0.00    -0.230 NA
HETATM   22  C26 UNL     1      16.763  -0.929  52.183  1.00  0.00     0.237 A 
HETATM   23  N4  UNL     1      17.754  -0.040  52.346  1.00  0.00    -0.224 NA
BRANCH  20  24
HETATM   24  N1  UNL     1      16.323  -0.547  48.556  1.00  0.00    -0.287 NA
HETATM   25  H1  UNL     1      16.025  -0.082  47.677  1.00  0.00     0.125 HD
HETATM   26  H2  UNL     1      16.112   0.291  47.977  1.00  0.00     0.125 HD
ENDBRANCH  20  24
ENDBRANCH   1  18
BRANCH   5  27
HETATM   27  O1  UNL     1      24.936   0.090  53.730  1.00  0.00    -0.346 OA
BRANCH  27  28
HETATM   28  C8  UNL     1      25.588  -0.860  52.883  1.00  0.00     0.214 C 
BRANCH  28  29
HETATM   29  C9  UNL     1      27.022  -0.999  53.090  1.00  0.00    -0.034 A 
HETATM   30  C10 UNL     1      27.685  -2.206  52.836  1.00  0.00     0.009 A 
HETATM   31  C11 UNL     1      29.049  -2.222  53.088  1.00  0.00     0.001 A 
HETATM   32  C12 UNL     1      29.766  -1.152  53.558  1.00  0.00     0.000 A 
HETATM   33  C13 UNL     1      29.112   0.057  53.813  1.00  0.00     0.001 A 
HETATM   34  C14 UNL     1      27.761   0.038  53.553  1.00  0.00     0.009 A 
ENDBRANCH  28  29
ENDBRANCH  27  28
ENDBRANCH   5  27
TORSDOF 5
ENDMDL
MODEL 7
REMARK VINA RESULT:      -9.1      4.117     10.283
REMARK  5 active torsions:
REMARK  status: ('A' for Active; 'I' for Inactive)
REMARK    1  A    between atoms: N1_1  and  C1_2 
REMARK    2  A    between atoms: C3_4  and  N2_5 
REMARK    3  A    between atoms: C7_9  and  O1_10 
REMARK    4  A    between atoms: O1_10  and  C8_11 
REMARK    5  A    between atoms: C8_11  and  C9_12 
ROOT
HETATM    1  N2  UNL     1      21.998   3.551  50.404  1.00  0.00    -0.285 N 
HETATM    2  C4  UNL     1      21.170   2.594  50.925  1.00  0.00     0.019 C 
HETATM    3  C5  UNL     1      20.467   1.793  51.383  1.00  0.00    -0.052 C 
HETATM    4  C6  UNL     1      19.624   0.846  51.955  1.00  0.00     0.102 C 
HETATM    5  C7  UNL     1      20.097  -0.019  52.812  1.00  0.00     0.077 C 
HETATM    6  C15 UNL     1      21.476  -0.313  53.346  1.00  0.00     0.037 C 
HETATM    7  C16 UNL     1      22.038  -1.107  54.183  1.00  0.00     0.005 C 
HETATM    8  C17 UNL     1      23.532  -0.838  54.199  1.00  0.00     0.025 C 
HETATM    9  C18 UNL     1      24.748  -0.331  53.924  1.00  0.00     0.008 C 
HETATM   10  C19 UNL     1      26.279  -0.227  54.130  1.00  0.00     0.076 C 
HETATM   11  C20 UNL     1      26.118  -0.585  52.639  1.00  0.00     0.128 C 
HETATM   12  N3  UNL     1      25.145   0.581  52.786  1.00  0.00    -0.383 N 
HETATM   13  C21 UNL     1      25.170   1.686  51.898  1.00  0.00     0.127 C 
HETATM   14  C22 UNL     1      24.566   2.996  52.273  1.00  0.00     0.007 C 
HETATM   15  C23 UNL     1      24.371   3.889  51.076  1.00  0.00     0.033 C 
HETATM   16  C24 UNL     1      22.942   4.044  51.432  1.00  0.00     0.102 C 
HETATM   17  C25 UNL     1      23.117   2.987  52.499  1.00  0.00     0.033 C 
ENDROOT
BRANCH   1  18
HETATM   18  C3  UNL     1      21.881   3.968  49.049  1.00  0.00     0.142 A 
HETATM   19  C2  UNL     1      22.117   3.417  47.825  1.00  0.00     0.095 A 
HETATM   20  C1  UNL     1      21.858   4.150  46.699  1.00  0.00     0.105 A 
HETATM   21  N5  UNL     1      21.377   5.394  46.782  1.00  0.00    -0.230 NA
HETATM   22  C26 UNL     1      21.138   5.955  47.970  1.00  0.00     0.237 A 
HETATM   23  N4  UNL     1      21.389   5.245  49.080  1.00  0.00    -0.224 NA
BRANCH  20  24
HETATM   24  N1  UNL     1      22.176   3.437  45.504  1.00  0.00    -0.287 NA
HETATM   25  H1  UNL     1      22.039   2.610  44.894  1.00  0.00     0.125 HD
HETATM   26  H2  UNL     1      21.739   2.523  45.267  1.00  0.00     0.125 HD
ENDBRANCH  20  24
ENDBRANCH   1  18
BRANCH   5  27
HETATM   27  O1  UNL     1      19.268  -0.974  53.426  1.00  0.00    -0.346 OA
BRANCH  27  28
HETATM   28  C8  UNL     1      17.896  -0.839  53.049  1.00  0.00     0.214 C 
BRANCH  28  29
HETATM   29  C9  UNL     1      17.135  -2.079  53.007  1.00  0.00    -0.034 A 
HETATM   30  C10 UNL     1      15.905  -2.162  52.342  1.00  0.00     0.009 A 
HETATM   31  C11 UNL     1      15.265  -3.392  52.388  1.00  0.00     0.001 A 
HETATM   32  C12 UNL     1      15.754  -4.500  53.030  1.00  0.00     0.000 A 
HETATM   33  C13 UNL     1      16.981  -4.426  53.695  1.00  0.00     0.001 A 
HETATM   34  C14 UNL     1      17.588  -3.193  53.631  1.00  0.00     0.009 A 
ENDBRANCH  28  29
ENDBRANCH  27  28
ENDBRANCH   5  27
TORSDOF 5
ENDMDL
MODEL 8
REMARK VINA RESULT:      -9.0      4.518      8.730
REMARK  5 active torsions:
REMARK  status: ('A' for Active; 'I' for Inactive)
REMARK    1  A    between atoms: N1_1  and  C1_2 
REMARK    2  A    between atoms: C3_4  and  N2_5 
REMARK    3  A    between atoms: C7_9  and  O1_10 
REMARK    4  A    between atoms: O1_10  and  C8_11 
REMARK    5  A    between atoms: C8_11  and  C9_12 
ROOT
HETATM    1  N2  UNL     1      26.779   8.464  47.763  1.00  0.00    -0.285 N 
HETATM    2  C4  UNL     1      26.958   7.186  48.219  1.00  0.00     0.019 C 
HETATM    3  C5  UNL     1      27.104   6.095  48.587  1.00  0.00    -0.052 C 
HETATM    4  C6  UNL     1      27.270   4.780  49.005  1.00  0.00     0.102 C 
HETATM    5  C7  UNL     1      26.232   4.066  49.348  1.00  0.00     0.077 C 
HETATM    6  C15 UNL     1      24.758   4.358  49.469  1.00  0.00     0.037 C 
HETATM    7  C16 UNL     1      23.673   3.741  49.771  1.00  0.00     0.005 C 
HETATM    8  C17 UNL     1      22.510   4.714  49.694  1.00  0.00     0.025 C 
HETATM    9  C18 UNL     1      21.782   5.834  49.535  1.00  0.00     0.008 C 
HETATM   10  C19 UNL     1      20.450   6.622  49.503  1.00  0.00     0.076 C 
HETATM   11  C20 UNL     1      21.301   7.353  50.561  1.00  0.00     0.128 C 
HETATM   12  N3  UNL     1      22.275   7.256  49.391  1.00  0.00    -0.383 N 
HETATM   13  C21 UNL     1      22.978   8.391  48.914  1.00  0.00     0.127 C 
HETATM   14  C22 UNL     1      23.562   8.421  47.543  1.00  0.00     0.007 C 
HETATM   15  C23 UNL     1      24.564   9.534  47.383  1.00  0.00     0.033 C 
HETATM   16  C24 UNL     1      25.570   8.554  46.914  1.00  0.00     0.102 C 
HETATM   17  C25 UNL     1      24.618   7.438  47.279  1.00  0.00     0.033 C 
ENDROOT
BRANCH   1  18
HETATM   18  C3  UNL     1      27.694   9.501  48.097  1.00  0.00     0.142 A 
HETATM   19  C2  UNL     1      27.638  10.688  48.764  1.00  0.00     0.095 A 
HETATM   20  C1  UNL     1      28.778  11.433  48.902  1.00  0.00     0.105 A 
HETATM   21  N5  UNL     1      29.941  11.013  48.396  1.00  0.00    -0.230 NA
HETATM   22  C26 UNL     1      30.021   9.853  47.739  1.00  0.00     0.237 A 
HETATM   23  N4  UNL     1      28.910   9.115  47.597  1.00  0.00    -0.224 NA
BRANCH  20  24
HETATM   24  N1  UNL     1      28.545  12.652  49.606  1.00  0.00    -0.287 NA
HETATM   25  H1  UNL     1      28.850  13.611  49.859  1.00  0.00     0.125 HD
HETATM   26  H2  UNL     1      29.207  13.454  49.567  1.00  0.00     0.125 HD
ENDBRANCH  20  24
ENDBRANCH   1  18
BRANCH   5  27
HETATM   27  O1  UNL     1      26.363   2.726  49.753  1.00  0.00    -0.346 OA
BRANCH  27  28
HETATM   28  C8  UNL     1      26.768   2.598  51.118  1.00  0.00     0.214 C 
BRANCH  28  29
HETATM   29  C9  UNL     1      26.138   1.514  51.857  1.00  0.00    -0.034 A 
HETATM   30  C10 UNL     1      26.792   0.294  52.067  1.00  0.00     0.009 A 
HETATM   31  C11 UNL     1      26.083  -0.670  52.770  1.00  0.00     0.001 A 
HETATM   32  C12 UNL     1      24.813  -0.499  53.258  1.00  0.00     0.000 A 
HETATM   33  C13 UNL     1      24.154   0.716  53.053  1.00  0.00     0.001 A 
HETATM   34  C14 UNL     1      24.884   1.648  52.353  1.00  0.00     0.009 A 
ENDBRANCH  28  29
ENDBRANCH  27  28
ENDBRANCH   5  27
TORSDOF 5
ENDMDL
MODEL 9
REMARK VINA RESULT:      -8.6      4.663      9.272
REMARK  5 active torsions:
REMARK  status: ('A' for Active; 'I' for Inactive)
REMARK    1  A    between atoms: N1_1  and  C1_2 
REMARK    2  A    between atoms: C3_4  and  N2_5 
REMARK    3  A    between atoms: C7_9  and  O1_10 
REMARK    4  A    between atoms: O1_10  and  C8_11 
REMARK    5  A    between atoms: C8_11  and  C9_12 
ROOT
HETATM    1  N2  UNL     1      31.604   6.095  47.051  1.00  0.00    -0.285 N 
HETATM    2  C4  UNL     1      30.396   5.757  47.599  1.00  0.00     0.019 C 
HETATM    3  C5  UNL     1      29.363   5.471  48.045  1.00  0.00    -0.052 C 
HETATM    4  C6  UNL     1      28.116   5.132  48.556  1.00  0.00     0.102 C 
HETATM    5  C7  UNL     1      27.215   6.058  48.753  1.00  0.00     0.077 C 
HETATM    6  C15 UNL     1      27.210   7.558  48.605  1.00  0.00     0.037 C 
HETATM    7  C16 UNL     1      26.396   8.540  48.750  1.00  0.00     0.005 C 
HETATM    8  C17 UNL     1      27.116   9.836  48.423  1.00  0.00     0.025 C 
HETATM    9  C18 UNL     1      28.066  10.726  48.082  1.00  0.00     0.008 C 
HETATM   10  C19 UNL     1      28.572  12.157  47.781  1.00  0.00     0.076 C 
HETATM   11  C20 UNL     1      29.478  11.666  48.927  1.00  0.00     0.128 C 
HETATM   12  N3  UNL     1      29.554  10.499  47.948  1.00  0.00    -0.383 N 
HETATM   13  C21 UNL     1      30.798   9.953  47.538  1.00  0.00     0.127 C 
HETATM   14  C22 UNL     1      30.917   9.151  46.288  1.00  0.00     0.007 C 
HETATM   15  C23 UNL     1      32.204   8.370  46.241  1.00  0.00     0.033 C 
HETATM   16  C24 UNL     1      31.435   7.128  46.004  1.00  0.00     0.102 C 
HETATM   17  C25 UNL     1      30.159   7.896  46.261  1.00  0.00     0.033 C 
ENDROOT
BRANCH   1  18
HETATM   18  C3  UNL     1      32.808   5.470  47.480  1.00  0.00     0.142 A 
HETATM   19  C2  UNL     1      33.715   5.661  48.480  1.00  0.00     0.095 A 
HETATM   20  C1  UNL     1      34.781   4.810  48.588  1.00  0.00     0.105 A 
HETATM   21  N5  UNL     1      34.945   3.798  47.731  1.00  0.00    -0.230 NA
HETATM   22  C26 UNL     1      34.069   3.591  46.744  1.00  0.00     0.237 A 
HETATM   23  N4  UNL     1      33.020   4.419  46.629  1.00  0.00    -0.224 NA
BRANCH  20  24
HETATM   24  N1  UNL     1      35.643   5.158  49.670  1.00  0.00    -0.287 NA
HETATM   25  H1  UNL     1      36.343   5.803  50.084  1.00  0.00     0.125 HD
HETATM   26  H2  UNL     1      36.246   6.006  49.652  1.00  0.00     0.125 HD
ENDBRANCH  20  24
ENDBRANCH   1  18
BRANCH   5  27
HETATM   27  O1  UNL     1      25.936   5.746  49.247  1.00  0.00    -0.346 OA
BRANCH  27  28
HETATM   28  C8  UNL     1      25.646   4.347  49.184  1.00  0.00     0.214 C 
BRANCH  28  29
HETATM   29  C9  UNL     1      25.480   3.687  50.471  1.00  0.00    -0.034 A 
HETATM   30  C10 UNL     1      26.418   2.761  50.945  1.00  0.00     0.009 A 
HETATM   31  C11 UNL     1      26.143   2.184  52.176  1.00  0.00     0.001 A 
HETATM   32  C12 UNL     1      25.034   2.461  52.934  1.00  0.00     0.000 A 
HETATM   33  C13 UNL     1      24.094   3.383  52.468  1.00  0.00     0.001 A 
HETATM   34  C14 UNL     1      24.397   3.936  51.246  1.00  0.00     0.009 A 
ENDBRANCH  28  29
ENDBRANCH  27  28
ENDBRANCH   5  27
TORSDOF 5
ENDMDL
