MODEL 1
REMARK VINA RESULT:      -7.0      0.000      0.000
REMARK  7 active torsions:
REMARK  status: ('A' for Active; 'I' for Inactive)
REMARK    1  A    between atoms: N1_8  and  C8_9 
REMARK    2  A    between atoms: C11_12  and  O1_13 
REMARK    3  A    between atoms: O1_13  and  C12_14 
REMARK    4  A    between atoms: C13_15  and  N2_16 
REMARK    5  A    between atoms: C16_20  and  C17_21 
REMARK    6  A    between atoms: C17_21  and  C18_22 
REMARK    7  A    between atoms: C18_22  and  N4_23 
ROOT
HETATM    1  C1  UNL     1      22.240  -1.262  54.687  1.00  0.00     0.019 C 
HETATM    2  C2  UNL     1      23.106  -0.710  54.063  1.00  0.00    -0.060 C 
HETATM    3  C3  UNL     1      24.141  -0.078  53.318  1.00  0.00     0.085 A 
HETATM    4  C4  UNL     1      25.267  -0.735  53.147  1.00  0.00     0.016 A 
HETATM    5  C5  UNL     1      26.387  -0.167  52.394  1.00  0.00     0.058 A 
HETATM    6  C6  UNL     1      26.099   1.179  51.865  1.00  0.00    -0.006 A 
HETATM    7  C7  UNL     1      24.917   1.796  52.076  1.00  0.00     0.089 A 
HETATM    8  N1  UNL     1      23.839   1.184  52.839  1.00  0.00    -0.341 N 
ENDROOT
BRANCH   8   9
HETATM    9  C8  UNL     1      22.821   2.141  52.814  1.00  0.00     0.159 A 
HETATM   10  C9  UNL     1      21.514   1.585  51.997  1.00  0.00     0.171 A 
HETATM   11  C10 UNL     1      21.778   0.618  51.039  1.00  0.00     0.093 C 
HETATM   12  C15 UNL     1      20.714   2.896  52.331  1.00  0.00     0.067 C 
HETATM   13  N3  UNL     1      21.718   2.841  50.949  1.00  0.00    -0.015 N 
HETATM   14  C11 UNL     1      22.270   1.748  50.089  1.00  0.00     0.340 C 
HETATM   15  C14 UNL     1      20.172   2.997  51.068  1.00  0.00     0.234 C 
HETATM   16  C16 UNL     1      23.018   3.297  51.740  1.00  0.00     0.222 A 
BRANCH  14  17
HETATM   17  O1  UNL     1      21.831   1.623  48.823  1.00  0.00    -0.328 OA
BRANCH  17  18
HETATM   18  C12 UNL     1      22.071   2.322  47.677  1.00  0.00     0.154 C 
HETATM   19  C13 UNL     1      22.173   3.535  47.183  1.00  0.00     0.104 C 
BRANCH  19  20
HETATM   20  N2  UNL     1      22.011   4.698  47.947  1.00  0.00    -0.406 N 
HETATM   21  H12 UNL     1      22.312   5.615  48.287  1.00  0.00     0.155 HD
HETATM   22  H13 UNL     1      21.116   4.729  48.513  1.00  0.00     0.155 HD
ENDBRANCH  19  20
ENDBRANCH  17  18
ENDBRANCH  14  17
BRANCH  16  23
HETATM   23  C17 UNL     1      22.922   4.631  52.242  1.00  0.00     0.055 C 
BRANCH  23  24
HETATM   24  C18 UNL     1      23.830   5.668  51.605  1.00  0.00     0.119 C 
BRANCH  24  25
HETATM   25  N4  UNL     1      23.020   6.585  50.858  1.00  0.00    -0.408 N 
HETATM   26  C19 UNL     1      21.628   6.556  51.087  1.00  0.00     0.143 C 
HETATM   27  C20 UNL     1      20.995   7.492  50.046  1.00  0.00     0.187 C 
HETATM   28  O2  UNL     1      21.881   7.679  48.972  1.00  0.00    -0.388 OA
HETATM   29  C21 UNL     1      22.894   8.514  49.431  1.00  0.00     0.187 C 
HETATM   30  C22 UNL     1      23.626   7.831  50.562  1.00  0.00     0.143 C 
ENDBRANCH  24  25
ENDBRANCH  23  24
ENDBRANCH  16  23
ENDBRANCH   8   9
TORSDOF 7
ENDMDL
MODEL 2
REMARK VINA RESULT:      -6.6      0.882      2.067
REMARK  7 active torsions:
REMARK  status: ('A' for Active; 'I' for Inactive)
REMARK    1  A    between atoms: N1_8  and  C8_9 
REMARK    2  A    between atoms: C11_12  and  O1_13 
REMARK    3  A    between atoms: O1_13  and  C12_14 
REMARK    4  A    between atoms: C13_15  and  N2_16 
REMARK    5  A    between atoms: C16_20  and  C17_21 
REMARK    6  A    between atoms: C17_21  and  C18_22 
REMARK    7  A    between atoms: C18_22  and  N4_23 
ROOT
HETATM    1  C1  UNL     1      26.421   3.398  50.103  1.00  0.00     0.019 C 
HETATM    2  C2  UNL     1      26.076   2.527  50.856  1.00  0.00    -0.060 C 
HETATM    3  C3  UNL     1      25.691   1.490  51.751  1.00  0.00     0.085 A 
HETATM    4  C4  UNL     1      26.503   0.466  51.894  1.00  0.00     0.016 A 
HETATM    5  C5  UNL     1      26.192  -0.647  52.793  1.00  0.00     0.058 A 
HETATM    6  C6  UNL     1      24.908  -0.476  53.496  1.00  0.00    -0.006 A 
HETATM    7  C7  UNL     1      24.122   0.604  53.303  1.00  0.00     0.089 A 
HETATM    8  N1  UNL     1      24.480   1.681  52.391  1.00  0.00    -0.341 N 
ENDROOT
BRANCH   8   9
HETATM    9  C8  UNL     1      23.414   2.578  52.493  1.00  0.00     0.159 A 
HETATM   10  C9  UNL     1      22.054   1.950  51.830  1.00  0.00     0.171 A 
HETATM   11  C10 UNL     1      22.258   1.001  50.839  1.00  0.00     0.093 C 
HETATM   12  C15 UNL     1      21.225   3.212  52.267  1.00  0.00     0.067 C 
HETATM   13  N3  UNL     1      22.062   3.218  50.776  1.00  0.00    -0.015 N 
HETATM   14  C11 UNL     1      22.570   2.160  49.848  1.00  0.00     0.340 C 
HETATM   15  C14 UNL     1      20.534   3.284  51.076  1.00  0.00     0.234 C 
HETATM   16  C16 UNL     1      23.417   3.746  51.414  1.00  0.00     0.222 A 
BRANCH  14  17
HETATM   17  O1  UNL     1      21.994   2.011  48.641  1.00  0.00    -0.328 OA
BRANCH  17  18
HETATM   18  C12 UNL     1      22.057   2.726  47.481  1.00  0.00     0.154 C 
HETATM   19  C13 UNL     1      22.103   3.945  46.994  1.00  0.00     0.104 C 
BRANCH  19  20
HETATM   20  N2  UNL     1      22.095   5.097  47.791  1.00  0.00    -0.406 N 
HETATM   21  H12 UNL     1      22.089   5.584  48.691  1.00  0.00     0.155 HD
HETATM   22  H13 UNL     1      22.096   6.006  47.246  1.00  0.00     0.155 HD
ENDBRANCH  19  20
ENDBRANCH  17  18
ENDBRANCH  14  17
BRANCH  16  23
HETATM   23  C17 UNL     1      23.305   5.072  51.935  1.00  0.00     0.055 C 
BRANCH  23  24
HETATM   24  C18 UNL     1      24.040   6.166  51.182  1.00  0.00     0.119 C 
BRANCH  24  25
HETATM   25  N4  UNL     1      23.072   7.002  50.534  1.00  0.00    -0.408 N 
HETATM   26  C19 UNL     1      21.739   6.926  50.992  1.00  0.00     0.143 C 
HETATM   27  C20 UNL     1      20.897   7.771  50.024  1.00  0.00     0.187 C 
HETATM   28  O2  UNL     1      21.584   7.933  48.810  1.00  0.00    -0.388 OA
HETATM   29  C21 UNL     1      22.614   8.836  49.051  1.00  0.00     0.187 C 
HETATM   30  C22 UNL     1      23.556   8.253  50.078  1.00  0.00     0.143 C 
ENDBRANCH  24  25
ENDBRANCH  23  24
ENDBRANCH  16  23
ENDBRANCH   8   9
TORSDOF 7
ENDMDL
MODEL 3
REMARK VINA RESULT:      -6.5      1.916      4.491
REMARK  7 active torsions:
REMARK  status: ('A' for Active; 'I' for Inactive)
REMARK    1  A    between atoms: N1_8  and  C8_9 
REMARK    2  A    between atoms: C11_12  and  O1_13 
REMARK    3  A    between atoms: O1_13  and  C12_14 
REMARK    4  A    between atoms: C13_15  and  N2_16 
REMARK    5  A    between atoms: C16_20  and  C17_21 
REMARK    6  A    between atoms: C17_21  and  C18_22 
REMARK    7  A    between atoms: C18_22  and  N4_23 
ROOT
HETATM    1  C1  UNL     1      25.806  -0.607  53.557  1.00  0.00     0.019 C 
HETATM    2  C2  UNL     1      24.626  -0.383  53.542  1.00  0.00    -0.060 C 
HETATM    3  C3  UNL     1      23.227  -0.120  53.549  1.00  0.00     0.085 A 
HETATM    4  C4  UNL     1      22.529  -0.527  54.586  1.00  0.00     0.016 A 
HETATM    5  C5  UNL     1      21.085  -0.299  54.682  1.00  0.00     0.058 A 
HETATM    6  C6  UNL     1      20.538   0.425  53.520  1.00  0.00    -0.006 A 
HETATM    7  C7  UNL     1      21.316   0.817  52.488  1.00  0.00     0.089 A 
HETATM    8  N1  UNL     1      22.748   0.558  52.443  1.00  0.00    -0.341 N 
ENDROOT
BRANCH   8   9
HETATM    9  C8  UNL     1      23.154   1.120  51.230  1.00  0.00     0.159 A 
HETATM   10  C9  UNL     1      24.044   2.472  51.480  1.00  0.00     0.171 A 
HETATM   11  C10 UNL     1      23.791   3.140  52.669  1.00  0.00     0.093 C 
HETATM   12  C15 UNL     1      24.299   2.623  49.936  1.00  0.00     0.067 C 
HETATM   13  N3  UNL     1      22.896   3.303  50.637  1.00  0.00    -0.015 N 
HETATM   14  C11 UNL     1      22.511   3.737  52.016  1.00  0.00     0.340 C 
HETATM   15  C14 UNL     1      24.113   3.989  49.946  1.00  0.00     0.234 C 
HETATM   16  C16 UNL     1      22.041   1.974  50.482  1.00  0.00     0.222 A 
BRANCH  14  17
HETATM   17  O1  UNL     1      22.334   5.047  52.269  1.00  0.00    -0.328 OA
BRANCH  17  18
HETATM   18  C12 UNL     1      22.019   6.116  51.482  1.00  0.00     0.154 C 
HETATM   19  C13 UNL     1      22.484   7.248  51.004  1.00  0.00     0.104 C 
BRANCH  19  20
HETATM   20  N2  UNL     1      23.769   7.734  51.280  1.00  0.00    -0.406 N 
HETATM   21  H12 UNL     1      24.454   8.486  51.397  1.00  0.00     0.155 HD
HETATM   22  H13 UNL     1      24.484   6.984  51.499  1.00  0.00     0.155 HD
ENDBRANCH  19  20
ENDBRANCH  17  18
ENDBRANCH  14  17
BRANCH  16  23
HETATM   23  C17 UNL     1      21.804   1.623  49.117  1.00  0.00     0.055 C 
BRANCH  23  24
HETATM   24  C18 UNL     1      20.474   2.051  48.523  1.00  0.00     0.119 C 
BRANCH  24  25
HETATM   25  N4  UNL     1      19.669   2.613  49.568  1.00  0.00    -0.408 N 
HETATM   26  C19 UNL     1      19.485   4.013  49.562  1.00  0.00     0.143 C 
HETATM   27  C20 UNL     1      18.750   4.361  50.866  1.00  0.00     0.187 C 
HETATM   28  O2  UNL     1      18.919   3.325  51.800  1.00  0.00    -0.388 OA
HETATM   29  C21 UNL     1      18.122   2.268  51.374  1.00  0.00     0.187 C 
HETATM   30  C22 UNL     1      18.603   1.797  50.022  1.00  0.00     0.143 C 
ENDBRANCH  24  25
ENDBRANCH  23  24
ENDBRANCH  16  23
ENDBRANCH   8   9
TORSDOF 7
ENDMDL
MODEL 4
REMARK VINA RESULT:      -6.3      8.557     10.570
REMARK  7 active torsions:
REMARK  status: ('A' for Active; 'I' for Inactive)
REMARK    1  A    between atoms: N1_8  and  C8_9 
REMARK    2  A    between atoms: C11_12  and  O1_13 
REMARK    3  A    between atoms: O1_13  and  C12_14 
REMARK    4  A    between atoms: C13_15  and  N2_16 
REMARK    5  A    between atoms: C16_20  and  C17_21 
REMARK    6  A    between atoms: C17_21  and  C18_22 
REMARK    7  A    between atoms: C18_22  and  N4_23 
ROOT
HETATM    1  C1  UNL     1      35.790   5.594  49.739  1.00  0.00     0.019 C 
HETATM    2  C2  UNL     1      35.243   5.279  48.716  1.00  0.00    -0.060 C 
HETATM    3  C3  UNL     1      34.600   4.883  47.510  1.00  0.00     0.085 A 
HETATM    4  C4  UNL     1      34.963   3.743  46.963  1.00  0.00     0.016 A 
HETATM    5  C5  UNL     1      34.356   3.253  45.724  1.00  0.00     0.058 A 
HETATM    6  C6  UNL     1      33.320   4.159  45.194  1.00  0.00    -0.006 A 
HETATM    7  C7  UNL     1      32.995   5.315  45.809  1.00  0.00     0.089 A 
HETATM    8  N1  UNL     1      33.636   5.756  47.040  1.00  0.00    -0.341 N 
ENDROOT
BRANCH   8   9
HETATM    9  C8  UNL     1      33.014   6.974  47.327  1.00  0.00     0.159 A 
HETATM   10  C9  UNL     1      32.250   6.914  48.775  1.00  0.00     0.171 A 
HETATM   11  C10 UNL     1      31.848   5.651  49.184  1.00  0.00     0.093 C 
HETATM   12  C15 UNL     1      31.848   8.429  48.656  1.00  0.00     0.067 C 
HETATM   13  N3  UNL     1      30.845   7.226  47.970  1.00  0.00    -0.015 N 
HETATM   14  C11 UNL     1      30.640   5.763  48.209  1.00  0.00     0.340 C 
HETATM   15  C14 UNL     1      30.573   8.223  49.137  1.00  0.00     0.234 C 
HETATM   16  C16 UNL     1      31.626   7.207  46.587  1.00  0.00     0.222 A 
BRANCH  14  17
HETATM   17  O1  UNL     1      29.477   5.339  48.735  1.00  0.00    -0.328 OA
BRANCH  17  18
HETATM   18  C12 UNL     1      28.173   5.496  48.369  1.00  0.00     0.154 C 
HETATM   19  C13 UNL     1      27.093   6.212  48.590  1.00  0.00     0.104 C 
BRANCH  19  20
HETATM   20  N2  UNL     1      27.039   7.266  49.511  1.00  0.00    -0.406 N 
HETATM   21  H12 UNL     1      26.956   7.647  50.457  1.00  0.00     0.155 HD
HETATM   22  H13 UNL     1      27.123   8.230  49.080  1.00  0.00     0.155 HD
ENDBRANCH  19  20
ENDBRANCH  17  18
ENDBRANCH  14  17
BRANCH  16  23
HETATM   23  C17 UNL     1      31.506   8.435  45.866  1.00  0.00     0.055 C 
BRANCH  23  24
HETATM   24  C18 UNL     1      30.335   8.552  44.908  1.00  0.00     0.119 C 
BRANCH  24  25
HETATM   25  N4  UNL     1      29.314   9.341  45.531  1.00  0.00    -0.408 N 
HETATM   26  C19 UNL     1      28.181   8.661  46.028  1.00  0.00     0.143 C 
HETATM   27  C20 UNL     1      27.183   9.742  46.471  1.00  0.00     0.187 C 
HETATM   28  O2  UNL     1      27.486  10.959  45.837  1.00  0.00    -0.388 OA
HETATM   29  C21 UNL     1      28.632  11.454  46.450  1.00  0.00     0.187 C 
HETATM   30  C22 UNL     1      29.770  10.486  46.230  1.00  0.00     0.143 C 
ENDBRANCH  24  25
ENDBRANCH  23  24
ENDBRANCH  16  23
ENDBRANCH   8   9
TORSDOF 7
ENDMDL
MODEL 5
REMARK VINA RESULT:      -6.2     10.099     12.145
REMARK  7 active torsions:
REMARK  status: ('A' for Active; 'I' for Inactive)
REMARK    1  A    between atoms: N1_8  and  C8_9 
REMARK    2  A    between atoms: C11_12  and  O1_13 
REMARK    3  A    between atoms: O1_13  and  C12_14 
REMARK    4  A    between atoms: C13_15  and  N2_16 
REMARK    5  A    between atoms: C16_20  and  C17_21 
REMARK    6  A    between atoms: C17_21  and  C18_22 
REMARK    7  A    between atoms: C18_22  and  N4_23 
ROOT
HETATM    1  C1  UNL     1      36.060   5.762  49.627  1.00  0.00     0.019 C 
HETATM    2  C2  UNL     1      35.319   5.289  48.808  1.00  0.00    -0.060 C 
HETATM    3  C3  UNL     1      34.440   4.708  47.851  1.00  0.00     0.085 A 
HETATM    4  C4  UNL     1      34.399   3.396  47.769  1.00  0.00     0.016 A 
HETATM    5  C5  UNL     1      33.525   2.709  46.816  1.00  0.00     0.058 A 
HETATM    6  C6  UNL     1      32.722   3.638  45.999  1.00  0.00    -0.006 A 
HETATM    7  C7  UNL     1      32.813   4.978  46.138  1.00  0.00     0.089 A 
HETATM    8  N1  UNL     1      33.705   5.607  47.101  1.00  0.00    -0.341 N 
ENDROOT
BRANCH   8   9
HETATM    9  C8  UNL     1      33.489   6.975  46.917  1.00  0.00     0.159 A 
HETATM   10  C9  UNL     1      32.762   7.635  48.229  1.00  0.00     0.171 A 
HETATM   11  C10 UNL     1      31.999   6.761  48.988  1.00  0.00     0.093 C 
HETATM   12  C15 UNL     1      32.840   9.067  47.586  1.00  0.00     0.067 C 
HETATM   13  N3  UNL     1      31.509   8.052  47.242  1.00  0.00    -0.015 N 
HETATM   14  C11 UNL     1      30.870   6.883  47.924  1.00  0.00     0.340 C 
HETATM   15  C14 UNL     1      31.569   9.417  47.989  1.00  0.00     0.234 C 
HETATM   16  C16 UNL     1      32.229   7.339  46.018  1.00  0.00     0.222 A 
BRANCH  14  17
HETATM   17  O1  UNL     1      29.640   7.021  48.451  1.00  0.00    -0.328 OA
BRANCH  17  18
HETATM   18  C12 UNL     1      28.434   6.449  48.172  1.00  0.00     0.154 C 
HETATM   19  C13 UNL     1      27.193   6.342  48.592  1.00  0.00     0.104 C 
BRANCH  19  20
HETATM   20  N2  UNL     1      26.709   6.977  49.743  1.00  0.00    -0.406 N 
HETATM   21  H12 UNL     1      26.255   6.980  50.661  1.00  0.00     0.155 HD
HETATM   22  H13 UNL     1      26.846   8.027  49.755  1.00  0.00     0.155 HD
ENDBRANCH  19  20
ENDBRANCH  17  18
ENDBRANCH  14  17
BRANCH  16  23
HETATM   23  C17 UNL     1      32.480   8.228  44.929  1.00  0.00     0.055 C 
BRANCH  23  24
HETATM   24  C18 UNL     1      31.940   7.814  43.571  1.00  0.00     0.119 C 
BRANCH  24  25
HETATM   25  N4  UNL     1      32.859   6.886  42.980  1.00  0.00    -0.408 N 
HETATM   26  C19 UNL     1      32.500   6.321  41.737  1.00  0.00     0.143 C 
HETATM   27  C20 UNL     1      33.554   5.247  41.426  1.00  0.00     0.187 C 
HETATM   28  O2  UNL     1      34.204   4.860  42.610  1.00  0.00    -0.388 OA
HETATM   29  C21 UNL     1      35.052   5.905  42.960  1.00  0.00     0.187 C 
HETATM   30  C22 UNL     1      34.230   7.143  43.230  1.00  0.00     0.143 C 
ENDBRANCH  24  25
ENDBRANCH  23  24
ENDBRANCH  16  23
ENDBRANCH   8   9
TORSDOF 7
ENDMDL
MODEL 6
REMARK VINA RESULT:      -6.2      8.932     10.929
REMARK  7 active torsions:
REMARK  status: ('A' for Active; 'I' for Inactive)
REMARK    1  A    between atoms: N1_8  and  C8_9 
REMARK    2  A    between atoms: C11_12  and  O1_13 
REMARK    3  A    between atoms: O1_13  and  C12_14 
REMARK    4  A    between atoms: C13_15  and  N2_16 
REMARK    5  A    between atoms: C16_20  and  C17_21 
REMARK    6  A    between atoms: C17_21  and  C18_22 
REMARK    7  A    between atoms: C18_22  and  N4_23 
ROOT
HETATM    1  C1  UNL     1      35.174   3.166  46.354  1.00  0.00     0.019 C 
HETATM    2  C2  UNL     1      34.531   3.989  45.760  1.00  0.00    -0.060 C 
HETATM    3  C3  UNL     1      33.764   4.948  45.040  1.00  0.00     0.085 A 
HETATM    4  C4  UNL     1      33.580   4.748  43.753  1.00  0.00     0.016 A 
HETATM    5  C5  UNL     1      32.804   5.679  42.931  1.00  0.00     0.058 A 
HETATM    6  C6  UNL     1      32.267   6.817  43.700  1.00  0.00    -0.006 A 
HETATM    7  C7  UNL     1      32.494   6.958  45.024  1.00  0.00     0.089 A 
HETATM    8  N1  UNL     1      33.279   6.003  45.791  1.00  0.00    -0.341 N 
ENDROOT
BRANCH   8   9
HETATM    9  C8  UNL     1      33.263   6.518  47.090  1.00  0.00     0.159 A 
HETATM   10  C9  UNL     1      32.719   5.400  48.157  1.00  0.00     0.171 A 
HETATM   11  C10 UNL     1      31.875   4.434  47.628  1.00  0.00     0.093 C 
HETATM   12  C15 UNL     1      32.977   6.381  49.358  1.00  0.00     0.067 C 
HETATM   13  N3  UNL     1      31.490   6.439  48.516  1.00  0.00    -0.015 N 
HETATM   14  C11 UNL     1      30.720   5.476  47.667  1.00  0.00     0.340 C 
HETATM   15  C14 UNL     1      31.798   6.057  49.995  1.00  0.00     0.234 C 
HETATM   16  C16 UNL     1      32.024   7.458  47.421  1.00  0.00     0.222 A 
BRANCH  14  17
HETATM   17  O1  UNL     1      29.556   4.980  48.125  1.00  0.00    -0.328 OA
BRANCH  17  18
HETATM   18  C12 UNL     1      28.288   5.478  48.187  1.00  0.00     0.154 C 
HETATM   19  C13 UNL     1      27.121   5.324  48.771  1.00  0.00     0.104 C 
BRANCH  19  20
HETATM   20  N2  UNL     1      26.859   4.333  49.725  1.00  0.00    -0.406 N 
HETATM   21  H12 UNL     1      26.437   3.453  50.035  1.00  0.00     0.155 HD
HETATM   22  H13 UNL     1      27.300   4.509  50.672  1.00  0.00     0.155 HD
ENDBRANCH  19  20
ENDBRANCH  17  18
ENDBRANCH  14  17
BRANCH  16  23
HETATM   23  C17 UNL     1      32.346   8.739  47.966  1.00  0.00     0.055 C 
BRANCH  23  24
HETATM   24  C18 UNL     1      31.228   9.766  48.003  1.00  0.00     0.119 C 
BRANCH  24  25
HETATM   25  N4  UNL     1      30.261   9.422  47.003  1.00  0.00    -0.408 N 
HETATM   26  C19 UNL     1      28.952   9.128  47.441  1.00  0.00     0.143 C 
HETATM   27  C20 UNL     1      28.183   8.626  46.209  1.00  0.00     0.187 C 
HETATM   28  O2  UNL     1      29.088   8.187  45.228  1.00  0.00    -0.388 OA
HETATM   29  C21 UNL     1      29.664   9.327  44.677  1.00  0.00     0.187 C 
HETATM   30  C22 UNL     1      30.422  10.069  45.752  1.00  0.00     0.143 C 
ENDBRANCH  24  25
ENDBRANCH  23  24
ENDBRANCH  16  23
ENDBRANCH   8   9
TORSDOF 7
ENDMDL
MODEL 7
REMARK VINA RESULT:      -6.1      1.144      2.313
REMARK  7 active torsions:
REMARK  status: ('A' for Active; 'I' for Inactive)
REMARK    1  A    between atoms: N1_8  and  C8_9 
REMARK    2  A    between atoms: C11_12  and  O1_13 
REMARK    3  A    between atoms: O1_13  and  C12_14 
REMARK    4  A    between atoms: C13_15  and  N2_16 
REMARK    5  A    between atoms: C16_20  and  C17_21 
REMARK    6  A    between atoms: C17_21  and  C18_22 
REMARK    7  A    between atoms: C18_22  and  N4_23 
ROOT
HETATM    1  C1  UNL     1      24.814   1.739  52.180  1.00  0.00     0.019 C 
HETATM    2  C2  UNL     1      23.932   1.114  52.704  1.00  0.00    -0.060 C 
HETATM    3  C3  UNL     1      22.904   0.362  53.340  1.00  0.00     0.085 A 
HETATM    4  C4  UNL     1      23.229  -0.790  53.883  1.00  0.00     0.016 A 
HETATM    5  C5  UNL     1      22.240  -1.632  54.559  1.00  0.00     0.058 A 
HETATM    6  C6  UNL     1      20.889  -1.042  54.562  1.00  0.00    -0.006 A 
HETATM    7  C7  UNL     1      20.625   0.150  53.986  1.00  0.00     0.089 A 
HETATM    8  N1  UNL     1      21.649   0.943  53.321  1.00  0.00    -0.341 N 
ENDROOT
BRANCH   8   9
HETATM    9  C8  UNL     1      20.963   2.077  52.877  1.00  0.00     0.159 A 
HETATM   10  C9  UNL     1      19.937   1.699  51.658  1.00  0.00     0.171 A 
HETATM   11  C10 UNL     1      20.285   0.585  50.909  1.00  0.00     0.093 C 
HETATM   12  C15 UNL     1      19.403   3.177  51.612  1.00  0.00     0.067 C 
HETATM   13  N3  UNL     1      20.787   2.744  50.708  1.00  0.00    -0.015 N 
HETATM   14  C11 UNL     1      21.332   1.461  50.163  1.00  0.00     0.340 C 
HETATM   15  C14 UNL     1      19.383   3.225  50.235  1.00  0.00     0.234 C 
HETATM   16  C16 UNL     1      21.793   3.023  51.905  1.00  0.00     0.222 A 
BRANCH  14  17
HETATM   17  O1  UNL     1      21.352   1.267  48.832  1.00  0.00    -0.328 OA
BRANCH  17  18
HETATM   18  C12 UNL     1      22.011   1.881  47.808  1.00  0.00     0.154 C 
HETATM   19  C13 UNL     1      22.433   3.047  47.372  1.00  0.00     0.104 C 
BRANCH  19  20
HETATM   20  N2  UNL     1      22.239   4.248  48.066  1.00  0.00    -0.406 N 
HETATM   21  H12 UNL     1      22.562   5.135  48.461  1.00  0.00     0.155 HD
HETATM   22  H13 UNL     1      21.246   4.406  48.401  1.00  0.00     0.155 HD
ENDBRANCH  19  20
ENDBRANCH  17  18
ENDBRANCH  14  17
BRANCH  16  23
HETATM   23  C17 UNL     1      21.844   4.401  52.277  1.00  0.00     0.055 C 
BRANCH  23  24
HETATM   24  C18 UNL     1      23.148   5.132  52.011  1.00  0.00     0.119 C 
BRANCH  24  25
HETATM   25  N4  UNL     1      22.904   6.160  51.041  1.00  0.00    -0.408 N 
HETATM   26  C19 UNL     1      21.563   6.551  50.834  1.00  0.00     0.143 C 
HETATM   27  C20 UNL     1      21.571   7.516  49.639  1.00  0.00     0.187 C 
HETATM   28  O2  UNL     1      22.742   7.333  48.885  1.00  0.00    -0.388 OA
HETATM   29  C21 UNL     1      23.783   7.889  49.622  1.00  0.00     0.187 C 
HETATM   30  C22 UNL     1      23.916   7.146  50.931  1.00  0.00     0.143 C 
ENDBRANCH  24  25
ENDBRANCH  23  24
ENDBRANCH  16  23
ENDBRANCH   8   9
TORSDOF 7
ENDMDL
MODEL 8
REMARK VINA RESULT:      -6.1      1.760      4.179
REMARK  7 active torsions:
REMARK  status: ('A' for Active; 'I' for Inactive)
REMARK    1  A    between atoms: N1_8  and  C8_9 
REMARK    2  A    between atoms: C11_12  and  O1_13 
REMARK    3  A    between atoms: O1_13  and  C12_14 
REMARK    4  A    between atoms: C13_15  and  N2_16 
REMARK    5  A    between atoms: C16_20  and  C17_21 
REMARK    6  A    between atoms: C17_21  and  C18_22 
REMARK    7  A    between atoms: C18_22  and  N4_23 
ROOT
HETATM    1  C1  UNL     1      25.720  -0.296  53.275  1.00  0.00     0.019 C 
HETATM    2  C2  UNL     1      24.553  -0.038  53.150  1.00  0.00    -0.060 C 
HETATM    3  C3  UNL     1      23.168   0.266  53.027  1.00  0.00     0.085 A 
HETATM    4  C4  UNL     1      22.356  -0.169  53.965  1.00  0.00     0.016 A 
HETATM    5  C5  UNL     1      20.916   0.096  53.924  1.00  0.00     0.058 A 
HETATM    6  C6  UNL     1      20.511   0.890  52.749  1.00  0.00    -0.006 A 
HETATM    7  C7  UNL     1      21.401   1.307  51.823  1.00  0.00     0.089 A 
HETATM    8  N1  UNL     1      22.823   1.009  51.913  1.00  0.00    -0.341 N 
ENDROOT
BRANCH   8   9
HETATM    9  C8  UNL     1      23.367   1.615  50.778  1.00  0.00     0.159 A 
HETATM   10  C9  UNL     1      24.202   2.966  51.179  1.00  0.00     0.171 A 
HETATM   11  C10 UNL     1      23.798   3.591  52.349  1.00  0.00     0.093 C 
HETATM   12  C15 UNL     1      24.642   3.172  49.684  1.00  0.00     0.067 C 
HETATM   13  N3  UNL     1      23.155   3.815  50.230  1.00  0.00    -0.015 N 
HETATM   14  C11 UNL     1      22.599   4.199  51.565  1.00  0.00     0.340 C 
HETATM   15  C14 UNL     1      24.437   4.535  49.715  1.00  0.00     0.234 C 
HETATM   16  C16 UNL     1      22.342   2.484  49.928  1.00  0.00     0.222 A 
BRANCH  14  17
HETATM   17  O1  UNL     1      22.375   5.497  51.837  1.00  0.00    -0.328 OA
BRANCH  17  18
HETATM   18  C12 UNL     1      21.658   6.473  51.210  1.00  0.00     0.154 C 
HETATM   19  C13 UNL     1      21.767   7.573  50.499  1.00  0.00     0.104 C 
BRANCH  19  20
HETATM   20  N2  UNL     1      22.996   8.135  50.129  1.00  0.00    -0.406 N 
HETATM   21  H12 UNL     1      23.860   8.648  50.324  1.00  0.00     0.155 HD
HETATM   22  H13 UNL     1      23.247   8.006  49.108  1.00  0.00     0.155 HD
ENDBRANCH  19  20
ENDBRANCH  17  18
ENDBRANCH  14  17
BRANCH  16  23
HETATM   23  C17 UNL     1      22.278   2.179  48.534  1.00  0.00     0.055 C 
BRANCH  23  24
HETATM   24  C18 UNL     1      21.031   2.628  47.793  1.00  0.00     0.119 C 
BRANCH  24  25
HETATM   25  N4  UNL     1      21.330   3.842  47.092  1.00  0.00    -0.408 N 
HETATM   26  C19 UNL     1      21.504   3.758  45.694  1.00  0.00     0.143 C 
HETATM   27  C20 UNL     1      21.985   5.142  45.231  1.00  0.00     0.187 C 
HETATM   28  O2  UNL     1      22.528   5.847  46.319  1.00  0.00    -0.388 OA
HETATM   29  C21 UNL     1      21.457   6.242  47.113  1.00  0.00     0.187 C 
HETATM   30  C22 UNL     1      20.741   5.015  47.627  1.00  0.00     0.143 C 
ENDBRANCH  24  25
ENDBRANCH  23  24
ENDBRANCH  16  23
ENDBRANCH   8   9
TORSDOF 7
ENDMDL
MODEL 9
REMARK VINA RESULT:      -6.1      1.996      4.595
REMARK  7 active torsions:
REMARK  status: ('A' for Active; 'I' for Inactive)
REMARK    1  A    between atoms: N1_8  and  C8_9 
REMARK    2  A    between atoms: C11_12  and  O1_13 
REMARK    3  A    between atoms: O1_13  and  C12_14 
REMARK    4  A    between atoms: C13_15  and  N2_16 
REMARK    5  A    between atoms: C16_20  and  C17_21 
REMARK    6  A    between atoms: C17_21  and  C18_22 
REMARK    7  A    between atoms: C18_22  and  N4_23 
ROOT
HETATM    1  C1  UNL     1      19.742   2.791  51.897  1.00  0.00     0.019 C 
HETATM    2  C2  UNL     1      20.458   1.992  52.438  1.00  0.00    -0.060 C 
HETATM    3  C3  UNL     1      21.286   1.035  53.090  1.00  0.00     0.085 A 
HETATM    4  C4  UNL     1      20.822   0.457  54.176  1.00  0.00     0.016 A 
HETATM    5  C5  UNL     1      21.602  -0.541  54.913  1.00  0.00     0.058 A 
HETATM    6  C6  UNL     1      22.915  -0.811  54.301  1.00  0.00    -0.006 A 
HETATM    7  C7  UNL     1      23.328  -0.180  53.180  1.00  0.00     0.089 A 
HETATM    8  N1  UNL     1      22.512   0.809  52.491  1.00  0.00    -0.341 N 
ENDROOT
BRANCH   8   9
HETATM    9  C8  UNL     1      23.300   1.200  51.406  1.00  0.00     0.159 A 
HETATM   10  C9  UNL     1      24.492   2.217  51.884  1.00  0.00     0.171 A 
HETATM   11  C10 UNL     1      24.226   2.948  53.032  1.00  0.00     0.093 C 
HETATM   12  C15 UNL     1      25.079   2.259  50.426  1.00  0.00     0.067 C 
HETATM   13  N3  UNL     1      23.841   3.348  50.876  1.00  0.00    -0.015 N 
HETATM   14  C11 UNL     1      23.343   3.900  52.175  1.00  0.00     0.340 C 
HETATM   15  C14 UNL     1      25.319   3.616  50.463  1.00  0.00     0.234 C 
HETATM   16  C16 UNL     1      22.669   2.343  50.499  1.00  0.00     0.222 A 
BRANCH  14  17
HETATM   17  O1  UNL     1      23.526   5.205  52.449  1.00  0.00    -0.328 OA
BRANCH  17  18
HETATM   18  C12 UNL     1      23.444   6.338  51.695  1.00  0.00     0.154 C 
HETATM   19  C13 UNL     1      24.160   7.230  51.049  1.00  0.00     0.104 C 
BRANCH  19  20
HETATM   20  N2  UNL     1      25.559   7.194  50.976  1.00  0.00    -0.406 N 
HETATM   21  H12 UNL     1      26.447   6.759  50.713  1.00  0.00     0.155 HD
HETATM   22  H13 UNL     1      26.042   8.036  51.398  1.00  0.00     0.155 HD
ENDBRANCH  19  20
ENDBRANCH  17  18
ENDBRANCH  14  17
BRANCH  16  23
HETATM   23  C17 UNL     1      22.610   2.062  49.099  1.00  0.00     0.055 C 
BRANCH  23  24
HETATM   24  C18 UNL     1      21.244   1.724  48.528  1.00  0.00     0.119 C 
BRANCH  24  25
HETATM   25  N4  UNL     1      20.914   2.700  47.530  1.00  0.00    -0.408 N 
HETATM   26  C19 UNL     1      19.784   3.511  47.766  1.00  0.00     0.143 C 
HETATM   27  C20 UNL     1      19.557   4.326  46.483  1.00  0.00     0.187 C 
HETATM   28  O2  UNL     1      20.193   3.697  45.400  1.00  0.00    -0.388 OA
HETATM   29  C21 UNL     1      21.558   3.912  45.558  1.00  0.00     0.187 C 
HETATM   30  C22 UNL     1      22.017   3.266  46.844  1.00  0.00     0.143 C 
ENDBRANCH  24  25
ENDBRANCH  23  24
ENDBRANCH  16  23
ENDBRANCH   8   9
TORSDOF 7
ENDMDL
