MODEL 1
REMARK VINA RESULT:      -8.5      0.000      0.000
REMARK  2 active torsions:
REMARK  status: ('A' for Active; 'I' for Inactive)
REMARK    1  A    between atoms: C4_5  and  N1_6 
REMARK    2  A    between atoms: N1_6  and  C5_7 
ROOT
HETATM    1  C5  UNL     1      26.173   0.856  52.734  1.00  0.00     0.049 A 
HETATM    2  C6  UNL     1      27.518   1.105  52.893  1.00  0.00     0.050 A 
HETATM    3  C7  UNL     1      28.137   0.604  54.026  1.00  0.00     0.122 A 
HETATM    4  N2  UNL     1      27.476  -0.105  54.957  1.00  0.00    -0.236 NA
HETATM    5  C8  UNL     1      26.161  -0.368  54.833  1.00  0.00     0.183 A 
HETATM    6  O1  UNL     1      25.272  -1.011  55.548  1.00  0.00    -0.290 OA
HETATM    7  C9  UNL     1      24.101  -0.982  54.985  1.00  0.00     0.089 A 
HETATM    8  C10 UNL     1      22.899  -1.522  55.387  1.00  0.00     0.038 A 
HETATM    9  C11 UNL     1      21.783  -1.350  54.602  1.00  0.00     0.003 A 
HETATM   10  C12 UNL     1      21.910  -0.626  53.413  1.00  0.00     0.001 A 
HETATM   11  C13 UNL     1      23.127  -0.108  53.056  1.00  0.00     0.015 A 
HETATM   12  C14 UNL     1      24.256  -0.263  53.817  1.00  0.00     0.015 A 
HETATM   13  C15 UNL     1      25.562   0.139  53.698  1.00  0.00     0.057 A 
ENDROOT
BRANCH   1  14
HETATM   14  N1  UNL     1      25.603   1.395  51.571  1.00  0.00    -0.355 N 
HETATM   15  H3  UNL     1      25.394   1.172  50.587  1.00  0.00     0.166 HD
BRANCH  14  16
HETATM   16  C4  UNL     1      25.045   2.700  51.508  1.00  0.00     0.032 A 
HETATM   17  C3  UNL     1      25.404   3.508  50.422  1.00  0.00     0.031 A 
HETATM   18  C2  UNL     1      24.927   4.779  50.224  1.00  0.00     0.026 A 
HETATM   19  C1  UNL     1      24.041   5.331  51.120  1.00  0.00     0.034 A 
HETATM   20 CL1  UNL     1      23.377   6.933  50.960  1.00  0.00    -0.084 Cl
HETATM   21  C17 UNL     1      23.650   4.586  52.209  1.00  0.00     0.026 A 
HETATM   22  C16 UNL     1      24.147   3.332  52.367  1.00  0.00     0.031 A 
ENDBRANCH  14  16
ENDBRANCH   1  14
TORSDOF 2
ENDMDL
MODEL 2
REMARK VINA RESULT:      -8.3      2.049      2.990
REMARK  2 active torsions:
REMARK  status: ('A' for Active; 'I' for Inactive)
REMARK    1  A    between atoms: C4_5  and  N1_6 
REMARK    2  A    between atoms: N1_6  and  C5_7 
ROOT
HETATM    1  C5  UNL     1      23.924  -0.163  53.446  1.00  0.00     0.049 A 
HETATM    2  C6  UNL     1      24.897  -0.517  54.352  1.00  0.00     0.050 A 
HETATM    3  C7  UNL     1      24.502  -1.209  55.485  1.00  0.00     0.122 A 
HETATM    4  N2  UNL     1      23.220  -1.539  55.721  1.00  0.00    -0.236 NA
HETATM    5  C8  UNL     1      22.243  -1.208  54.855  1.00  0.00     0.183 A 
HETATM    6  O1  UNL     1      20.946  -1.384  54.810  1.00  0.00    -0.290 OA
HETATM    7  C9  UNL     1      20.436  -0.864  53.734  1.00  0.00     0.089 A 
HETATM    8  C10 UNL     1      19.132  -0.818  53.291  1.00  0.00     0.038 A 
HETATM    9  C11 UNL     1      18.843  -0.198  52.098  1.00  0.00     0.003 A 
HETATM   10  C12 UNL     1      19.893   0.369  51.371  1.00  0.00     0.001 A 
HETATM   11  C13 UNL     1      21.174   0.300  51.853  1.00  0.00     0.015 A 
HETATM   12  C14 UNL     1      21.492  -0.312  53.037  1.00  0.00     0.015 A 
HETATM   13  C15 UNL     1      22.655  -0.519  53.733  1.00  0.00     0.057 A 
ENDROOT
BRANCH   1  14
HETATM   14  N1  UNL     1      24.385   0.543  52.324  1.00  0.00    -0.355 N 
HETATM   15  H3  UNL     1      24.906   0.422  51.443  1.00  0.00     0.166 HD
BRANCH  14  16
HETATM   16  C4  UNL     1      24.159   1.931  52.127  1.00  0.00     0.032 A 
HETATM   17  C3  UNL     1      24.044   2.390  50.809  1.00  0.00     0.031 A 
HETATM   18  C2  UNL     1      23.805   3.699  50.473  1.00  0.00     0.026 A 
HETATM   19  C1  UNL     1      23.664   4.649  51.457  1.00  0.00     0.034 A 
HETATM   20 CL1  UNL     1      23.360   6.334  51.137  1.00  0.00    -0.084 Cl
HETATM   21  C17 UNL     1      23.767   4.260  52.774  1.00  0.00     0.026 A 
HETATM   22  C16 UNL     1      24.004   2.954  53.061  1.00  0.00     0.031 A 
ENDBRANCH  14  16
ENDBRANCH   1  14
TORSDOF 2
ENDMDL
MODEL 3
REMARK VINA RESULT:      -8.2      3.968      7.108
REMARK  2 active torsions:
REMARK  status: ('A' for Active; 'I' for Inactive)
REMARK    1  A    between atoms: C4_5  and  N1_6 
REMARK    2  A    between atoms: N1_6  and  C5_7 
ROOT
HETATM    1  C5  UNL     1      24.390   3.158  51.266  1.00  0.00     0.049 A 
HETATM    2  C6  UNL     1      23.284   3.070  52.080  1.00  0.00     0.050 A 
HETATM    3  C7  UNL     1      22.591   4.237  52.357  1.00  0.00     0.122 A 
HETATM    4  N2  UNL     1      22.962   5.431  51.863  1.00  0.00    -0.236 NA
HETATM    5  C8  UNL     1      24.039   5.553  51.064  1.00  0.00     0.183 A 
HETATM    6  O1  UNL     1      24.629   6.548  50.448  1.00  0.00    -0.290 OA
HETATM    7  C9  UNL     1      25.666   6.142  49.779  1.00  0.00     0.089 A 
HETATM    8  C10 UNL     1      26.562   6.842  49.001  1.00  0.00     0.038 A 
HETATM    9  C11 UNL     1      27.593   6.171  48.385  1.00  0.00     0.003 A 
HETATM   10  C12 UNL     1      27.696   4.790  48.574  1.00  0.00     0.001 A 
HETATM   11  C13 UNL     1      26.780   4.138  49.358  1.00  0.00     0.015 A 
HETATM   12  C14 UNL     1      25.743   4.779  49.983  1.00  0.00     0.015 A 
HETATM   13  C15 UNL     1      24.715   4.381  50.799  1.00  0.00     0.057 A 
ENDROOT
BRANCH   1  14
HETATM   14  N1  UNL     1      25.052   1.944  51.029  1.00  0.00    -0.355 N 
HETATM   15  H3  UNL     1      25.063   1.132  50.395  1.00  0.00     0.166 HD
BRANCH  14  16
HETATM   16  C4  UNL     1      26.130   1.473  51.826  1.00  0.00     0.032 A 
HETATM   17  C3  UNL     1      26.226   0.094  52.040  1.00  0.00     0.031 A 
HETATM   18  C2  UNL     1      27.225  -0.500  52.770  1.00  0.00     0.026 A 
HETATM   19  C1  UNL     1      28.210   0.269  53.344  1.00  0.00     0.034 A 
HETATM   20 CL1  UNL     1      29.519  -0.384  54.288  1.00  0.00    -0.084 Cl
HETATM   21  C17 UNL     1      28.170   1.635  53.170  1.00  0.00     0.026 A 
HETATM   22  C16 UNL     1      27.164   2.180  52.440  1.00  0.00     0.031 A 
ENDBRANCH  14  16
ENDBRANCH   1  14
TORSDOF 2
ENDMDL
MODEL 4
REMARK VINA RESULT:      -8.0      1.885      3.707
REMARK  2 active torsions:
REMARK  status: ('A' for Active; 'I' for Inactive)
REMARK    1  A    between atoms: C4_5  and  N1_6 
REMARK    2  A    between atoms: N1_6  and  C5_7 
ROOT
HETATM    1  C5  UNL     1      22.490  -0.179  52.909  1.00  0.00     0.049 A 
HETATM    2  C6  UNL     1      21.349  -0.659  53.509  1.00  0.00     0.050 A 
HETATM    3  C7  UNL     1      21.483  -1.301  54.729  1.00  0.00     0.122 A 
HETATM    4  N2  UNL     1      22.673  -1.466  55.332  1.00  0.00    -0.236 NA
HETATM    5  C8  UNL     1      23.809  -1.009  54.773  1.00  0.00     0.183 A 
HETATM    6  O1  UNL     1      25.075  -1.017  55.107  1.00  0.00    -0.290 OA
HETATM    7  C9  UNL     1      25.806  -0.431  54.207  1.00  0.00     0.089 A 
HETATM    8  C10 UNL     1      27.166  -0.218  54.154  1.00  0.00     0.038 A 
HETATM    9  C11 UNL     1      27.708   0.440  53.075  1.00  0.00     0.003 A 
HETATM   10  C12 UNL     1      26.850   0.873  52.060  1.00  0.00     0.001 A 
HETATM   11  C13 UNL     1      25.504   0.637  52.157  1.00  0.00     0.015 A 
HETATM   12  C14 UNL     1      24.936  -0.015  53.219  1.00  0.00     0.015 A 
HETATM   13  C15 UNL     1      23.656  -0.373  53.559  1.00  0.00     0.057 A 
ENDROOT
BRANCH   1  14
HETATM   14  N1  UNL     1      22.291   0.454  51.673  1.00  0.00    -0.355 N 
HETATM   15  H3  UNL     1      22.097   0.259  50.679  1.00  0.00     0.166 HD
BRANCH  14  16
HETATM   16  C4  UNL     1      22.315   1.864  51.504  1.00  0.00     0.032 A 
HETATM   17  C3  UNL     1      22.764   2.364  50.276  1.00  0.00     0.031 A 
HETATM   18  C2  UNL     1      22.821   3.700  49.968  1.00  0.00     0.026 A 
HETATM   19  C1  UNL     1      22.422   4.638  50.892  1.00  0.00     0.034 A 
HETATM   20 CL1  UNL     1      22.455   6.354  50.601  1.00  0.00    -0.084 Cl
HETATM   21  C17 UNL     1      21.970   4.209  52.119  1.00  0.00     0.026 A 
HETATM   22  C16 UNL     1      21.931   2.877  52.381  1.00  0.00     0.031 A 
ENDBRANCH  14  16
ENDBRANCH   1  14
TORSDOF 2
ENDMDL
MODEL 5
REMARK VINA RESULT:      -7.8      1.298      1.497
REMARK  2 active torsions:
REMARK  status: ('A' for Active; 'I' for Inactive)
REMARK    1  A    between atoms: C4_5  and  N1_6 
REMARK    2  A    between atoms: N1_6  and  C5_7 
ROOT
HETATM    1  C5  UNL     1      24.886   1.343  51.838  1.00  0.00     0.049 A 
HETATM    2  C6  UNL     1      26.206   1.707  51.701  1.00  0.00     0.050 A 
HETATM    3  C7  UNL     1      27.110   1.219  52.631  1.00  0.00     0.122 A 
HETATM    4  N2  UNL     1      26.742   0.414  53.643  1.00  0.00    -0.236 NA
HETATM    5  C8  UNL     1      25.459   0.039  53.806  1.00  0.00     0.183 A 
HETATM    6  O1  UNL     1      24.815  -0.712  54.665  1.00  0.00    -0.290 OA
HETATM    7  C9  UNL     1      23.547  -0.766  54.387  1.00  0.00     0.089 A 
HETATM    8  C10 UNL     1      22.517  -1.429  55.020  1.00  0.00     0.038 A 
HETATM    9  C11 UNL     1      21.239  -1.328  54.523  1.00  0.00     0.003 A 
HETATM   10  C12 UNL     1      21.028  -0.547  53.382  1.00  0.00     0.001 A 
HETATM   11  C13 UNL     1      22.084   0.094  52.789  1.00  0.00     0.015 A 
HETATM   12  C14 UNL     1      23.367   0.011  53.261  1.00  0.00     0.015 A 
HETATM   13  C15 UNL     1      24.574   0.535  52.872  1.00  0.00     0.057 A 
ENDROOT
BRANCH   1  14
HETATM   14  N1  UNL     1      24.019   1.875  50.872  1.00  0.00    -0.355 N 
HETATM   15  H3  UNL     1      23.567   1.654  49.972  1.00  0.00     0.166 HD
BRANCH  14  16
HETATM   16  C4  UNL     1      23.432   3.165  50.974  1.00  0.00     0.032 A 
HETATM   17  C3  UNL     1      23.518   4.008  49.860  1.00  0.00     0.031 A 
HETATM   18  C2  UNL     1      22.979   5.269  49.811  1.00  0.00     0.026 A 
HETATM   19  C1  UNL     1      22.308   5.775  50.900  1.00  0.00     0.034 A 
HETATM   20 CL1  UNL     1      21.589   7.360  50.941  1.00  0.00    -0.084 Cl
HETATM   21  C17 UNL     1      22.191   4.993  52.028  1.00  0.00     0.026 A 
HETATM   22  C16 UNL     1      22.739   3.751  52.032  1.00  0.00     0.031 A 
ENDBRANCH  14  16
ENDBRANCH   1  14
TORSDOF 2
ENDMDL
MODEL 6
REMARK VINA RESULT:      -7.8      2.570      2.988
REMARK  2 active torsions:
REMARK  status: ('A' for Active; 'I' for Inactive)
REMARK    1  A    between atoms: C4_5  and  N1_6 
REMARK    2  A    between atoms: N1_6  and  C5_7 
ROOT
HETATM    1  C5  UNL     1      24.509   2.130  51.697  1.00  0.00     0.049 A 
HETATM    2  C6  UNL     1      25.783   2.354  51.227  1.00  0.00     0.050 A 
HETATM    3  C7  UNL     1      26.782   1.482  51.630  1.00  0.00     0.122 A 
HETATM    4  N2  UNL     1      26.547   0.445  52.451  1.00  0.00    -0.236 NA
HETATM    5  C8  UNL     1      25.313   0.197  52.929  1.00  0.00     0.183 A 
HETATM    6  O1  UNL     1      24.789  -0.706  53.720  1.00  0.00    -0.290 OA
HETATM    7  C9  UNL     1      23.515  -0.511  53.882  1.00  0.00     0.089 A 
HETATM    8  C10 UNL     1      22.586  -1.212  54.621  1.00  0.00     0.038 A 
HETATM    9  C11 UNL     1      21.275  -0.797  54.630  1.00  0.00     0.003 A 
HETATM   10  C12 UNL     1      20.928   0.331  53.882  1.00  0.00     0.001 A 
HETATM   11  C13 UNL     1      21.887   0.995  53.163  1.00  0.00     0.015 A 
HETATM   12  C14 UNL     1      23.200   0.606  53.135  1.00  0.00     0.015 A 
HETATM   13  C15 UNL     1      24.332   1.075  52.518  1.00  0.00     0.057 A 
ENDROOT
BRANCH   1  14
HETATM   14  N1  UNL     1      23.545   3.051  51.260  1.00  0.00    -0.355 N 
HETATM   15  H3  UNL     1      22.952   3.828  51.589  1.00  0.00     0.166 HD
BRANCH  14  16
HETATM   16  C4  UNL     1      23.074   3.114  49.921  1.00  0.00     0.032 A 
HETATM   17  C3  UNL     1      23.146   4.348  49.265  1.00  0.00     0.031 A 
HETATM   18  C2  UNL     1      22.748   4.549  47.967  1.00  0.00     0.026 A 
HETATM   19  C1  UNL     1      22.241   3.503  47.232  1.00  0.00     0.034 A 
HETATM   20 CL1  UNL     1      21.708   3.652  45.581  1.00  0.00    -0.084 Cl
HETATM   21  C17 UNL     1      22.144   2.263  47.823  1.00  0.00     0.026 A 
HETATM   22  C16 UNL     1      22.550   2.109  49.109  1.00  0.00     0.031 A 
ENDBRANCH  14  16
ENDBRANCH   1  14
TORSDOF 2
ENDMDL
MODEL 7
REMARK VINA RESULT:      -7.5      2.966      4.492
REMARK  2 active torsions:
REMARK  status: ('A' for Active; 'I' for Inactive)
REMARK    1  A    between atoms: C4_5  and  N1_6 
REMARK    2  A    between atoms: N1_6  and  C5_7 
ROOT
HETATM    1  C5  UNL     1      22.056   1.752  52.571  1.00  0.00     0.049 A 
HETATM    2  C6  UNL     1      20.766   1.565  53.014  1.00  0.00     0.050 A 
HETATM    3  C7  UNL     1      20.500   0.432  53.765  1.00  0.00     0.122 A 
HETATM    4  N2  UNL     1      21.446  -0.473  54.069  1.00  0.00    -0.236 NA
HETATM    5  C8  UNL     1      22.717  -0.321  53.652  1.00  0.00     0.183 A 
HETATM    6  O1  UNL     1      23.825  -1.008  53.785  1.00  0.00    -0.290 OA
HETATM    7  C9  UNL     1      24.817  -0.426  53.180  1.00  0.00     0.089 A 
HETATM    8  C10 UNL     1      26.140  -0.797  53.065  1.00  0.00     0.038 A 
HETATM    9  C11 UNL     1      27.009   0.003  52.361  1.00  0.00     0.003 A 
HETATM   10  C12 UNL     1      26.514   1.174  51.780  1.00  0.00     0.001 A 
HETATM   11  C13 UNL     1      25.191   1.500  51.921  1.00  0.00     0.015 A 
HETATM   12  C14 UNL     1      24.302   0.724  52.617  1.00  0.00     0.015 A 
HETATM   13  C15 UNL     1      22.964   0.813  52.905  1.00  0.00     0.057 A 
ENDROOT
BRANCH   1  14
HETATM   14  N1  UNL     1      22.260   2.912  51.809  1.00  0.00    -0.355 N 
HETATM   15  H3  UNL     1      22.473   3.917  51.896  1.00  0.00     0.166 HD
BRANCH  14  16
HETATM   16  C4  UNL     1      22.207   2.935  50.390  1.00  0.00     0.032 A 
HETATM   17  C3  UNL     1      22.258   4.182  49.758  1.00  0.00     0.031 A 
HETATM   18  C2  UNL     1      22.237   4.351  48.396  1.00  0.00     0.026 A 
HETATM   19  C1  UNL     1      22.160   3.257  47.566  1.00  0.00     0.034 A 
HETATM   20 CL1  UNL     1      22.127   3.363  45.828  1.00  0.00    -0.084 Cl
HETATM   21  C17 UNL     1      22.106   2.002  48.129  1.00  0.00     0.026 A 
HETATM   22  C16 UNL     1      22.130   1.881  49.481  1.00  0.00     0.031 A 
ENDBRANCH  14  16
ENDBRANCH   1  14
TORSDOF 2
ENDMDL
MODEL 8
REMARK VINA RESULT:      -7.5      2.985      5.493
REMARK  2 active torsions:
REMARK  status: ('A' for Active; 'I' for Inactive)
REMARK    1  A    between atoms: C4_5  and  N1_6 
REMARK    2  A    between atoms: N1_6  and  C5_7 
ROOT
HETATM    1  C5  UNL     1      24.259   1.000  52.837  1.00  0.00     0.049 A 
HETATM    2  C6  UNL     1      24.575  -0.171  53.486  1.00  0.00     0.050 A 
HETATM    3  C7  UNL     1      25.821  -0.726  53.245  1.00  0.00     0.122 A 
HETATM    4  N2  UNL     1      26.713  -0.164  52.411  1.00  0.00    -0.236 NA
HETATM    5  C8  UNL     1      26.436   0.982  51.761  1.00  0.00     0.183 A 
HETATM    6  O1  UNL     1      27.080   1.746  50.914  1.00  0.00    -0.290 OA
HETATM    7  C9  UNL     1      26.364   2.773  50.564  1.00  0.00     0.089 A 
HETATM    8  C10 UNL     1      26.646   3.813  49.706  1.00  0.00     0.038 A 
HETATM    9  C11 UNL     1      25.706   4.796  49.500  1.00  0.00     0.003 A 
HETATM   10  C12 UNL     1      24.485   4.701  50.176  1.00  0.00     0.001 A 
HETATM   11  C13 UNL     1      24.251   3.647  51.018  1.00  0.00     0.015 A 
HETATM   12  C14 UNL     1      25.168   2.655  51.243  1.00  0.00     0.015 A 
HETATM   13  C15 UNL     1      25.191   1.519  52.013  1.00  0.00     0.057 A 
ENDROOT
BRANCH   1  14
HETATM   14  N1  UNL     1      22.981   1.508  53.117  1.00  0.00    -0.355 N 
HETATM   15  H3  UNL     1      22.480   2.156  53.743  1.00  0.00     0.166 HD
BRANCH  14  16
HETATM   16  C4  UNL     1      21.816   1.133  52.395  1.00  0.00     0.032 A 
HETATM   17  C3  UNL     1      20.693   0.742  53.132  1.00  0.00     0.031 A 
HETATM   18  C2  UNL     1      19.497   0.376  52.568  1.00  0.00     0.026 A 
HETATM   19  C1  UNL     1      19.350   0.378  51.200  1.00  0.00     0.034 A 
HETATM   20 CL1  UNL     1      17.877  -0.069  50.386  1.00  0.00    -0.084 Cl
HETATM   21  C17 UNL     1      20.420   0.753  50.420  1.00  0.00     0.026 A 
HETATM   22  C16 UNL     1      21.585   1.108  51.020  1.00  0.00     0.031 A 
ENDBRANCH  14  16
ENDBRANCH   1  14
TORSDOF 2
ENDMDL
MODEL 9
REMARK VINA RESULT:      -7.3      6.656      9.582
REMARK  2 active torsions:
REMARK  status: ('A' for Active; 'I' for Inactive)
REMARK    1  A    between atoms: C4_5  and  N1_6 
REMARK    2  A    between atoms: N1_6  and  C5_7 
ROOT
HETATM    1  C5  UNL     1      29.445   7.486  48.342  1.00  0.00     0.049 A 
HETATM    2  C6  UNL     1      29.031   8.702  48.838  1.00  0.00     0.050 A 
HETATM    3  C7  UNL     1      29.975   9.497  49.468  1.00  0.00     0.122 A 
HETATM    4  N2  UNL     1      31.258   9.123  49.605  1.00  0.00    -0.236 NA
HETATM    5  C8  UNL     1      31.697   7.941  49.132  1.00  0.00     0.183 A 
HETATM    6  O1  UNL     1      32.850   7.320  49.114  1.00  0.00    -0.290 OA
HETATM    7  C9  UNL     1      32.757   6.167  48.521  1.00  0.00     0.089 A 
HETATM    8  C10 UNL     1      33.710   5.201  48.284  1.00  0.00     0.038 A 
HETATM    9  C11 UNL     1      33.355   4.047  47.625  1.00  0.00     0.003 A 
HETATM   10  C12 UNL     1      32.027   3.894  47.217  1.00  0.00     0.001 A 
HETATM   11  C13 UNL     1      31.115   4.883  47.477  1.00  0.00     0.015 A 
HETATM   12  C14 UNL     1      31.439   6.043  48.130  1.00  0.00     0.015 A 
HETATM   13  C15 UNL     1      30.743   7.163  48.509  1.00  0.00     0.057 A 
ENDROOT
BRANCH   1  14
HETATM   14  N1  UNL     1      28.442   6.724  47.724  1.00  0.00    -0.355 N 
HETATM   15  H3  UNL     1      28.099   6.426  46.799  1.00  0.00     0.166 HD
BRANCH  14  16
HETATM   16  C4  UNL     1      27.440   6.020  48.443  1.00  0.00     0.032 A 
HETATM   17  C3  UNL     1      27.662   4.664  48.708  1.00  0.00     0.031 A 
HETATM   18  C2  UNL     1      26.790   3.869  49.409  1.00  0.00     0.026 A 
HETATM   19  C1  UNL     1      25.617   4.395  49.898  1.00  0.00     0.034 A 
HETATM   20 CL1  UNL     1      24.445   3.472  50.797  1.00  0.00    -0.084 Cl
HETATM   21  C17 UNL     1      25.341   5.724  49.669  1.00  0.00     0.026 A 
HETATM   22  C16 UNL     1      26.232   6.474  48.970  1.00  0.00     0.031 A 
ENDBRANCH  14  16
ENDBRANCH   1  14
TORSDOF 2
ENDMDL
