MODEL 1
REMARK VINA RESULT:      -9.0      0.000      0.000
REMARK  4 active torsions:
REMARK  status: ('A' for Active; 'I' for Inactive)
REMARK    1  A    between atoms: C8_8  and  N1_9 
REMARK    2  A    between atoms: N1_9  and  C9_10 
REMARK    3  A    between atoms: C14_17  and  C15_18 
REMARK    4  A    between atoms: C15_18  and  C16_19 
ROOT
HETATM    1  C1  UNL     1      21.089   3.973  52.316  1.00  0.00     0.018 C 
HETATM    2  C2  UNL     1      22.140   4.074  51.734  1.00  0.00    -0.078 C 
HETATM    3  C3  UNL     1      23.400   4.219  51.031  1.00  0.00     0.019 A 
HETATM    4  C4  UNL     1      23.743   5.282  50.255  1.00  0.00     0.021 A 
HETATM    5  C5  UNL     1      24.978   5.262  49.639  1.00  0.00     0.010 A 
HETATM    6  C6  UNL     1      25.854   4.185  49.802  1.00  0.00    -0.035 A 
HETATM    7  C7  UNL     1      27.133   4.290  49.088  1.00  0.00     0.050 C 
HETATM    8  C8  UNL     1      25.520   3.100  50.586  1.00  0.00     0.041 A 
HETATM    9  C22 UNL     1      24.269   3.161  51.189  1.00  0.00     0.050 A 
ENDROOT
BRANCH   8  10
HETATM   10  N1  UNL     1      26.418   2.010  50.747  1.00  0.00    -0.340 N 
HETATM   11  H7  UNL     1      26.631   1.404  49.957  1.00  0.00     0.167 HD
BRANCH  10  12
HETATM   12  C9  UNL     1      26.962   1.849  52.052  1.00  0.00     0.141 A 
HETATM   13  N2  UNL     1      28.119   2.490  52.386  1.00  0.00    -0.224 NA
HETATM   14  C10 UNL     1      28.651   2.353  53.620  1.00  0.00     0.235 A 
HETATM   15  N3  UNL     1      28.033   1.579  54.531  1.00  0.00    -0.245 NA
HETATM   16  C11 UNL     1      26.886   0.926  54.246  1.00  0.00     0.053 A 
HETATM   17  C12 UNL     1      26.338   1.058  52.993  1.00  0.00     0.035 A 
HETATM   18  C21 UNL     1      26.064   0.043  55.114  1.00  0.00     0.094 A 
HETATM   19  C13 UNL     1      25.136   0.254  53.029  1.00  0.00     0.021 A 
HETATM   20  C14 UNL     1      24.949  -0.341  54.222  1.00  0.00    -0.069 A 
BRANCH  20  21
HETATM   21  C15 UNL     1      23.818  -1.218  54.581  1.00  0.00     0.069 C 
BRANCH  21  22
HETATM   22  C16 UNL     1      22.492  -0.737  54.193  1.00  0.00    -0.073 A 
HETATM   23  C17 UNL     1      21.484  -1.633  54.208  1.00  0.00     0.003 A 
HETATM   24  C18 UNL     1      20.194  -1.101  53.814  1.00  0.00    -0.003 A 
HETATM   25  C19 UNL     1      20.455   0.168  53.555  1.00  0.00    -0.022 A 
HETATM   26  C20 UNL     1      21.900   0.544  53.755  1.00  0.00     0.061 A 
ENDBRANCH  21  22
ENDBRANCH  20  21
ENDBRANCH  10  12
ENDBRANCH   8  10
TORSDOF 4
ENDMDL
MODEL 2
REMARK VINA RESULT:      -8.9      0.872      2.842
REMARK  4 active torsions:
REMARK  status: ('A' for Active; 'I' for Inactive)
REMARK    1  A    between atoms: C8_8  and  N1_9 
REMARK    2  A    between atoms: N1_9  and  C9_10 
REMARK    3  A    between atoms: C14_17  and  C15_18 
REMARK    4  A    between atoms: C15_18  and  C16_19 
ROOT
HETATM    1  C1  UNL     1      29.451   5.849  47.855  1.00  0.00     0.018 C 
HETATM    2  C2  UNL     1      28.414   5.480  48.349  1.00  0.00    -0.078 C 
HETATM    3  C3  UNL     1      27.156   5.054  48.930  1.00  0.00     0.019 A 
HETATM    4  C4  UNL     1      26.023   5.807  48.974  1.00  0.00     0.021 A 
HETATM    5  C5  UNL     1      24.908   5.262  49.578  1.00  0.00     0.010 A 
HETATM    6  C6  UNL     1      24.935   3.978  50.130  1.00  0.00    -0.035 A 
HETATM    7  C7  UNL     1      23.681   3.522  50.746  1.00  0.00     0.050 C 
HETATM    8  C8  UNL     1      26.076   3.204  50.092  1.00  0.00     0.041 A 
HETATM    9  C22 UNL     1      27.175   3.790  49.474  1.00  0.00     0.050 A 
ENDROOT
BRANCH   8  10
HETATM   10  N1  UNL     1      26.094   1.899  50.655  1.00  0.00    -0.340 N 
HETATM   11  H7  UNL     1      25.686   1.118  50.145  1.00  0.00     0.167 HD
BRANCH  10  12
HETATM   12  C9  UNL     1      26.702   1.790  51.937  1.00  0.00     0.141 A 
HETATM   13  N2  UNL     1      27.865   2.455  52.193  1.00  0.00    -0.224 NA
HETATM   14  C10 UNL     1      28.456   2.368  53.404  1.00  0.00     0.235 A 
HETATM   15  N3  UNL     1      27.892   1.618  54.369  1.00  0.00    -0.245 NA
HETATM   16  C11 UNL     1      26.742   0.943  54.163  1.00  0.00     0.053 A 
HETATM   17  C12 UNL     1      26.133   1.025  52.934  1.00  0.00     0.035 A 
HETATM   18  C21 UNL     1      25.974   0.082  55.099  1.00  0.00     0.094 A 
HETATM   19  C13 UNL     1      24.945   0.209  53.055  1.00  0.00     0.021 A 
HETATM   20  C14 UNL     1      24.823  -0.346  54.275  1.00  0.00    -0.069 A 
BRANCH  20  21
HETATM   21  C15 UNL     1      23.722  -1.223  54.718  1.00  0.00     0.069 C 
BRANCH  21  22
HETATM   22  C16 UNL     1      22.376  -0.802  54.327  1.00  0.00    -0.073 A 
HETATM   23  C17 UNL     1      21.436  -1.762  54.225  1.00  0.00     0.003 A 
HETATM   24  C18 UNL     1      20.123  -1.287  53.833  1.00  0.00    -0.003 A 
HETATM   25  C19 UNL     1      20.300   0.015  53.699  1.00  0.00    -0.022 A 
HETATM   26  C20 UNL     1      21.707   0.471  53.985  1.00  0.00     0.061 A 
ENDBRANCH  21  22
ENDBRANCH  20  21
ENDBRANCH  10  12
ENDBRANCH   8  10
TORSDOF 4
ENDMDL
MODEL 3
REMARK VINA RESULT:      -8.8      2.266      7.523
REMARK  4 active torsions:
REMARK  status: ('A' for Active; 'I' for Inactive)
REMARK    1  A    between atoms: C8_8  and  N1_9 
REMARK    2  A    between atoms: N1_9  and  C9_10 
REMARK    3  A    between atoms: C14_17  and  C15_18 
REMARK    4  A    between atoms: C15_18  and  C16_19 
ROOT
HETATM    1  C1  UNL     1      28.629   2.499  53.481  1.00  0.00     0.018 C 
HETATM    2  C2  UNL     1      27.600   1.873  53.538  1.00  0.00    -0.078 C 
HETATM    3  C3  UNL     1      26.373   1.105  53.623  1.00  0.00     0.019 A 
HETATM    4  C4  UNL     1      26.287  -0.182  54.056  1.00  0.00     0.021 A 
HETATM    5  C5  UNL     1      25.043  -0.781  54.062  1.00  0.00     0.010 A 
HETATM    6  C6  UNL     1      23.903  -0.092  53.636  1.00  0.00    -0.035 A 
HETATM    7  C7  UNL     1      22.645  -0.848  53.689  1.00  0.00     0.050 C 
HETATM    8  C8  UNL     1      23.975   1.213  53.194  1.00  0.00     0.041 A 
HETATM    9  C22 UNL     1      25.246   1.778  53.206  1.00  0.00     0.050 A 
ENDROOT
BRANCH   8  10
HETATM   10  N1  UNL     1      22.811   1.906  52.764  1.00  0.00    -0.340 N 
HETATM   11  H7  UNL     1      22.228   2.392  53.443  1.00  0.00     0.167 HD
BRANCH  10  12
HETATM   12  C9  UNL     1      22.546   1.855  51.367  1.00  0.00     0.141 A 
HETATM   13  N2  UNL     1      21.772   0.853  50.861  1.00  0.00    -0.224 NA
HETATM   14  C10 UNL     1      21.506   0.789  49.538  1.00  0.00     0.235 A 
HETATM   15  N3  UNL     1      22.008   1.724  48.711  1.00  0.00    -0.245 NA
HETATM   16  C11 UNL     1      22.779   2.734  49.166  1.00  0.00     0.053 A 
HETATM   17  C12 UNL     1      23.055   2.808  50.510  1.00  0.00     0.035 A 
HETATM   18  C21 UNL     1      23.409   3.851  48.415  1.00  0.00     0.094 A 
HETATM   19  C13 UNL     1      23.878   3.989  50.654  1.00  0.00     0.021 A 
HETATM   20  C14 UNL     1      24.101   4.607  49.480  1.00  0.00    -0.069 A 
BRANCH  20  21
HETATM   21  C15 UNL     1      24.894   5.838  49.290  1.00  0.00     0.069 C 
BRANCH  21  22
HETATM   22  C16 UNL     1      26.293   5.641  48.911  1.00  0.00    -0.073 A 
HETATM   23  C17 UNL     1      26.941   6.697  48.379  1.00  0.00     0.003 A 
HETATM   24  C18 UNL     1      28.323   6.444  48.021  1.00  0.00    -0.003 A 
HETATM   25  C19 UNL     1      28.496   5.179  48.358  1.00  0.00    -0.022 A 
HETATM   26  C20 UNL     1      27.269   4.532  48.944  1.00  0.00     0.061 A 
ENDBRANCH  21  22
ENDBRANCH  20  21
ENDBRANCH  10  12
ENDBRANCH   8  10
TORSDOF 4
ENDMDL
MODEL 4
REMARK VINA RESULT:      -8.7      2.631      5.282
REMARK  4 active torsions:
REMARK  status: ('A' for Active; 'I' for Inactive)
REMARK    1  A    between atoms: C8_8  and  N1_9 
REMARK    2  A    between atoms: N1_9  and  C9_10 
REMARK    3  A    between atoms: C14_17  and  C15_18 
REMARK    4  A    between atoms: C15_18  and  C16_19 
ROOT
HETATM    1  C1  UNL     1      28.660   5.116  48.206  1.00  0.00     0.018 C 
HETATM    2  C2  UNL     1      27.557   5.457  48.554  1.00  0.00    -0.078 C 
HETATM    3  C3  UNL     1      26.226   5.877  48.949  1.00  0.00     0.019 A 
HETATM    4  C4  UNL     1      25.478   6.810  48.301  1.00  0.00     0.021 A 
HETATM    5  C5  UNL     1      24.232   7.112  48.814  1.00  0.00     0.010 A 
HETATM    6  C6  UNL     1      23.750   6.482  49.965  1.00  0.00    -0.035 A 
HETATM    7  C7  UNL     1      22.412   6.899  50.406  1.00  0.00     0.050 C 
HETATM    8  C8  UNL     1      24.498   5.535  50.634  1.00  0.00     0.041 A 
HETATM    9  C22 UNL     1      25.744   5.261  50.082  1.00  0.00     0.050 A 
ENDROOT
BRANCH   8  10
HETATM   10  N1  UNL     1      23.998   4.900  51.803  1.00  0.00    -0.340 N 
HETATM   11  H7  UNL     1      23.988   5.400  52.690  1.00  0.00     0.167 HD
BRANCH  10  12
HETATM   12  C9  UNL     1      23.538   3.565  51.629  1.00  0.00     0.141 A 
HETATM   13  N2  UNL     1      22.520   3.308  50.758  1.00  0.00    -0.224 NA
HETATM   14  C10 UNL     1      22.071   2.047  50.575  1.00  0.00     0.235 A 
HETATM   15  N3  UNL     1      22.634   1.033  51.258  1.00  0.00    -0.245 NA
HETATM   16  C11 UNL     1      23.644   1.239  52.130  1.00  0.00     0.053 A 
HETATM   17  C12 UNL     1      24.107   2.518  52.323  1.00  0.00     0.035 A 
HETATM   18  C21 UNL     1      24.388   0.255  52.960  1.00  0.00     0.094 A 
HETATM   19  C13 UNL     1      25.174   2.383  53.291  1.00  0.00     0.021 A 
HETATM   20  C14 UNL     1      25.360   1.107  53.678  1.00  0.00    -0.069 A 
BRANCH  20  21
HETATM   21  C15 UNL     1      26.370   0.638  54.646  1.00  0.00     0.069 C 
BRANCH  21  22
HETATM   22  C16 UNL     1      27.507  -0.087  54.079  1.00  0.00    -0.073 A 
HETATM   23  C17 UNL     1      28.740   0.322  54.438  1.00  0.00     0.003 A 
HETATM   24  C18 UNL     1      29.827  -0.432  53.844  1.00  0.00    -0.003 A 
HETATM   25  C19 UNL     1      29.204  -1.327  53.100  1.00  0.00    -0.022 A 
HETATM   26  C20 UNL     1      27.702  -1.222  53.152  1.00  0.00     0.061 A 
ENDBRANCH  21  22
ENDBRANCH  20  21
ENDBRANCH  10  12
ENDBRANCH   8  10
TORSDOF 4
ENDMDL
MODEL 5
REMARK VINA RESULT:      -8.4      2.910      6.636
REMARK  4 active torsions:
REMARK  status: ('A' for Active; 'I' for Inactive)
REMARK    1  A    between atoms: C8_8  and  N1_9 
REMARK    2  A    between atoms: N1_9  and  C9_10 
REMARK    3  A    between atoms: C14_17  and  C15_18 
REMARK    4  A    between atoms: C15_18  and  C16_19 
ROOT
HETATM    1  C1  UNL     1      22.202  -1.178  54.978  1.00  0.00     0.018 C 
HETATM    2  C2  UNL     1      21.348  -0.905  54.171  1.00  0.00    -0.078 C 
HETATM    3  C3  UNL     1      20.304  -0.583  53.218  1.00  0.00     0.019 A 
HETATM    4  C4  UNL     1      19.004  -0.967  53.326  1.00  0.00     0.021 A 
HETATM    5  C5  UNL     1      18.132  -0.591  52.323  1.00  0.00     0.010 A 
HETATM    6  C6  UNL     1      18.567   0.160  51.227  1.00  0.00    -0.035 A 
HETATM    7  C7  UNL     1      17.539   0.487  50.230  1.00  0.00     0.050 C 
HETATM    8  C8  UNL     1      19.883   0.557  51.104  1.00  0.00     0.041 A 
HETATM    9  C22 UNL     1      20.725   0.158  52.136  1.00  0.00     0.050 A 
ENDROOT
BRANCH   8  10
HETATM   10  N1  UNL     1      20.316   1.321  49.987  1.00  0.00    -0.340 N 
HETATM   11  H7  UNL     1      20.266   0.927  49.049  1.00  0.00     0.167 HD
BRANCH  10  12
HETATM   12  C9  UNL     1      20.805   2.623  50.285  1.00  0.00     0.141 A 
HETATM   13  N2  UNL     1      19.954   3.689  50.257  1.00  0.00    -0.224 NA
HETATM   14  C10 UNL     1      20.397   4.933  50.541  1.00  0.00     0.235 A 
HETATM   15  N3  UNL     1      21.691   5.124  50.855  1.00  0.00    -0.245 NA
HETATM   16  C11 UNL     1      22.571   4.101  50.895  1.00  0.00     0.053 A 
HETATM   17  C12 UNL     1      22.129   2.832  50.608  1.00  0.00     0.035 A 
HETATM   18  C21 UNL     1      24.019   4.116  51.225  1.00  0.00     0.094 A 
HETATM   19  C13 UNL     1      23.299   1.992  50.751  1.00  0.00     0.021 A 
HETATM   20  C14 UNL     1      24.395   2.691  51.100  1.00  0.00    -0.069 A 
BRANCH  20  21
HETATM   21  C15 UNL     1      25.740   2.128  51.329  1.00  0.00     0.069 C 
BRANCH  21  22
HETATM   22  C16 UNL     1      25.802   0.968  52.218  1.00  0.00    -0.073 A 
HETATM   23  C17 UNL     1      26.702   0.011  51.918  1.00  0.00     0.003 A 
HETATM   24  C18 UNL     1      26.717  -1.115  52.832  1.00  0.00    -0.003 A 
HETATM   25  C19 UNL     1      25.782  -0.804  53.711  1.00  0.00    -0.022 A 
HETATM   26  C20 UNL     1      25.104   0.513  53.438  1.00  0.00     0.061 A 
ENDBRANCH  21  22
ENDBRANCH  20  21
ENDBRANCH  10  12
ENDBRANCH   8  10
TORSDOF 4
ENDMDL
MODEL 6
REMARK VINA RESULT:      -8.4      2.263      7.807
REMARK  4 active torsions:
REMARK  status: ('A' for Active; 'I' for Inactive)
REMARK    1  A    between atoms: C8_8  and  N1_9 
REMARK    2  A    between atoms: N1_9  and  C9_10 
REMARK    3  A    between atoms: C14_17  and  C15_18 
REMARK    4  A    between atoms: C15_18  and  C16_19 
ROOT
HETATM    1  C1  UNL     1      28.772   1.121  54.169  1.00  0.00     0.018 C 
HETATM    2  C2  UNL     1      27.616   0.828  53.983  1.00  0.00    -0.078 C 
HETATM    3  C3  UNL     1      26.226   0.467  53.782  1.00  0.00     0.019 A 
HETATM    4  C4  UNL     1      25.532  -0.418  54.548  1.00  0.00     0.021 A 
HETATM    5  C5  UNL     1      24.215  -0.666  54.216  1.00  0.00     0.010 A 
HETATM    6  C6  UNL     1      23.608  -0.032  53.129  1.00  0.00    -0.035 A 
HETATM    7  C7  UNL     1      22.205  -0.389  52.884  1.00  0.00     0.050 C 
HETATM    8  C8  UNL     1      24.300   0.868  52.344  1.00  0.00     0.041 A 
HETATM    9  C22 UNL     1      25.621   1.090  52.713  1.00  0.00     0.050 A 
ENDROOT
BRANCH   8  10
HETATM   10  N1  UNL     1      23.674   1.509  51.240  1.00  0.00    -0.340 N 
HETATM   11  H7  UNL     1      23.313   0.954  50.466  1.00  0.00     0.167 HD
BRANCH  10  12
HETATM   12  C9  UNL     1      23.605   2.929  51.312  1.00  0.00     0.141 A 
HETATM   13  N2  UNL     1      22.605   3.522  52.025  1.00  0.00    -0.224 NA
HETATM   14  C10 UNL     1      22.524   4.868  52.108  1.00  0.00     0.235 A 
HETATM   15  N3  UNL     1      23.438   5.632  51.483  1.00  0.00    -0.245 NA
HETATM   16  C11 UNL     1      24.446   5.089  50.766  1.00  0.00     0.053 A 
HETATM   17  C12 UNL     1      24.537   3.721  50.675  1.00  0.00     0.035 A 
HETATM   18  C21 UNL     1      25.542   5.762  50.022  1.00  0.00     0.094 A 
HETATM   19  C13 UNL     1      25.709   3.482  49.862  1.00  0.00     0.021 A 
HETATM   20  C14 UNL     1      26.306   4.622  49.470  1.00  0.00    -0.069 A 
BRANCH  20  21
HETATM   21  C15 UNL     1      27.522   4.719  48.640  1.00  0.00     0.069 C 
BRANCH  21  22
HETATM   22  C16 UNL     1      27.898   6.067  48.216  1.00  0.00    -0.073 A 
HETATM   23  C17 UNL     1      29.208   6.385  48.264  1.00  0.00     0.003 A 
HETATM   24  C18 UNL     1      29.521   7.734  47.834  1.00  0.00    -0.003 A 
HETATM   25  C19 UNL     1      28.340   8.233  47.518  1.00  0.00    -0.022 A 
HETATM   26  C20 UNL     1      27.199   7.270  47.716  1.00  0.00     0.061 A 
ENDBRANCH  21  22
ENDBRANCH  20  21
ENDBRANCH  10  12
ENDBRANCH   8  10
TORSDOF 4
ENDMDL
MODEL 7
REMARK VINA RESULT:      -8.3      1.992      3.760
REMARK  4 active torsions:
REMARK  status: ('A' for Active; 'I' for Inactive)
REMARK    1  A    between atoms: C8_8  and  N1_9 
REMARK    2  A    between atoms: N1_9  and  C9_10 
REMARK    3  A    between atoms: C14_17  and  C15_18 
REMARK    4  A    between atoms: C15_18  and  C16_19 
ROOT
HETATM    1  C1  UNL     1      27.912   5.054  48.505  1.00  0.00     0.018 C 
HETATM    2  C2  UNL     1      26.817   4.893  48.984  1.00  0.00    -0.078 C 
HETATM    3  C3  UNL     1      25.491   4.700  49.537  1.00  0.00     0.019 A 
HETATM    4  C4  UNL     1      24.328   4.989  48.893  1.00  0.00     0.021 A 
HETATM    5  C5  UNL     1      23.143   4.763  49.564  1.00  0.00     0.010 A 
HETATM    6  C6  UNL     1      23.132   4.254  50.866  1.00  0.00    -0.035 A 
HETATM    7  C7  UNL     1      21.804   4.066  51.466  1.00  0.00     0.050 C 
HETATM    8  C8  UNL     1      24.303   3.958  51.532  1.00  0.00     0.041 A 
HETATM    9  C22 UNL     1      25.472   4.199  50.820  1.00  0.00     0.050 A 
ENDROOT
BRANCH   8  10
HETATM   10  N1  UNL     1      24.282   3.440  52.856  1.00  0.00    -0.340 N 
HETATM   11  H7  UNL     1      24.082   4.057  53.641  1.00  0.00     0.167 HD
BRANCH  10  12
HETATM   12  C9  UNL     1      24.556   2.049  52.977  1.00  0.00     0.141 A 
HETATM   13  N2  UNL     1      25.847   1.609  52.944  1.00  0.00    -0.224 NA
HETATM   14  C10 UNL     1      26.129   0.293  53.061  1.00  0.00     0.235 A 
HETATM   15  N3  UNL     1      25.128  -0.593  53.213  1.00  0.00    -0.245 NA
HETATM   16  C11 UNL     1      23.836  -0.204  53.252  1.00  0.00     0.053 A 
HETATM   17  C12 UNL     1      23.538   1.132  53.133  1.00  0.00     0.035 A 
HETATM   18  C21 UNL     1      22.609  -1.026  53.418  1.00  0.00     0.094 A 
HETATM   19  C13 UNL     1      22.096   1.200  53.224  1.00  0.00     0.021 A 
HETATM   20  C14 UNL     1      21.533  -0.012  53.385  1.00  0.00    -0.069 A 
BRANCH  20  21
HETATM   21  C15 UNL     1      20.088  -0.281  53.517  1.00  0.00     0.069 C 
BRANCH  21  22
HETATM   22  C16 UNL     1      19.283  -0.041  52.319  1.00  0.00    -0.073 A 
HETATM   23  C17 UNL     1      18.079  -0.643  52.254  1.00  0.00     0.003 A 
HETATM   24  C18 UNL     1      17.328  -0.371  51.044  1.00  0.00    -0.003 A 
HETATM   25  C19 UNL     1      18.129   0.430  50.365  1.00  0.00    -0.022 A 
HETATM   26  C20 UNL     1      19.429   0.729  51.065  1.00  0.00     0.061 A 
ENDBRANCH  21  22
ENDBRANCH  20  21
ENDBRANCH  10  12
ENDBRANCH   8  10
TORSDOF 4
ENDMDL
MODEL 8
REMARK VINA RESULT:      -8.3      2.889      8.347
REMARK  4 active torsions:
REMARK  status: ('A' for Active; 'I' for Inactive)
REMARK    1  A    between atoms: C8_8  and  N1_9 
REMARK    2  A    between atoms: N1_9  and  C9_10 
REMARK    3  A    between atoms: C14_17  and  C15_18 
REMARK    4  A    between atoms: C15_18  and  C16_19 
ROOT
HETATM    1  C1  UNL     1      29.321   2.052  54.133  1.00  0.00     0.018 C 
HETATM    2  C2  UNL     1      28.230   1.926  53.634  1.00  0.00    -0.078 C 
HETATM    3  C3  UNL     1      26.910   1.764  53.056  1.00  0.00     0.019 A 
HETATM    4  C4  UNL     1      25.933   0.960  53.555  1.00  0.00     0.021 A 
HETATM    5  C5  UNL     1      24.732   0.903  52.876  1.00  0.00     0.010 A 
HETATM    6  C6  UNL     1      24.521   1.647  51.711  1.00  0.00    -0.035 A 
HETATM    7  C7  UNL     1      23.200   1.491  51.087  1.00  0.00     0.050 C 
HETATM    8  C8  UNL     1      25.502   2.466  51.193  1.00  0.00     0.041 A 
HETATM    9  C22 UNL     1      26.695   2.494  51.908  1.00  0.00     0.050 A 
ENDROOT
BRANCH   8  10
HETATM   10  N1  UNL     1      25.278   3.219  50.008  1.00  0.00    -0.340 N 
HETATM   11  H7  UNL     1      25.198   2.744  49.111  1.00  0.00     0.167 HD
BRANCH  10  12
HETATM   12  C9  UNL     1      25.183   4.627  50.183  1.00  0.00     0.141 A 
HETATM   13  N2  UNL     1      24.206   5.146  50.981  1.00  0.00    -0.224 NA
HETATM   14  C10 UNL     1      24.101   6.481  51.163  1.00  0.00     0.235 A 
HETATM   15  N3  UNL     1      24.970   7.307  50.553  1.00  0.00    -0.245 NA
HETATM   16  C11 UNL     1      25.953   6.840  49.755  1.00  0.00     0.053 A 
HETATM   17  C12 UNL     1      26.068   5.484  49.563  1.00  0.00     0.035 A 
HETATM   18  C21 UNL     1      26.999   7.589  49.011  1.00  0.00     0.094 A 
HETATM   19  C13 UNL     1      27.205   5.330  48.682  1.00  0.00     0.021 A 
HETATM   20  C14 UNL     1      27.760   6.509  48.346  1.00  0.00    -0.069 A 
BRANCH  20  21
HETATM   21  C15 UNL     1      28.934   6.692  47.470  1.00  0.00     0.069 C 
BRANCH  21  22
HETATM   22  C16 UNL     1      30.236   6.469  48.097  1.00  0.00    -0.073 A 
HETATM   23  C17 UNL     1      30.862   5.308  47.820  1.00  0.00     0.003 A 
HETATM   24  C18 UNL     1      32.147   5.140  48.470  1.00  0.00    -0.003 A 
HETATM   25  C19 UNL     1      32.284   6.256  49.162  1.00  0.00    -0.022 A 
HETATM   26  C20 UNL     1      31.125   7.207  49.019  1.00  0.00     0.061 A 
ENDBRANCH  21  22
ENDBRANCH  20  21
ENDBRANCH  10  12
ENDBRANCH   8  10
TORSDOF 4
ENDMDL
MODEL 9
REMARK VINA RESULT:      -8.2      2.799      5.911
REMARK  4 active torsions:
REMARK  status: ('A' for Active; 'I' for Inactive)
REMARK    1  A    between atoms: C8_8  and  N1_9 
REMARK    2  A    between atoms: N1_9  and  C9_10 
REMARK    3  A    between atoms: C14_17  and  C15_18 
REMARK    4  A    between atoms: C15_18  and  C16_19 
ROOT
HETATM    1  C1  UNL     1      29.707  -1.564  53.459  1.00  0.00     0.018 C 
HETATM    2  C2  UNL     1      28.837  -0.729  53.424  1.00  0.00    -0.078 C 
HETATM    3  C3  UNL     1      27.808   0.292  53.385  1.00  0.00     0.019 A 
HETATM    4  C4  UNL     1      27.969   1.578  53.801  1.00  0.00     0.021 A 
HETATM    5  C5  UNL     1      26.884   2.427  53.713  1.00  0.00     0.010 A 
HETATM    6  C6  UNL     1      25.656   1.986  53.213  1.00  0.00    -0.035 A 
HETATM    7  C7  UNL     1      24.584   2.990  53.177  1.00  0.00     0.050 C 
HETATM    8  C8  UNL     1      25.478   0.686  52.787  1.00  0.00     0.041 A 
HETATM    9  C22 UNL     1      26.595  -0.135  52.893  1.00  0.00     0.050 A 
ENDROOT
BRANCH   8  10
HETATM   10  N1  UNL     1      24.225   0.246  52.279  1.00  0.00    -0.340 N 
HETATM   11  H7  UNL     1      24.013   0.348  51.288  1.00  0.00     0.167 HD
BRANCH  10  12
HETATM   12  C9  UNL     1      23.337  -0.317  53.237  1.00  0.00     0.141 A 
HETATM   13  N2  UNL     1      23.835  -0.870  54.380  1.00  0.00    -0.224 NA
HETATM   14  C10 UNL     1      23.009  -1.407  55.304  1.00  0.00     0.235 A 
HETATM   15  N3  UNL     1      21.679  -1.396  55.095  1.00  0.00    -0.245 NA
HETATM   16  C11 UNL     1      21.140  -0.859  53.980  1.00  0.00     0.053 A 
HETATM   17  C12 UNL     1      21.972  -0.311  53.035  1.00  0.00     0.035 A 
HETATM   18  C21 UNL     1      19.712  -0.749  53.583  1.00  0.00     0.094 A 
HETATM   19  C13 UNL     1      21.087   0.171  51.997  1.00  0.00     0.021 A 
HETATM   20  C14 UNL     1      19.792  -0.064  52.276  1.00  0.00    -0.069 A 
BRANCH  20  21
HETATM   21  C15 UNL     1      18.645   0.310  51.425  1.00  0.00     0.069 C 
BRANCH  21  22
HETATM   22  C16 UNL     1      18.746   1.607  50.754  1.00  0.00    -0.073 A 
HETATM   23  C17 UNL     1      18.449   2.701  51.482  1.00  0.00     0.003 A 
HETATM   24  C18 UNL     1      18.564   3.956  50.766  1.00  0.00    -0.003 A 
HETATM   25  C19 UNL     1      18.947   3.582  49.559  1.00  0.00    -0.022 A 
HETATM   26  C20 UNL     1      19.103   2.092  49.405  1.00  0.00     0.061 A 
ENDBRANCH  21  22
ENDBRANCH  20  21
ENDBRANCH  10  12
ENDBRANCH   8  10
TORSDOF 4
ENDMDL
