MODEL 1
REMARK VINA RESULT:      -8.5      0.000      0.000
REMARK  8 active torsions:
REMARK  status: ('A' for Active; 'I' for Inactive)
REMARK    1  A    between atoms: C2_2  and  N1_3 
REMARK    2  A    between atoms: C2_2  and  C14_19 
REMARK    3  A    between atoms: N1_3  and  C3_4 
REMARK    4  A    between atoms: C8_11  and  C9_12 
REMARK    5  A    between atoms: C9_12  and  C10_13 
REMARK    6  A    between atoms: C11_14  and  O1_15 
REMARK    7  A    between atoms: C11_14  and  C12_16 
REMARK    8  A    between atoms: C13_17  and  N4_18 
ROOT
HETATM    1  C3  UNL     1      26.593   2.289  51.903  1.00  0.00     0.138 A 
HETATM    2  N2  UNL     1      27.707   1.696  52.361  1.00  0.00    -0.224 NA
HETATM    3  C4  UNL     1      27.726   0.611  53.109  1.00  0.00     0.236 A 
HETATM    4  N3  UNL     1      26.573   0.024  53.461  1.00  0.00    -0.241 NA
HETATM    5  C5  UNL     1      25.372   0.511  53.070  1.00  0.00     0.078 A 
HETATM    6  C6  UNL     1      25.430   1.633  52.301  1.00  0.00     0.040 A 
HETATM    7  C7  UNL     1      23.956   1.584  52.267  1.00  0.00     0.027 A 
HETATM    8  C8  UNL     1      23.916   0.494  53.016  1.00  0.00    -0.024 A 
ENDROOT
BRANCH   1   9
HETATM    9  N1  UNL     1      26.541   3.480  51.106  1.00  0.00    -0.366 N 
HETATM   10  H5  UNL     1      26.687   4.362  51.648  1.00  0.00     0.161 HD
BRANCH   9  11
HETATM   11  C2  UNL     1      26.318   3.582  49.703  1.00  0.00     0.112 C 
HETATM   12  C1  UNL     1      24.852   3.481  49.311  1.00  0.00     0.037 C 
BRANCH  11  13
HETATM   13  C14 UNL     1      26.906   4.756  49.037  1.00  0.00    -0.036 A 
HETATM   14  C15 UNL     1      28.167   4.980  48.584  1.00  0.00     0.009 A 
HETATM   15  C16 UNL     1      28.598   6.138  47.979  1.00  0.00     0.001 A 
HETATM   16  C17 UNL     1      27.717   7.180  47.795  1.00  0.00     0.000 A 
HETATM   17  C18 UNL     1      26.415   7.042  48.224  1.00  0.00     0.001 A 
HETATM   18  C19 UNL     1      26.072   5.848  48.819  1.00  0.00     0.009 A 
ENDBRANCH  11  13
ENDBRANCH   9  11
ENDBRANCH   1   9
BRANCH   8  19
HETATM   19  C9  UNL     1      22.978  -0.475  53.640  1.00  0.00     0.071 C 
BRANCH  19  20
HETATM   20  C10 UNL     1      21.604  -0.305  53.093  1.00  0.00     0.014 C 
HETATM   21  C11 UNL     1      20.599  -0.849  53.729  1.00  0.00     0.063 C 
BRANCH  21  22
HETATM   22  O1  UNL     1      20.948  -1.538  54.874  1.00  0.00    -0.361 OA
HETATM   23  H11 UNL     1      21.884  -1.697  55.201  1.00  0.00     0.217 HD
ENDBRANCH  21  22
BRANCH  21  24
HETATM   24  C12 UNL     1      19.220  -0.770  53.323  1.00  0.00     0.052 C 
HETATM   25  C13 UNL     1      18.343  -1.685  53.648  1.00  0.00     0.083 C 
BRANCH  25  26
HETATM   26  N4  UNL     1      16.972  -1.653  53.272  1.00  0.00    -0.408 N 
HETATM   27  H14 UNL     1      16.484  -2.428  53.799  1.00  0.00     0.155 HD
HETATM   28  H15 UNL     1      16.181  -1.250  52.731  1.00  0.00     0.155 HD
ENDBRANCH  25  26
ENDBRANCH  21  24
ENDBRANCH  19  20
ENDBRANCH   8  19
TORSDOF 8
ENDMDL
MODEL 2
REMARK VINA RESULT:      -8.4      4.036      5.416
REMARK  8 active torsions:
REMARK  status: ('A' for Active; 'I' for Inactive)
REMARK    1  A    between atoms: C2_2  and  N1_3 
REMARK    2  A    between atoms: C2_2  and  C14_19 
REMARK    3  A    between atoms: N1_3  and  C3_4 
REMARK    4  A    between atoms: C8_11  and  C9_12 
REMARK    5  A    between atoms: C9_12  and  C10_13 
REMARK    6  A    between atoms: C11_14  and  O1_15 
REMARK    7  A    between atoms: C11_14  and  C12_16 
REMARK    8  A    between atoms: C13_17  and  N4_18 
ROOT
HETATM    1  C3  UNL     1      24.260  -0.437  53.547  1.00  0.00     0.138 A 
HETATM    2  N2  UNL     1      24.579  -0.952  54.745  1.00  0.00    -0.224 NA
HETATM    3  C4  UNL     1      23.704  -1.369  55.638  1.00  0.00     0.236 A 
HETATM    4  N3  UNL     1      22.393  -1.293  55.374  1.00  0.00    -0.241 NA
HETATM    5  C5  UNL     1      21.925  -0.796  54.205  1.00  0.00     0.078 A 
HETATM    6  C6  UNL     1      22.885  -0.384  53.331  1.00  0.00     0.040 A 
HETATM    7  C7  UNL     1      21.781  -0.019  52.422  1.00  0.00     0.027 A 
HETATM    8  C8  UNL     1      20.861  -0.423  53.281  1.00  0.00    -0.024 A 
ENDROOT
BRANCH   1   9
HETATM    9  N1  UNL     1      25.187   0.044  52.565  1.00  0.00    -0.366 N 
HETATM   10  H5  UNL     1      25.034  -0.345  51.607  1.00  0.00     0.161 HD
BRANCH   9  11
HETATM   11  C2  UNL     1      26.259   0.964  52.752  1.00  0.00     0.112 C 
HETATM   12  C1  UNL     1      25.947   2.067  53.751  1.00  0.00     0.037 C 
BRANCH  11  13
HETATM   13  C14 UNL     1      27.566   0.377  53.088  1.00  0.00    -0.036 A 
HETATM   14  C15 UNL     1      28.712   0.957  53.530  1.00  0.00     0.009 A 
HETATM   15  C16 UNL     1      29.884   0.291  53.803  1.00  0.00     0.001 A 
HETATM   16  C17 UNL     1      29.949  -1.074  53.631  1.00  0.00     0.000 A 
HETATM   17  C18 UNL     1      28.832  -1.748  53.185  1.00  0.00     0.001 A 
HETATM   18  C19 UNL     1      27.703  -0.999  52.937  1.00  0.00     0.009 A 
ENDBRANCH  11  13
ENDBRANCH   9  11
ENDBRANCH   1   9
BRANCH   8  19
HETATM   19  C9  UNL     1      19.391  -0.548  53.465  1.00  0.00     0.071 C 
BRANCH  19  20
HETATM   20  C10 UNL     1      18.984  -1.979  53.492  1.00  0.00     0.014 C 
HETATM   21  C11 UNL     1      17.712  -2.273  53.555  1.00  0.00     0.063 C 
BRANCH  21  22
HETATM   22  O1  UNL     1      16.869  -1.179  53.588  1.00  0.00    -0.361 OA
HETATM   23  H11 UNL     1      16.410  -0.768  52.795  1.00  0.00     0.217 HD
ENDBRANCH  21  22
BRANCH  21  24
HETATM   24  C12 UNL     1      17.169  -3.606  53.588  1.00  0.00     0.052 C 
HETATM   25  C13 UNL     1      15.971  -3.884  53.141  1.00  0.00     0.083 C 
BRANCH  25  26
HETATM   26  N4  UNL     1      15.390  -5.182  53.152  1.00  0.00    -0.408 N 
HETATM   27  H14 UNL     1      16.115  -5.847  53.533  1.00  0.00     0.155 HD
HETATM   28  H15 UNL     1      14.598  -5.831  52.973  1.00  0.00     0.155 HD
ENDBRANCH  25  26
ENDBRANCH  21  24
ENDBRANCH  19  20
ENDBRANCH   8  19
TORSDOF 8
ENDMDL
MODEL 3
REMARK VINA RESULT:      -8.3      4.036      8.903
REMARK  8 active torsions:
REMARK  status: ('A' for Active; 'I' for Inactive)
REMARK    1  A    between atoms: C2_2  and  N1_3 
REMARK    2  A    between atoms: C2_2  and  C14_19 
REMARK    3  A    between atoms: N1_3  and  C3_4 
REMARK    4  A    between atoms: C8_11  and  C9_12 
REMARK    5  A    between atoms: C9_12  and  C10_13 
REMARK    6  A    between atoms: C11_14  and  O1_15 
REMARK    7  A    between atoms: C11_14  and  C12_16 
REMARK    8  A    between atoms: C13_17  and  N4_18 
ROOT
HETATM    1  C3  UNL     1      24.418   2.857  51.476  1.00  0.00     0.138 A 
HETATM    2  N2  UNL     1      23.477   3.703  51.925  1.00  0.00    -0.224 NA
HETATM    3  C4  UNL     1      23.395   4.977  51.595  1.00  0.00     0.236 A 
HETATM    4  N3  UNL     1      24.294   5.507  50.754  1.00  0.00    -0.241 NA
HETATM    5  C5  UNL     1      25.299   4.771  50.222  1.00  0.00     0.078 A 
HETATM    6  C6  UNL     1      25.320   3.465  50.607  1.00  0.00     0.040 A 
HETATM    7  C7  UNL     1      26.514   3.321  49.752  1.00  0.00     0.027 A 
HETATM    8  C8  UNL     1      26.480   4.592  49.387  1.00  0.00    -0.024 A 
ENDROOT
BRANCH   1   9
HETATM    9  N1  UNL     1      24.544   1.474  51.833  1.00  0.00    -0.366 N 
HETATM   10  H5  UNL     1      24.237   0.811  51.085  1.00  0.00     0.161 HD
BRANCH   9  11
HETATM   11  C2  UNL     1      25.026   0.929  53.058  1.00  0.00     0.112 C 
HETATM   12  C1  UNL     1      24.573  -0.501  53.307  1.00  0.00     0.037 C 
BRANCH  11  13
HETATM   13  C14 UNL     1      26.480   1.010  53.276  1.00  0.00    -0.036 A 
HETATM   14  C15 UNL     1      27.285   2.080  53.506  1.00  0.00     0.009 A 
HETATM   15  C16 UNL     1      28.647   2.023  53.687  1.00  0.00     0.001 A 
HETATM   16  C17 UNL     1      29.291   0.807  53.643  1.00  0.00     0.000 A 
HETATM   17  C18 UNL     1      28.553  -0.335  53.414  1.00  0.00     0.001 A 
HETATM   18  C19 UNL     1      27.195  -0.182  53.244  1.00  0.00     0.009 A 
ENDBRANCH  11  13
ENDBRANCH   9  11
ENDBRANCH   1   9
BRANCH   8  19
HETATM   19  C9  UNL     1      27.181   5.599  48.548  1.00  0.00     0.071 C 
BRANCH  19  20
HETATM   20  C10 UNL     1      28.572   5.159  48.252  1.00  0.00     0.014 C 
HETATM   21  C11 UNL     1      29.562   5.964  48.539  1.00  0.00     0.063 C 
BRANCH  21  22
HETATM   22  O1  UNL     1      29.183   7.167  49.102  1.00  0.00    -0.361 OA
HETATM   23  H11 UNL     1      28.614   7.276  49.922  1.00  0.00     0.217 HD
ENDBRANCH  21  22
BRANCH  21  24
HETATM   24  C12 UNL     1      30.955   5.678  48.312  1.00  0.00     0.052 C 
HETATM   25  C13 UNL     1      31.864   5.853  49.237  1.00  0.00     0.083 C 
BRANCH  25  26
HETATM   26  N4  UNL     1      33.250   5.586  49.063  1.00  0.00    -0.408 N 
HETATM   27  H14 UNL     1      33.758   6.015  49.883  1.00  0.00     0.155 HD
HETATM   28  H15 UNL     1      34.043   5.176  48.530  1.00  0.00     0.155 HD
ENDBRANCH  25  26
ENDBRANCH  21  24
ENDBRANCH  19  20
ENDBRANCH   8  19
TORSDOF 8
ENDMDL
MODEL 4
REMARK VINA RESULT:      -8.3      3.294      7.541
REMARK  8 active torsions:
REMARK  status: ('A' for Active; 'I' for Inactive)
REMARK    1  A    between atoms: C2_2  and  N1_3 
REMARK    2  A    between atoms: C2_2  and  C14_19 
REMARK    3  A    between atoms: N1_3  and  C3_4 
REMARK    4  A    between atoms: C8_11  and  C9_12 
REMARK    5  A    between atoms: C9_12  and  C10_13 
REMARK    6  A    between atoms: C11_14  and  O1_15 
REMARK    7  A    between atoms: C11_14  and  C12_16 
REMARK    8  A    between atoms: C13_17  and  N4_18 
ROOT
HETATM    1  C3  UNL     1      22.989   3.093  50.882  1.00  0.00     0.138 A 
HETATM    2  N2  UNL     1      23.303   3.695  49.725  1.00  0.00    -0.224 NA
HETATM    3  C4  UNL     1      24.530   3.975  49.335  1.00  0.00     0.236 A 
HETATM    4  N3  UNL     1      25.569   3.652  50.118  1.00  0.00    -0.241 NA
HETATM    5  C5  UNL     1      25.402   3.039  51.313  1.00  0.00     0.078 A 
HETATM    6  C6  UNL     1      24.108   2.782  51.651  1.00  0.00     0.040 A 
HETATM    7  C7  UNL     1      24.638   2.192  52.895  1.00  0.00     0.027 A 
HETATM    8  C8  UNL     1      25.890   2.449  52.554  1.00  0.00    -0.024 A 
ENDROOT
BRANCH   1   9
HETATM    9  N1  UNL     1      21.664   2.794  51.342  1.00  0.00    -0.366 N 
HETATM   10  H5  UNL     1      21.140   3.625  51.702  1.00  0.00     0.161 HD
BRANCH   9  11
HETATM   11  C2  UNL     1      21.009   1.529  51.359  1.00  0.00     0.112 C 
HETATM   12  C1  UNL     1      21.296   0.679  50.132  1.00  0.00     0.037 C 
BRANCH  11  13
HETATM   13  C14 UNL     1      21.217   0.708  52.564  1.00  0.00    -0.036 A 
HETATM   14  C15 UNL     1      20.702   0.821  53.815  1.00  0.00     0.009 A 
HETATM   15  C16 UNL     1      20.985  -0.016  54.869  1.00  0.00     0.001 A 
HETATM   16  C17 UNL     1      21.854  -1.070  54.688  1.00  0.00     0.000 A 
HETATM   17  C18 UNL     1      22.426  -1.263  53.449  1.00  0.00     0.001 A 
HETATM   18  C19 UNL     1      22.084  -0.374  52.453  1.00  0.00     0.009 A 
ENDBRANCH  11  13
ENDBRANCH   9  11
ENDBRANCH   1   9
BRANCH   8  19
HETATM   19  C9  UNL     1      27.294   2.310  53.022  1.00  0.00     0.071 C 
BRANCH  19  20
HETATM   20  C10 UNL     1      27.798   0.933  52.767  1.00  0.00     0.014 C 
HETATM   21  C11 UNL     1      28.356   0.273  53.749  1.00  0.00     0.063 C 
BRANCH  21  22
HETATM   22  O1  UNL     1      28.410   0.959  54.947  1.00  0.00    -0.361 OA
HETATM   23  H11 UNL     1      27.619   1.239  55.497  1.00  0.00     0.217 HD
ENDBRANCH  21  22
BRANCH  21  24
HETATM   24  C12 UNL     1      28.889  -1.061  53.654  1.00  0.00     0.052 C 
HETATM   25  C13 UNL     1      28.187  -2.061  53.185  1.00  0.00     0.083 C 
BRANCH  25  26
HETATM   26  N4  UNL     1      28.666  -3.396  53.071  1.00  0.00    -0.408 N 
HETATM   27  H14 UNL     1      29.374  -3.409  52.289  1.00  0.00     0.155 HD
HETATM   28  H15 UNL     1      28.679  -4.391  53.370  1.00  0.00     0.155 HD
ENDBRANCH  25  26
ENDBRANCH  21  24
ENDBRANCH  19  20
ENDBRANCH   8  19
TORSDOF 8
ENDMDL
MODEL 5
REMARK VINA RESULT:      -8.2      3.402      5.445
REMARK  8 active torsions:
REMARK  status: ('A' for Active; 'I' for Inactive)
REMARK    1  A    between atoms: C2_2  and  N1_3 
REMARK    2  A    between atoms: C2_2  and  C14_19 
REMARK    3  A    between atoms: N1_3  and  C3_4 
REMARK    4  A    between atoms: C8_11  and  C9_12 
REMARK    5  A    between atoms: C9_12  and  C10_13 
REMARK    6  A    between atoms: C11_14  and  O1_15 
REMARK    7  A    between atoms: C11_14  and  C12_16 
REMARK    8  A    between atoms: C13_17  and  N4_18 
ROOT
HETATM    1  C3  UNL     1      24.245  -0.038  53.975  1.00  0.00     0.138 A 
HETATM    2  N2  UNL     1      24.627  -0.838  54.983  1.00  0.00    -0.224 NA
HETATM    3  C4  UNL     1      23.817  -1.622  55.665  1.00  0.00     0.236 A 
HETATM    4  N3  UNL     1      22.511  -1.656  55.365  1.00  0.00    -0.241 NA
HETATM    5  C5  UNL     1      21.985  -0.902  54.371  1.00  0.00     0.078 A 
HETATM    6  C6  UNL     1      22.880  -0.117  53.710  1.00  0.00     0.040 A 
HETATM    7  C7  UNL     1      21.743   0.344  52.891  1.00  0.00     0.027 A 
HETATM    8  C8  UNL     1      20.885  -0.424  53.542  1.00  0.00    -0.024 A 
ENDROOT
BRANCH   1   9
HETATM    9  N1  UNL     1      25.099   0.840  53.230  1.00  0.00    -0.366 N 
HETATM   10  H5  UNL     1      24.987   1.851  53.472  1.00  0.00     0.161 HD
BRANCH   9  11
HETATM   11  C2  UNL     1      26.049   0.492  52.228  1.00  0.00     0.112 C 
HETATM   12  C1  UNL     1      26.433   1.652  51.323  1.00  0.00     0.037 C 
BRANCH  11  13
HETATM   13  C14 UNL     1      27.278  -0.167  52.700  1.00  0.00    -0.036 A 
HETATM   14  C15 UNL     1      27.616  -1.481  52.757  1.00  0.00     0.009 A 
HETATM   15  C16 UNL     1      28.807  -1.974  53.234  1.00  0.00     0.001 A 
HETATM   16  C17 UNL     1      29.767  -1.105  53.702  1.00  0.00     0.000 A 
HETATM   17  C18 UNL     1      29.512   0.250  53.683  1.00  0.00     0.001 A 
HETATM   18  C19 UNL     1      28.291   0.653  53.187  1.00  0.00     0.009 A 
ENDBRANCH  11  13
ENDBRANCH   9  11
ENDBRANCH   1   9
BRANCH   8  19
HETATM   19  C9  UNL     1      19.449  -0.804  53.601  1.00  0.00     0.071 C 
BRANCH  19  20
HETATM   20  C10 UNL     1      18.748  -0.405  52.350  1.00  0.00     0.014 C 
HETATM   21  C11 UNL     1      17.444  -0.498  52.301  1.00  0.00     0.063 C 
BRANCH  21  22
HETATM   22  O1  UNL     1      16.856  -0.970  53.458  1.00  0.00    -0.361 OA
HETATM   23  H11 UNL     1      17.177  -1.751  54.002  1.00  0.00     0.217 HD
ENDBRANCH  21  22
BRANCH  21  24
HETATM   24  C12 UNL     1      16.631  -0.150  51.164  1.00  0.00     0.052 C 
HETATM   25  C13 UNL     1      17.085  -0.203  49.938  1.00  0.00     0.083 C 
BRANCH  25  26
HETATM   26  N4  UNL     1      16.324   0.130  48.784  1.00  0.00    -0.408 N 
HETATM   27  H14 UNL     1      15.637  -0.655  48.625  1.00  0.00     0.155 HD
HETATM   28  H15 UNL     1      16.089   0.764  47.995  1.00  0.00     0.155 HD
ENDBRANCH  25  26
ENDBRANCH  21  24
ENDBRANCH  19  20
ENDBRANCH   8  19
TORSDOF 8
ENDMDL
MODEL 6
REMARK VINA RESULT:      -8.1      1.862      3.159
REMARK  8 active torsions:
REMARK  status: ('A' for Active; 'I' for Inactive)
REMARK    1  A    between atoms: C2_2  and  N1_3 
REMARK    2  A    between atoms: C2_2  and  C14_19 
REMARK    3  A    between atoms: N1_3  and  C3_4 
REMARK    4  A    between atoms: C8_11  and  C9_12 
REMARK    5  A    between atoms: C9_12  and  C10_13 
REMARK    6  A    between atoms: C11_14  and  O1_15 
REMARK    7  A    between atoms: C11_14  and  C12_16 
REMARK    8  A    between atoms: C13_17  and  N4_18 
ROOT
HETATM    1  C3  UNL     1      26.441   0.879  52.428  1.00  0.00     0.138 A 
HETATM    2  N2  UNL     1      27.485   0.617  53.229  1.00  0.00    -0.224 NA
HETATM    3  C4  UNL     1      27.408  -0.041  54.369  1.00  0.00     0.236 A 
HETATM    4  N3  UNL     1      26.224  -0.502  54.794  1.00  0.00    -0.241 NA
HETATM    5  C5  UNL     1      25.085  -0.313  54.087  1.00  0.00     0.078 A 
HETATM    6  C6  UNL     1      25.240   0.376  52.923  1.00  0.00     0.040 A 
HETATM    7  C7  UNL     1      23.786   0.215  52.732  1.00  0.00     0.027 A 
HETATM    8  C8  UNL     1      23.651  -0.452  53.866  1.00  0.00    -0.024 A 
ENDROOT
BRANCH   1   9
HETATM    9  N1  UNL     1      26.490   1.610  51.195  1.00  0.00    -0.366 N 
HETATM   10  H5  UNL     1      26.857   1.059  50.386  1.00  0.00     0.161 HD
BRANCH   9  11
HETATM   11  C2  UNL     1      26.105   2.963  50.966  1.00  0.00     0.112 C 
HETATM   12  C1  UNL     1      26.619   3.527  49.651  1.00  0.00     0.037 C 
BRANCH  11  13
HETATM   13  C14 UNL     1      24.667   3.256  51.078  1.00  0.00    -0.036 A 
HETATM   14  C15 UNL     1      23.963   3.894  52.048  1.00  0.00     0.009 A 
HETATM   15  C16 UNL     1      22.603   4.099  52.038  1.00  0.00     0.001 A 
HETATM   16  C17 UNL     1      21.852   3.638  50.979  1.00  0.00     0.000 A 
HETATM   17  C18 UNL     1      22.482   2.977  49.947  1.00  0.00     0.001 A 
HETATM   18  C19 UNL     1      23.847   2.818  50.042  1.00  0.00     0.009 A 
ENDBRANCH  11  13
ENDBRANCH   9  11
ENDBRANCH   1   9
BRANCH   8  19
HETATM   19  C9  UNL     1      22.644  -1.126  54.728  1.00  0.00     0.071 C 
BRANCH  19  20
HETATM   20  C10 UNL     1      21.439  -1.496  53.936  1.00  0.00     0.014 C 
HETATM   21  C11 UNL     1      20.365  -0.757  54.040  1.00  0.00     0.063 C 
BRANCH  21  22
HETATM   22  O1  UNL     1      20.484   0.315  54.902  1.00  0.00    -0.361 OA
HETATM   23  H11 UNL     1      20.918   0.294  55.807  1.00  0.00     0.217 HD
ENDBRANCH  21  22
BRANCH  21  24
HETATM   24  C12 UNL     1      19.128  -0.989  53.340  1.00  0.00     0.052 C 
HETATM   25  C13 UNL     1      18.251  -1.872  53.744  1.00  0.00     0.083 C 
BRANCH  25  26
HETATM   26  N4  UNL     1      17.017  -2.138  53.089  1.00  0.00    -0.408 N 
HETATM   27  H14 UNL     1      16.857  -3.180  53.134  1.00  0.00     0.155 HD
HETATM   28  H15 UNL     1      16.169  -1.827  52.575  1.00  0.00     0.155 HD
ENDBRANCH  25  26
ENDBRANCH  21  24
ENDBRANCH  19  20
ENDBRANCH   8  19
TORSDOF 8
ENDMDL
MODEL 7
REMARK VINA RESULT:      -8.1      3.740      9.641
REMARK  8 active torsions:
REMARK  status: ('A' for Active; 'I' for Inactive)
REMARK    1  A    between atoms: C2_2  and  N1_3 
REMARK    2  A    between atoms: C2_2  and  C14_19 
REMARK    3  A    between atoms: N1_3  and  C3_4 
REMARK    4  A    between atoms: C8_11  and  C9_12 
REMARK    5  A    between atoms: C9_12  and  C10_13 
REMARK    6  A    between atoms: C11_14  and  O1_15 
REMARK    7  A    between atoms: C11_14  and  C12_16 
REMARK    8  A    between atoms: C13_17  and  N4_18 
ROOT
HETATM    1  C3  UNL     1      24.400   3.251  51.056  1.00  0.00     0.138 A 
HETATM    2  N2  UNL     1      23.560   4.157  51.582  1.00  0.00    -0.224 NA
HETATM    3  C4  UNL     1      23.638   5.457  51.381  1.00  0.00     0.236 A 
HETATM    4  N3  UNL     1      24.608   5.954  50.601  1.00  0.00    -0.241 NA
HETATM    5  C5  UNL     1      25.526   5.158  50.003  1.00  0.00     0.078 A 
HETATM    6  C6  UNL     1      25.384   3.828  50.257  1.00  0.00     0.040 A 
HETATM    7  C7  UNL     1      26.565   3.625  49.396  1.00  0.00     0.027 A 
HETATM    8  C8  UNL     1      26.691   4.920  49.160  1.00  0.00    -0.024 A 
ENDROOT
BRANCH   1   9
HETATM    9  N1  UNL     1      24.352   1.835  51.273  1.00  0.00    -0.366 N 
HETATM   10  H5  UNL     1      24.080   1.282  50.429  1.00  0.00     0.161 HD
BRANCH   9  11
HETATM   11  C2  UNL     1      24.628   1.127  52.479  1.00  0.00     0.112 C 
HETATM   12  C1  UNL     1      25.477   1.913  53.465  1.00  0.00     0.037 C 
BRANCH  11  13
HETATM   13  C14 UNL     1      23.461   0.578  53.190  1.00  0.00    -0.036 A 
HETATM   14  C15 UNL     1      22.155   0.950  53.172  1.00  0.00     0.009 A 
HETATM   15  C16 UNL     1      21.151   0.354  53.898  1.00  0.00     0.001 A 
HETATM   16  C17 UNL     1      21.444  -0.710  54.722  1.00  0.00     0.000 A 
HETATM   17  C18 UNL     1      22.745  -1.157  54.804  1.00  0.00     0.001 A 
HETATM   18  C19 UNL     1      23.685  -0.499  54.041  1.00  0.00     0.009 A 
ENDBRANCH  11  13
ENDBRANCH   9  11
ENDBRANCH   1   9
BRANCH   8  19
HETATM   19  C9  UNL     1      27.522   5.912  48.429  1.00  0.00     0.071 C 
BRANCH  19  20
HETATM   20  C10 UNL     1      28.881   5.365  48.165  1.00  0.00     0.014 C 
HETATM   21  C11 UNL     1      29.924   6.096  48.461  1.00  0.00     0.063 C 
BRANCH  21  22
HETATM   22  O1  UNL     1      29.627   7.331  49.004  1.00  0.00    -0.361 OA
HETATM   23  H11 UNL     1      29.728   8.215  48.539  1.00  0.00     0.217 HD
ENDBRANCH  21  22
BRANCH  21  24
HETATM   24  C12 UNL     1      31.295   5.703  48.263  1.00  0.00     0.052 C 
HETATM   25  C13 UNL     1      32.196   5.812  49.205  1.00  0.00     0.083 C 
BRANCH  25  26
HETATM   26  N4  UNL     1      33.561   5.439  49.060  1.00  0.00    -0.408 N 
HETATM   27  H14 UNL     1      34.004   5.492  50.017  1.00  0.00     0.155 HD
HETATM   28  H15 UNL     1      34.369   5.133  48.482  1.00  0.00     0.155 HD
ENDBRANCH  25  26
ENDBRANCH  21  24
ENDBRANCH  19  20
ENDBRANCH   8  19
TORSDOF 8
ENDMDL
MODEL 8
REMARK VINA RESULT:      -8.1      2.338      3.955
REMARK  8 active torsions:
REMARK  status: ('A' for Active; 'I' for Inactive)
REMARK    1  A    between atoms: C2_2  and  N1_3 
REMARK    2  A    between atoms: C2_2  and  C14_19 
REMARK    3  A    between atoms: N1_3  and  C3_4 
REMARK    4  A    between atoms: C8_11  and  C9_12 
REMARK    5  A    between atoms: C9_12  and  C10_13 
REMARK    6  A    between atoms: C11_14  and  O1_15 
REMARK    7  A    between atoms: C11_14  and  C12_16 
REMARK    8  A    between atoms: C13_17  and  N4_18 
ROOT
HETATM    1  C3  UNL     1      24.800  -0.485  53.829  1.00  0.00     0.138 A 
HETATM    2  N2  UNL     1      25.174  -1.004  55.009  1.00  0.00    -0.224 NA
HETATM    3  C4  UNL     1      24.344  -1.476  55.917  1.00  0.00     0.236 A 
HETATM    4  N3  UNL     1      23.023  -1.456  55.688  1.00  0.00    -0.241 NA
HETATM    5  C5  UNL     1      22.502  -0.962  54.540  1.00  0.00     0.078 A 
HETATM    6  C6  UNL     1      23.419  -0.492  53.650  1.00  0.00     0.040 A 
HETATM    7  C7  UNL     1      22.276  -0.164  52.776  1.00  0.00     0.027 A 
HETATM    8  C8  UNL     1      21.397  -0.623  53.651  1.00  0.00    -0.024 A 
ENDROOT
BRANCH   1   9
HETATM    9  N1  UNL     1      25.678   0.054  52.831  1.00  0.00    -0.366 N 
HETATM   10  H5  UNL     1      25.998  -0.645  52.123  1.00  0.00     0.161 HD
BRANCH   9  11
HETATM   11  C2  UNL     1      26.143   1.395  52.710  1.00  0.00     0.112 C 
HETATM   12  C1  UNL     1      27.658   1.519  52.740  1.00  0.00     0.037 C 
BRANCH  11  13
HETATM   13  C14 UNL     1      25.628   2.158  51.561  1.00  0.00    -0.036 A 
HETATM   14  C15 UNL     1      24.361   2.332  51.106  1.00  0.00     0.009 A 
HETATM   15  C16 UNL     1      24.008   3.072  50.002  1.00  0.00     0.001 A 
HETATM   16  C17 UNL     1      24.984   3.707  49.267  1.00  0.00     0.000 A 
HETATM   17  C18 UNL     1      26.301   3.587  49.655  1.00  0.00     0.001 A 
HETATM   18  C19 UNL     1      26.560   2.826  50.773  1.00  0.00     0.009 A 
ENDBRANCH  11  13
ENDBRANCH   9  11
ENDBRANCH   1   9
BRANCH   8  19
HETATM   19  C9  UNL     1      19.940  -0.819  53.871  1.00  0.00     0.071 C 
BRANCH  19  20
HETATM   20  C10 UNL     1      19.176  -0.504  52.634  1.00  0.00     0.014 C 
HETATM   21  C11 UNL     1      17.883  -0.705  52.622  1.00  0.00     0.063 C 
BRANCH  21  22
HETATM   22  O1  UNL     1      17.367  -1.201  53.803  1.00  0.00    -0.361 OA
HETATM   23  H11 UNL     1      17.532  -0.825  54.719  1.00  0.00     0.217 HD
ENDBRANCH  21  22
BRANCH  21  24
HETATM   24  C12 UNL     1      17.014  -0.449  51.503  1.00  0.00     0.052 C 
HETATM   25  C13 UNL     1      17.474  -0.122  50.322  1.00  0.00     0.083 C 
BRANCH  25  26
HETATM   26  N4  UNL     1      16.659   0.141  49.187  1.00  0.00    -0.408 N 
HETATM   27  H14 UNL     1      16.792   1.157  48.934  1.00  0.00     0.155 HD
HETATM   28  H15 UNL     1      15.982  -0.160  48.458  1.00  0.00     0.155 HD
ENDBRANCH  25  26
ENDBRANCH  21  24
ENDBRANCH  19  20
ENDBRANCH   8  19
TORSDOF 8
ENDMDL
MODEL 9
REMARK VINA RESULT:      -7.9      4.152      9.393
REMARK  8 active torsions:
REMARK  status: ('A' for Active; 'I' for Inactive)
REMARK    1  A    between atoms: C2_2  and  N1_3 
REMARK    2  A    between atoms: C2_2  and  C14_19 
REMARK    3  A    between atoms: N1_3  and  C3_4 
REMARK    4  A    between atoms: C8_11  and  C9_12 
REMARK    5  A    between atoms: C9_12  and  C10_13 
REMARK    6  A    between atoms: C11_14  and  O1_15 
REMARK    7  A    between atoms: C11_14  and  C12_16 
REMARK    8  A    between atoms: C13_17  and  N4_18 
ROOT
HETATM    1  C3  UNL     1      24.608   4.350  50.707  1.00  0.00     0.138 A 
HETATM    2  N2  UNL     1      23.959   5.410  51.214  1.00  0.00    -0.224 NA
HETATM    3  C4  UNL     1      24.287   6.667  50.991  1.00  0.00     0.236 A 
HETATM    4  N3  UNL     1      25.337   6.953  50.208  1.00  0.00    -0.241 NA
HETATM    5  C5  UNL     1      26.083   5.984  49.628  1.00  0.00     0.078 A 
HETATM    6  C6  UNL     1      25.686   4.711  49.903  1.00  0.00     0.040 A 
HETATM    7  C7  UNL     1      26.807   4.268  49.052  1.00  0.00     0.027 A 
HETATM    8  C8  UNL     1      27.181   5.510  48.794  1.00  0.00    -0.024 A 
ENDROOT
BRANCH   1   9
HETATM    9  N1  UNL     1      24.287   2.974  50.949  1.00  0.00    -0.366 N 
HETATM   10  H5  UNL     1      24.307   2.374  50.092  1.00  0.00     0.161 HD
BRANCH   9  11
HETATM   11  C2  UNL     1      23.956   2.359  52.191  1.00  0.00     0.112 C 
HETATM   12  C1  UNL     1      22.486   1.990  52.313  1.00  0.00     0.037 C 
BRANCH  11  13
HETATM   13  C14 UNL     1      24.770   1.195  52.577  1.00  0.00    -0.036 A 
HETATM   14  C15 UNL     1      24.578   0.257  53.539  1.00  0.00     0.009 A 
HETATM   15  C16 UNL     1      25.429  -0.789  53.809  1.00  0.00     0.001 A 
HETATM   16  C17 UNL     1      26.580  -0.940  53.069  1.00  0.00     0.000 A 
HETATM   17  C18 UNL     1      26.859  -0.033  52.069  1.00  0.00     0.001 A 
HETATM   18  C19 UNL     1      25.950   0.983  51.871  1.00  0.00     0.009 A 
ENDBRANCH  11  13
ENDBRANCH   9  11
ENDBRANCH   1   9
BRANCH   8  19
HETATM   19  C9  UNL     1      28.190   6.309  48.051  1.00  0.00     0.071 C 
BRANCH  19  20
HETATM   20  C10 UNL     1      29.519   5.639  48.083  1.00  0.00     0.014 C 
HETATM   21  C11 UNL     1      30.520   6.251  48.662  1.00  0.00     0.063 C 
BRANCH  21  22
HETATM   22  O1  UNL     1      30.210   7.488  49.192  1.00  0.00    -0.361 OA
HETATM   23  H11 UNL     1      30.801   8.300  49.169  1.00  0.00     0.217 HD
ENDBRANCH  21  22
BRANCH  21  24
HETATM   24  C12 UNL     1      31.858   5.730  48.771  1.00  0.00     0.052 C 
HETATM   25  C13 UNL     1      32.224   4.617  48.188  1.00  0.00     0.083 C 
BRANCH  25  26
HETATM   26  N4  UNL     1      33.531   4.062  48.266  1.00  0.00    -0.408 N 
HETATM   27  H14 UNL     1      33.982   4.441  49.141  1.00  0.00     0.155 HD
HETATM   28  H15 UNL     1      34.292   3.458  47.894  1.00  0.00     0.155 HD
ENDBRANCH  25  26
ENDBRANCH  21  24
ENDBRANCH  19  20
ENDBRANCH   8  19
TORSDOF 8
ENDMDL
