MODEL 1
REMARK VINA RESULT:      -8.5      0.000      0.000
REMARK  7 active torsions:
REMARK  status: ('A' for Active; 'I' for Inactive)
REMARK    1  A    between atoms: O1_2  and  C2_3 
REMARK    2  A    between atoms: C6_9  and  N3_10 
REMARK    3  A    between atoms: N3_10  and  C7_11 
REMARK    4  A    between atoms: C15_21  and  O2_22 
REMARK    5  A    between atoms: O2_22  and  C16_23 
REMARK    6  A    between atoms: C16_23  and  C17_24 
REMARK    7  A    between atoms: C17_24  and  N4_25 
ROOT
HETATM    1  C2  UNL     1      20.074  -0.154  52.667  1.00  0.00     0.103 A 
HETATM    2  C3  UNL     1      20.427  -0.786  53.866  1.00  0.00     0.072 A 
HETATM    3  C4  UNL     1      21.776  -0.837  54.170  1.00  0.00     0.075 A 
HETATM    4  N1  UNL     1      22.141  -1.433  55.300  1.00  0.00    -0.241 NA
HETATM    5  C5  UNL     1      23.433  -1.516  55.656  1.00  0.00     0.236 A 
HETATM    6  N2  UNL     1      24.339  -0.977  54.828  1.00  0.00    -0.224 NA
HETATM    7  C6  UNL     1      24.020  -0.366  53.676  1.00  0.00     0.142 A 
HETATM    8  C13 UNL     1      22.709  -0.281  53.312  1.00  0.00     0.042 A 
HETATM    9  C14 UNL     1      22.373   0.341  52.136  1.00  0.00     0.057 A 
HETATM   10  C15 UNL     1      21.040   0.416  51.792  1.00  0.00     0.103 A 
ENDROOT
BRANCH   7  11
HETATM   11  N3  UNL     1      25.041   0.153  52.878  1.00  0.00    -0.340 N 
HETATM   12  H6  UNL     1      24.926   0.707  52.018  1.00  0.00     0.167 HD
BRANCH  11  13
HETATM   13  C7  UNL     1      26.461   0.002  53.113  1.00  0.00     0.035 A 
HETATM   14  C8  UNL     1      26.997  -1.246  52.781  1.00  0.00     0.032 A 
HETATM   15  C9  UNL     1      28.345  -1.406  53.013  1.00  0.00     0.046 A 
HETATM   16  C10 UNL     1      29.213  -0.468  53.542  1.00  0.00     0.138 A 
HETATM   17  F1  UNL     1      30.525  -0.668  53.750  1.00  0.00    -0.204 F 
HETATM   18  C11 UNL     1      28.589   0.712  53.832  1.00  0.00     0.074 A 
HETATM   19 CL1  UNL     1      29.501   2.048  54.509  1.00  0.00    -0.081 Cl
HETATM   20  C12 UNL     1      27.235   1.019  53.647  1.00  0.00     0.056 A 
ENDBRANCH  11  13
ENDBRANCH   7  11
BRANCH  10  21
HETATM   21  O2  UNL     1      20.409   0.920  50.792  1.00  0.00    -0.347 OA
BRANCH  21  22
HETATM   22  C16 UNL     1      19.760   1.425  49.791  1.00  0.00     0.206 C 
BRANCH  22  23
HETATM   23  C17 UNL     1      19.758   2.950  49.735  1.00  0.00     0.299 C 
BRANCH  23  24
HETATM   24  N4  UNL     1      20.796   3.446  48.871  1.00  0.00     0.090 N 
HETATM   25  C18 UNL     1      21.073   2.504  47.799  1.00  0.00     0.272 C 
HETATM   26  C19 UNL     1      22.535   2.209  47.784  1.00  0.00     0.032 C 
HETATM   27  C20 UNL     1      23.089   2.796  49.045  1.00  0.00     0.032 C 
HETATM   28  C21 UNL     1      22.032   3.754  49.484  1.00  0.00     0.272 C 
ENDBRANCH  23  24
ENDBRANCH  22  23
ENDBRANCH  21  22
ENDBRANCH  10  21
BRANCH   1  29
HETATM   29  O1  UNL     1      18.732  -0.085  52.329  1.00  0.00    -0.353 OA
HETATM   30  C1  UNL     1      17.817  -1.043  52.780  1.00  0.00     0.210 C 
ENDBRANCH   1  29
TORSDOF 7
ENDMDL
MODEL 2
REMARK VINA RESULT:      -8.5      3.738      6.884
REMARK  7 active torsions:
REMARK  status: ('A' for Active; 'I' for Inactive)
REMARK    1  A    between atoms: O1_2  and  C2_3 
REMARK    2  A    between atoms: C6_9  and  N3_10 
REMARK    3  A    between atoms: N3_10  and  C7_11 
REMARK    4  A    between atoms: C15_21  and  O2_22 
REMARK    5  A    between atoms: O2_22  and  C16_23 
REMARK    6  A    between atoms: C16_23  and  C17_24 
REMARK    7  A    between atoms: C17_24  and  N4_25 
ROOT
HETATM    1  C2  UNL     1      22.896   0.168  52.699  1.00  0.00     0.103 A 
HETATM    2  C3  UNL     1      21.889   0.647  51.851  1.00  0.00     0.072 A 
HETATM    3  C4  UNL     1      22.073   1.909  51.315  1.00  0.00     0.075 A 
HETATM    4  N1  UNL     1      21.133   2.390  50.508  1.00  0.00    -0.241 NA
HETATM    5  C5  UNL     1      21.251   3.607  49.954  1.00  0.00     0.236 A 
HETATM    6  N2  UNL     1      22.348   4.318  50.246  1.00  0.00    -0.224 NA
HETATM    7  C6  UNL     1      23.324   3.877  51.055  1.00  0.00     0.142 A 
HETATM    8  C13 UNL     1      23.208   2.641  51.621  1.00  0.00     0.042 A 
HETATM    9  C14 UNL     1      24.199   2.182  52.449  1.00  0.00     0.057 A 
HETATM   10  C15 UNL     1      24.059   0.928  53.006  1.00  0.00     0.103 A 
ENDROOT
BRANCH   7  11
HETATM   11  N3  UNL     1      24.423   4.700  51.306  1.00  0.00    -0.340 N 
HETATM   12  H6  UNL     1      24.675   5.131  52.206  1.00  0.00     0.167 HD
BRANCH  11  13
HETATM   13  C7  UNL     1      25.417   5.107  50.335  1.00  0.00     0.035 A 
HETATM   14  C8  UNL     1      26.231   4.082  49.841  1.00  0.00     0.032 A 
HETATM   15  C9  UNL     1      27.189   4.460  48.927  1.00  0.00     0.046 A 
HETATM   16  C10 UNL     1      27.429   5.738  48.456  1.00  0.00     0.138 A 
HETATM   17  F1  UNL     1      28.377   6.061  47.560  1.00  0.00    -0.204 F 
HETATM   18  C11 UNL     1      26.583   6.660  49.002  1.00  0.00     0.074 A 
HETATM   19 CL1  UNL     1      26.704   8.349  48.543  1.00  0.00    -0.081 Cl
HETATM   20  C12 UNL     1      25.564   6.424  49.933  1.00  0.00     0.056 A 
ENDBRANCH  11  13
ENDBRANCH   7  11
BRANCH  10  21
HETATM   21  O2  UNL     1      24.786   0.222  53.797  1.00  0.00    -0.347 OA
BRANCH  21  22
HETATM   22  C16 UNL     1      25.521  -0.477  54.603  1.00  0.00     0.206 C 
BRANCH  22  23
HETATM   23  C17 UNL     1      26.898   0.116  54.888  1.00  0.00     0.299 C 
BRANCH  23  24
HETATM   24  N4  UNL     1      27.765   0.007  53.745  1.00  0.00     0.090 N 
HETATM   25  C18 UNL     1      27.763  -1.349  53.220  1.00  0.00     0.272 C 
HETATM   26  C19 UNL     1      29.171  -1.830  53.123  1.00  0.00     0.032 C 
HETATM   27  C20 UNL     1      30.004  -0.822  53.853  1.00  0.00     0.032 C 
HETATM   28  C21 UNL     1      29.115   0.374  53.942  1.00  0.00     0.272 C 
ENDBRANCH  23  24
ENDBRANCH  22  23
ENDBRANCH  21  22
ENDBRANCH  10  21
BRANCH   1  29
HETATM   29  O1  UNL     1      22.745  -1.091  53.255  1.00  0.00    -0.353 OA
HETATM   30  C1  UNL     1      21.669  -1.391  54.099  1.00  0.00     0.210 C 
ENDBRANCH   1  29
TORSDOF 7
ENDMDL
MODEL 3
REMARK VINA RESULT:      -8.0      2.356      2.982
REMARK  7 active torsions:
REMARK  status: ('A' for Active; 'I' for Inactive)
REMARK    1  A    between atoms: O1_2  and  C2_3 
REMARK    2  A    between atoms: C6_9  and  N3_10 
REMARK    3  A    between atoms: N3_10  and  C7_11 
REMARK    4  A    between atoms: C15_21  and  O2_22 
REMARK    5  A    between atoms: O2_22  and  C16_23 
REMARK    6  A    between atoms: C16_23  and  C17_24 
REMARK    7  A    between atoms: C17_24  and  N4_25 
ROOT
HETATM    1  C2  UNL     1      20.522   2.785  52.307  1.00  0.00     0.103 A 
HETATM    2  C3  UNL     1      20.417   1.684  53.167  1.00  0.00     0.072 A 
HETATM    3  C4  UNL     1      21.540   0.884  53.295  1.00  0.00     0.075 A 
HETATM    4  N1  UNL     1      21.469  -0.168  54.102  1.00  0.00    -0.241 NA
HETATM    5  C5  UNL     1      22.522  -0.984  54.273  1.00  0.00     0.236 A 
HETATM    6  N2  UNL     1      23.644  -0.697  53.598  1.00  0.00    -0.224 NA
HETATM    7  C6  UNL     1      23.764   0.353  52.771  1.00  0.00     0.142 A 
HETATM    8  C13 UNL     1      22.696   1.183  52.594  1.00  0.00     0.042 A 
HETATM    9  C14 UNL     1      22.809   2.259  51.751  1.00  0.00     0.057 A 
HETATM   10  C15 UNL     1      21.716   3.084  51.592  1.00  0.00     0.103 A 
ENDROOT
BRANCH   7  11
HETATM   11  N3  UNL     1      24.973   0.559  52.104  1.00  0.00    -0.340 N 
HETATM   12  H6  UNL     1      25.111   0.612  51.086  1.00  0.00     0.167 HD
BRANCH  11  13
HETATM   13  C7  UNL     1      26.267   0.731  52.730  1.00  0.00     0.035 A 
HETATM   14  C8  UNL     1      26.522   2.005  53.247  1.00  0.00     0.032 A 
HETATM   15  C9  UNL     1      27.755   2.185  53.832  1.00  0.00     0.046 A 
HETATM   16  C10 UNL     1      28.760   1.243  53.953  1.00  0.00     0.138 A 
HETATM   17  F1  UNL     1      29.952   1.462  54.535  1.00  0.00    -0.204 F 
HETATM   18  C11 UNL     1      28.412   0.037  53.415  1.00  0.00     0.074 A 
HETATM   19 CL1  UNL     1      29.535  -1.308  53.462  1.00  0.00    -0.081 Cl
HETATM   20  C12 UNL     1      27.199  -0.292  52.796  1.00  0.00     0.056 A 
ENDBRANCH  11  13
ENDBRANCH   7  11
BRANCH  10  21
HETATM   21  O2  UNL     1      21.498   4.146  50.901  1.00  0.00    -0.347 OA
BRANCH  21  22
HETATM   22  C16 UNL     1      21.272   5.208  50.195  1.00  0.00     0.206 C 
BRANCH  22  23
HETATM   23  C17 UNL     1      21.737   6.513  50.837  1.00  0.00     0.299 C 
BRANCH  23  24
HETATM   24  N4  UNL     1      23.057   6.875  50.395  1.00  0.00     0.090 N 
HETATM   25  C18 UNL     1      23.282   6.444  49.025  1.00  0.00     0.272 C 
HETATM   26  C19 UNL     1      24.535   5.637  48.974  1.00  0.00     0.032 C 
HETATM   27  C20 UNL     1      24.915   5.372  50.397  1.00  0.00     0.032 C 
HETATM   28  C21 UNL     1      24.136   6.386  51.166  1.00  0.00     0.272 C 
ENDBRANCH  23  24
ENDBRANCH  22  23
ENDBRANCH  21  22
ENDBRANCH  10  21
BRANCH   1  29
HETATM   29  O1  UNL     1      19.418   3.607  52.153  1.00  0.00    -0.353 OA
HETATM   30  C1  UNL     1      18.231   3.134  51.582  1.00  0.00     0.210 C 
ENDBRANCH   1  29
TORSDOF 7
ENDMDL
MODEL 4
REMARK VINA RESULT:      -7.9      6.493      9.453
REMARK  7 active torsions:
REMARK  status: ('A' for Active; 'I' for Inactive)
REMARK    1  A    between atoms: O1_2  and  C2_3 
REMARK    2  A    between atoms: C6_9  and  N3_10 
REMARK    3  A    between atoms: N3_10  and  C7_11 
REMARK    4  A    between atoms: C15_21  and  O2_22 
REMARK    5  A    between atoms: O2_22  and  C16_23 
REMARK    6  A    between atoms: C16_23  and  C17_24 
REMARK    7  A    between atoms: C17_24  and  N4_25 
ROOT
HETATM    1  C2  UNL     1      28.253   6.708  48.145  1.00  0.00     0.103 A 
HETATM    2  C3  UNL     1      27.035   7.309  48.491  1.00  0.00     0.072 A 
HETATM    3  C4  UNL     1      26.070   6.486  49.045  1.00  0.00     0.075 A 
HETATM    4  N1  UNL     1      24.904   7.028  49.380  1.00  0.00    -0.241 NA
HETATM    5  C5  UNL     1      23.925   6.287  49.924  1.00  0.00     0.236 A 
HETATM    6  N2  UNL     1      24.167   4.983  50.113  1.00  0.00    -0.224 NA
HETATM    7  C6  UNL     1      25.327   4.389  49.790  1.00  0.00     0.142 A 
HETATM    8  C13 UNL     1      26.323   5.139  49.237  1.00  0.00     0.042 A 
HETATM    9  C14 UNL     1      27.512   4.542  48.903  1.00  0.00     0.057 A 
HETATM   10  C15 UNL     1      28.504   5.322  48.348  1.00  0.00     0.103 A 
ENDROOT
BRANCH   7  11
HETATM   11  N3  UNL     1      25.476   3.020  50.017  1.00  0.00    -0.340 N 
HETATM   12  H6  UNL     1      25.406   2.271  49.315  1.00  0.00     0.167 HD
BRANCH  11  13
HETATM   13  C7  UNL     1      25.754   2.398  51.294  1.00  0.00     0.035 A 
HETATM   14  C8  UNL     1      24.672   1.747  51.896  1.00  0.00     0.032 A 
HETATM   15  C9  UNL     1      24.921   1.164  53.117  1.00  0.00     0.046 A 
HETATM   16  C10 UNL     1      26.120   1.160  53.806  1.00  0.00     0.138 A 
HETATM   17  F1  UNL     1      26.319   0.575  54.999  1.00  0.00    -0.204 F 
HETATM   18  C11 UNL     1      27.108   1.822  53.134  1.00  0.00     0.074 A 
HETATM   19 CL1  UNL     1      28.717   1.939  53.821  1.00  0.00    -0.081 Cl
HETATM   20  C12 UNL     1      27.003   2.457  51.890  1.00  0.00     0.056 A 
ENDBRANCH  11  13
ENDBRANCH   7  11
BRANCH  10  21
HETATM   21  O2  UNL     1      29.699   5.080  47.940  1.00  0.00    -0.347 OA
BRANCH  21  22
HETATM   22  C16 UNL     1      30.897   4.835  47.514  1.00  0.00     0.206 C 
BRANCH  22  23
HETATM   23  C17 UNL     1      32.012   5.457  48.353  1.00  0.00     0.299 C 
BRANCH  23  24
HETATM   24  N4  UNL     1      33.272   5.422  47.660  1.00  0.00     0.090 N 
HETATM   25  C18 UNL     1      33.171   4.640  46.438  1.00  0.00     0.272 C 
HETATM   26  C19 UNL     1      34.243   3.603  46.441  1.00  0.00     0.032 C 
HETATM   27  C20 UNL     1      34.825   3.612  47.820  1.00  0.00     0.032 C 
HETATM   28  C21 UNL     1      34.376   4.919  48.385  1.00  0.00     0.272 C 
ENDBRANCH  23  24
ENDBRANCH  22  23
ENDBRANCH  21  22
ENDBRANCH  10  21
BRANCH   1  29
HETATM   29  O1  UNL     1      29.243   7.500  47.587  1.00  0.00    -0.353 OA
HETATM   30  C1  UNL     1      29.772   8.598  48.274  1.00  0.00     0.210 C 
ENDBRANCH   1  29
TORSDOF 7
ENDMDL
MODEL 5
REMARK VINA RESULT:      -7.9      3.373      6.822
REMARK  7 active torsions:
REMARK  status: ('A' for Active; 'I' for Inactive)
REMARK    1  A    between atoms: O1_2  and  C2_3 
REMARK    2  A    between atoms: C6_9  and  N3_10 
REMARK    3  A    between atoms: N3_10  and  C7_11 
REMARK    4  A    between atoms: C15_21  and  O2_22 
REMARK    5  A    between atoms: O2_22  and  C16_23 
REMARK    6  A    between atoms: C16_23  and  C17_24 
REMARK    7  A    between atoms: C17_24  and  N4_25 
ROOT
HETATM    1  C2  UNL     1      22.093   0.493  53.686  1.00  0.00     0.103 A 
HETATM    2  C3  UNL     1      20.871   1.162  53.537  1.00  0.00     0.072 A 
HETATM    3  C4  UNL     1      20.791   2.094  52.517  1.00  0.00     0.075 A 
HETATM    4  N1  UNL     1      19.645   2.746  52.353  1.00  0.00    -0.241 NA
HETATM    5  C5  UNL     1      19.501   3.662  51.381  1.00  0.00     0.236 A 
HETATM    6  N2  UNL     1      20.554   3.894  50.587  1.00  0.00    -0.224 NA
HETATM    7  C6  UNL     1      21.732   3.264  50.714  1.00  0.00     0.142 A 
HETATM    8  C13 UNL     1      21.883   2.333  51.700  1.00  0.00     0.042 A 
HETATM    9  C14 UNL     1      23.083   1.683  51.838  1.00  0.00     0.057 A 
HETATM   10  C15 UNL     1      23.208   0.745  52.840  1.00  0.00     0.103 A 
ENDROOT
BRANCH   7  11
HETATM   11  N3  UNL     1      22.774   3.586  49.842  1.00  0.00    -0.340 N 
HETATM   12  H6  UNL     1      23.028   3.088  48.978  1.00  0.00     0.167 HD
BRANCH  11  13
HETATM   13  C7  UNL     1      23.699   4.688  49.999  1.00  0.00     0.035 A 
HETATM   14  C8  UNL     1      23.342   5.644  50.956  1.00  0.00     0.032 A 
HETATM   15  C9  UNL     1      24.207   6.705  51.103  1.00  0.00     0.046 A 
HETATM   16  C10 UNL     1      25.380   6.921  50.404  1.00  0.00     0.138 A 
HETATM   17  F1  UNL     1      26.198   7.972  50.583  1.00  0.00    -0.204 F 
HETATM   18  C11 UNL     1      25.635   5.933  49.496  1.00  0.00     0.074 A 
HETATM   19 CL1  UNL     1      27.076   6.001  48.499  1.00  0.00    -0.081 Cl
HETATM   20  C12 UNL     1      24.853   4.800  49.240  1.00  0.00     0.056 A 
ENDBRANCH  11  13
ENDBRANCH   7  11
BRANCH  10  21
HETATM   21  O2  UNL     1      24.167  -0.021  53.224  1.00  0.00    -0.347 OA
BRANCH  21  22
HETATM   22  C16 UNL     1      25.140  -0.781  53.615  1.00  0.00     0.206 C 
BRANCH  22  23
HETATM   23  C17 UNL     1      26.388  -0.033  54.077  1.00  0.00     0.299 C 
BRANCH  23  24
HETATM   24  N4  UNL     1      27.485  -0.231  53.168  1.00  0.00     0.090 N 
HETATM   25  C18 UNL     1      27.655  -1.642  52.859  1.00  0.00     0.272 C 
HETATM   26  C19 UNL     1      29.071  -2.027  53.129  1.00  0.00     0.032 C 
HETATM   27  C20 UNL     1      29.682  -0.872  53.860  1.00  0.00     0.032 C 
HETATM   28  C21 UNL     1      28.745   0.257  53.585  1.00  0.00     0.272 C 
ENDBRANCH  23  24
ENDBRANCH  22  23
ENDBRANCH  21  22
ENDBRANCH  10  21
BRANCH   1  29
HETATM   29  O1  UNL     1      22.210  -0.446  54.698  1.00  0.00    -0.353 OA
HETATM   30  C1  UNL     1      21.470  -1.635  54.678  1.00  0.00     0.210 C 
ENDBRANCH   1  29
TORSDOF 7
ENDMDL
MODEL 6
REMARK VINA RESULT:      -7.6      4.396      7.617
REMARK  7 active torsions:
REMARK  status: ('A' for Active; 'I' for Inactive)
REMARK    1  A    between atoms: O1_2  and  C2_3 
REMARK    2  A    between atoms: C6_9  and  N3_10 
REMARK    3  A    between atoms: N3_10  and  C7_11 
REMARK    4  A    between atoms: C15_21  and  O2_22 
REMARK    5  A    between atoms: O2_22  and  C16_23 
REMARK    6  A    between atoms: C16_23  and  C17_24 
REMARK    7  A    between atoms: C17_24  and  N4_25 
ROOT
HETATM    1  C2  UNL     1      22.307   2.517  52.226  1.00  0.00     0.103 A 
HETATM    2  C3  UNL     1      21.342   3.380  51.691  1.00  0.00     0.072 A 
HETATM    3  C4  UNL     1      21.763   4.655  51.354  1.00  0.00     0.075 A 
HETATM    4  N1  UNL     1      20.869   5.496  50.846  1.00  0.00    -0.241 NA
HETATM    5  C5  UNL     1      21.212   6.746  50.496  1.00  0.00     0.236 A 
HETATM    6  N2  UNL     1      22.488   7.113  50.680  1.00  0.00    -0.224 NA
HETATM    7  C6  UNL     1      23.427   6.301  51.190  1.00  0.00     0.142 A 
HETATM    8  C13 UNL     1      23.082   5.030  51.547  1.00  0.00     0.042 A 
HETATM    9  C14 UNL     1      24.034   4.193  52.069  1.00  0.00     0.057 A 
HETATM   10  C15 UNL     1      23.660   2.913  52.419  1.00  0.00     0.103 A 
ENDROOT
BRANCH   7  11
HETATM   11  N3  UNL     1      24.727   6.782  51.353  1.00  0.00    -0.340 N 
HETATM   12  H6  UNL     1      25.173   7.059  52.238  1.00  0.00     0.167 HD
BRANCH  11  13
HETATM   13  C7  UNL     1      25.693   6.988  50.295  1.00  0.00     0.035 A 
HETATM   14  C8  UNL     1      25.899   5.896  49.446  1.00  0.00     0.032 A 
HETATM   15  C9  UNL     1      26.827   6.075  48.445  1.00  0.00     0.046 A 
HETATM   16  C10 UNL     1      27.572   7.213  48.199  1.00  0.00     0.138 A 
HETATM   17  F1  UNL     1      28.468   7.345  47.205  1.00  0.00    -0.204 F 
HETATM   18  C11 UNL     1      27.297   8.217  49.084  1.00  0.00     0.074 A 
HETATM   19 CL1  UNL     1      28.125   9.757  48.956  1.00  0.00    -0.081 Cl
HETATM   20  C12 UNL     1      26.382   8.181  50.143  1.00  0.00     0.056 A 
ENDBRANCH  11  13
ENDBRANCH   7  11
BRANCH  10  21
HETATM   21  O2  UNL     1      24.291   1.908  52.916  1.00  0.00    -0.347 OA
BRANCH  21  22
HETATM   22  C16 UNL     1      24.923   0.902  53.429  1.00  0.00     0.206 C 
BRANCH  22  23
HETATM   23  C17 UNL     1      26.312   1.229  53.971  1.00  0.00     0.299 C 
BRANCH  23  24
HETATM   24  N4  UNL     1      26.996   0.044  54.415  1.00  0.00     0.090 N 
HETATM   25  C18 UNL     1      28.359   0.351  54.818  1.00  0.00     0.272 C 
HETATM   26  C19 UNL     1      29.292  -0.553  54.086  1.00  0.00     0.032 C 
HETATM   27  C20 UNL     1      28.472  -1.231  53.034  1.00  0.00     0.032 C 
HETATM   28  C21 UNL     1      27.067  -1.025  53.493  1.00  0.00     0.272 C 
ENDBRANCH  23  24
ENDBRANCH  22  23
ENDBRANCH  21  22
ENDBRANCH  10  21
BRANCH   1  29
HETATM   29  O1  UNL     1      21.921   1.234  52.576  1.00  0.00    -0.353 OA
HETATM   30  C1  UNL     1      20.770   1.002  53.339  1.00  0.00     0.210 C 
ENDBRANCH   1  29
TORSDOF 7
ENDMDL
MODEL 7
REMARK VINA RESULT:      -7.5      3.777      5.314
REMARK  7 active torsions:
REMARK  status: ('A' for Active; 'I' for Inactive)
REMARK    1  A    between atoms: O1_2  and  C2_3 
REMARK    2  A    between atoms: C6_9  and  N3_10 
REMARK    3  A    between atoms: N3_10  and  C7_11 
REMARK    4  A    between atoms: C15_21  and  O2_22 
REMARK    5  A    between atoms: O2_22  and  C16_23 
REMARK    6  A    between atoms: C16_23  and  C17_24 
REMARK    7  A    between atoms: C17_24  and  N4_25 
ROOT
HETATM    1  C2  UNL     1      23.178   0.663  53.127  1.00  0.00     0.103 A 
HETATM    2  C3  UNL     1      24.386   0.754  53.832  1.00  0.00     0.072 A 
HETATM    3  C4  UNL     1      25.452   1.336  53.169  1.00  0.00     0.075 A 
HETATM    4  N1  UNL     1      26.611   1.434  53.811  1.00  0.00    -0.241 NA
HETATM    5  C5  UNL     1      27.684   1.989  53.226  1.00  0.00     0.236 A 
HETATM    6  N2  UNL     1      27.544   2.438  51.972  1.00  0.00    -0.224 NA
HETATM    7  C6  UNL     1      26.396   2.361  51.281  1.00  0.00     0.142 A 
HETATM    8  C13 UNL     1      25.303   1.797  51.872  1.00  0.00     0.042 A 
HETATM    9  C14 UNL     1      24.125   1.713  51.174  1.00  0.00     0.057 A 
HETATM   10  C15 UNL     1      23.035   1.141  51.795  1.00  0.00     0.103 A 
ENDROOT
BRANCH   7  11
HETATM   11  N3  UNL     1      26.355   2.847  49.973  1.00  0.00    -0.340 N 
HETATM   12  H6  UNL     1      26.268   2.289  49.113  1.00  0.00     0.167 HD
BRANCH  11  13
HETATM   13  C7  UNL     1      26.434   4.239  49.584  1.00  0.00     0.035 A 
HETATM   14  C8  UNL     1      25.332   5.027  49.933  1.00  0.00     0.032 A 
HETATM   15  C9  UNL     1      25.390   6.349  49.555  1.00  0.00     0.046 A 
HETATM   16  C10 UNL     1      26.416   6.971  48.868  1.00  0.00     0.138 A 
HETATM   17  F1  UNL     1      26.431   8.269  48.521  1.00  0.00    -0.204 F 
HETATM   18  C11 UNL     1      27.439   6.116  48.575  1.00  0.00     0.074 A 
HETATM   19 CL1  UNL     1      28.851   6.693  47.709  1.00  0.00    -0.081 Cl
HETATM   20  C12 UNL     1      27.521   4.755  48.897  1.00  0.00     0.056 A 
ENDBRANCH  11  13
ENDBRANCH   7  11
BRANCH  10  21
HETATM   21  O2  UNL     1      21.821   0.921  51.432  1.00  0.00    -0.347 OA
BRANCH  21  22
HETATM   22  C16 UNL     1      20.595   0.712  51.073  1.00  0.00     0.206 C 
BRANCH  22  23
HETATM   23  C17 UNL     1      19.575   1.656  51.704  1.00  0.00     0.299 C 
BRANCH  23  24
HETATM   24  N4  UNL     1      19.529   2.917  51.015  1.00  0.00     0.090 N 
HETATM   25  C18 UNL     1      20.009   2.780  49.649  1.00  0.00     0.272 C 
HETATM   26  C19 UNL     1      21.083   3.787  49.413  1.00  0.00     0.032 C 
HETATM   27  C20 UNL     1      21.420   4.356  50.756  1.00  0.00     0.032 C 
HETATM   28  C21 UNL     1      20.249   3.982  51.602  1.00  0.00     0.272 C 
ENDBRANCH  23  24
ENDBRANCH  22  23
ENDBRANCH  21  22
ENDBRANCH  10  21
BRANCH   1  29
HETATM   29  O1  UNL     1      22.089   0.085  53.759  1.00  0.00    -0.353 OA
HETATM   30  C1  UNL     1      22.236  -1.038  54.581  1.00  0.00     0.210 C 
ENDBRANCH   1  29
TORSDOF 7
ENDMDL
MODEL 8
REMARK VINA RESULT:      -7.5      3.246      4.403
REMARK  7 active torsions:
REMARK  status: ('A' for Active; 'I' for Inactive)
REMARK    1  A    between atoms: O1_2  and  C2_3 
REMARK    2  A    between atoms: C6_9  and  N3_10 
REMARK    3  A    between atoms: N3_10  and  C7_11 
REMARK    4  A    between atoms: C15_21  and  O2_22 
REMARK    5  A    between atoms: O2_22  and  C16_23 
REMARK    6  A    between atoms: C16_23  and  C17_24 
REMARK    7  A    between atoms: C17_24  and  N4_25 
ROOT
HETATM    1  C2  UNL     1      22.912   2.568  49.892  1.00  0.00     0.103 A 
HETATM    2  C3  UNL     1      22.231   1.489  50.469  1.00  0.00     0.072 A 
HETATM    3  C4  UNL     1      22.781   0.946  51.617  1.00  0.00     0.075 A 
HETATM    4  N1  UNL     1      22.158  -0.081  52.185  1.00  0.00    -0.241 NA
HETATM    5  C5  UNL     1      22.638  -0.653  53.301  1.00  0.00     0.236 A 
HETATM    6  N2  UNL     1      23.768  -0.151  53.818  1.00  0.00    -0.224 NA
HETATM    7  C6  UNL     1      24.434   0.883  53.281  1.00  0.00     0.142 A 
HETATM    8  C13 UNL     1      23.950   1.466  52.147  1.00  0.00     0.042 A 
HETATM    9  C14 UNL     1      24.624   2.523  51.590  1.00  0.00     0.057 A 
HETATM   10  C15 UNL     1      24.112   3.096  50.445  1.00  0.00     0.103 A 
ENDROOT
BRANCH   7  11
HETATM   11  N3  UNL     1      25.610   1.324  53.890  1.00  0.00    -0.340 N 
HETATM   12  H6  UNL     1      25.721   2.164  54.475  1.00  0.00     0.167 HD
BRANCH  11  13
HETATM   13  C7  UNL     1      26.902   0.678  53.805  1.00  0.00     0.035 A 
HETATM   14  C8  UNL     1      28.002   1.485  54.115  1.00  0.00     0.032 A 
HETATM   15  C9  UNL     1      29.238   0.886  54.023  1.00  0.00     0.046 A 
HETATM   16  C10 UNL     1      29.500  -0.421  53.655  1.00  0.00     0.138 A 
HETATM   17  F1  UNL     1      30.726  -0.967  53.581  1.00  0.00    -0.204 F 
HETATM   18  C11 UNL     1      28.362  -1.120  53.372  1.00  0.00     0.074 A 
HETATM   19 CL1  UNL     1      28.457  -2.803  52.886  1.00  0.00    -0.081 Cl
HETATM   20  C12 UNL     1      27.045  -0.647  53.425  1.00  0.00     0.056 A 
ENDBRANCH  11  13
ENDBRANCH   7  11
BRANCH  10  21
HETATM   21  O2  UNL     1      24.486   4.074  49.699  1.00  0.00    -0.347 OA
BRANCH  21  22
HETATM   22  C16 UNL     1      24.867   5.066  48.959  1.00  0.00     0.206 C 
BRANCH  22  23
HETATM   23  C17 UNL     1      24.241   6.410  49.321  1.00  0.00     0.299 C 
BRANCH  23  24
HETATM   24  N4  UNL     1      25.151   7.497  49.078  1.00  0.00     0.090 N 
HETATM   25  C18 UNL     1      24.964   8.043  47.744  1.00  0.00     0.272 C 
HETATM   26  C19 UNL     1      26.279   8.057  47.041  1.00  0.00     0.032 C 
HETATM   27  C20 UNL     1      27.214   7.259  47.894  1.00  0.00     0.032 C 
HETATM   28  C21 UNL     1      26.528   7.208  49.219  1.00  0.00     0.272 C 
ENDBRANCH  23  24
ENDBRANCH  22  23
ENDBRANCH  21  22
ENDBRANCH  10  21
BRANCH   1  29
HETATM   29  O1  UNL     1      22.391   3.136  48.742  1.00  0.00    -0.353 OA
HETATM   30  C1  UNL     1      22.290   2.408  47.550  1.00  0.00     0.210 C 
ENDBRANCH   1  29
TORSDOF 7
ENDMDL
MODEL 9
REMARK VINA RESULT:      -7.4      5.646      7.942
REMARK  7 active torsions:
REMARK  status: ('A' for Active; 'I' for Inactive)
REMARK    1  A    between atoms: O1_2  and  C2_3 
REMARK    2  A    between atoms: C6_9  and  N3_10 
REMARK    3  A    between atoms: N3_10  and  C7_11 
REMARK    4  A    between atoms: C15_21  and  O2_22 
REMARK    5  A    between atoms: O2_22  and  C16_23 
REMARK    6  A    between atoms: C16_23  and  C17_24 
REMARK    7  A    between atoms: C17_24  and  N4_25 
ROOT
HETATM    1  C2  UNL     1      25.970   6.777  49.479  1.00  0.00     0.103 A 
HETATM    2  C3  UNL     1      24.811   6.679  50.260  1.00  0.00     0.072 A 
HETATM    3  C4  UNL     1      24.500   5.426  50.760  1.00  0.00     0.075 A 
HETATM    4  N1  UNL     1      23.405   5.302  51.502  1.00  0.00    -0.241 NA
HETATM    5  C5  UNL     1      23.048   4.115  52.019  1.00  0.00     0.236 A 
HETATM    6  N2  UNL     1      23.834   3.063  51.756  1.00  0.00    -0.224 NA
HETATM    7  C6  UNL     1      24.948   3.137  51.011  1.00  0.00     0.142 A 
HETATM    8  C13 UNL     1      25.314   4.340  50.484  1.00  0.00     0.042 A 
HETATM    9  C14 UNL     1      26.451   4.426  49.721  1.00  0.00     0.057 A 
HETATM   10  C15 UNL     1      26.800   5.655  49.203  1.00  0.00     0.103 A 
ENDROOT
BRANCH   7  11
HETATM   11  N3  UNL     1      25.693   1.978  50.785  1.00  0.00    -0.340 N 
HETATM   12  H6  UNL     1      25.739   1.439  49.910  1.00  0.00     0.167 HD
BRANCH  11  13
HETATM   13  C7  UNL     1      26.541   1.314  51.752  1.00  0.00     0.035 A 
HETATM   14  C8  UNL     1      27.311   2.159  52.559  1.00  0.00     0.032 A 
HETATM   15  C9  UNL     1      28.132   1.538  53.473  1.00  0.00     0.046 A 
HETATM   16  C10 UNL     1      28.276   0.177  53.669  1.00  0.00     0.138 A 
HETATM   17  F1  UNL     1      29.091  -0.386  54.577  1.00  0.00    -0.204 F 
HETATM   18  C11 UNL     1      27.485  -0.555  52.831  1.00  0.00     0.074 A 
HETATM   19 CL1  UNL     1      27.502  -2.307  52.907  1.00  0.00    -0.081 Cl
HETATM   20  C12 UNL     1      26.602  -0.065  51.860  1.00  0.00     0.056 A 
ENDBRANCH  11  13
ENDBRANCH   7  11
BRANCH  10  21
HETATM   21  O2  UNL     1      27.776   6.066  48.473  1.00  0.00    -0.347 OA
BRANCH  21  22
HETATM   22  C16 UNL     1      28.750   6.487  47.731  1.00  0.00     0.206 C 
BRANCH  22  23
HETATM   23  C17 UNL     1      30.058   5.718  47.897  1.00  0.00     0.299 C 
BRANCH  23  24
HETATM   24  N4  UNL     1      30.862   6.272  48.953  1.00  0.00     0.090 N 
HETATM   25  C18 UNL     1      30.836   7.725  48.918  1.00  0.00     0.272 C 
HETATM   26  C19 UNL     1      32.239   8.231  48.896  1.00  0.00     0.032 C 
HETATM   27  C20 UNL     1      33.107   7.037  48.650  1.00  0.00     0.032 C 
HETATM   28  C21 UNL     1      32.221   5.882  48.981  1.00  0.00     0.272 C 
ENDBRANCH  23  24
ENDBRANCH  22  23
ENDBRANCH  21  22
ENDBRANCH  10  21
BRANCH   1  29
HETATM   29  O1  UNL     1      26.311   8.015  48.961  1.00  0.00    -0.353 OA
HETATM   30  C1  UNL     1      26.185   9.183  49.722  1.00  0.00     0.210 C 
ENDBRANCH   1  29
TORSDOF 7
ENDMDL
