MODEL 1
REMARK VINA RESULT:      -8.6      0.000      0.000
REMARK  2 active torsions:
REMARK  status: ('A' for Active; 'I' for Inactive)
REMARK    1  A    between atoms: C7_7  and  N1_8 
REMARK    2  A    between atoms: N1_8  and  C8_9 
ROOT
HETATM    1  C1  UNL     1      29.887  -0.898  53.666  1.00  0.00     0.018 C 
HETATM    2  C2  UNL     1      28.777  -0.508  53.420  1.00  0.00    -0.078 C 
HETATM    3  C3  UNL     1      27.426  -0.061  53.132  1.00  0.00     0.019 A 
HETATM    4  C4  UNL     1      26.357  -0.864  53.428  1.00  0.00     0.021 A 
HETATM    5  C5  UNL     1      25.039  -0.517  53.189  1.00  0.00     0.004 A 
HETATM    6  C6  UNL     1      24.767   0.707  52.619  1.00  0.00     0.029 A 
HETATM    7  C7  UNL     1      25.833   1.527  52.314  1.00  0.00     0.034 A 
HETATM    8  C20 UNL     1      27.148   1.151  52.566  1.00  0.00     0.050 A 
ENDROOT
BRANCH   7   9
HETATM    9  N1  UNL     1      25.685   2.812  51.734  1.00  0.00    -0.353 N 
HETATM   10  H5  UNL     1      25.891   3.374  52.576  1.00  0.00     0.166 HD
BRANCH   9  11
HETATM   11  C8  UNL     1      25.401   3.556  50.584  1.00  0.00     0.087 C 
HETATM   12  C9  UNL     1      26.312   4.305  49.883  1.00  0.00     0.148 C 
HETATM   13  N2  UNL     1      26.169   5.339  48.821  1.00  0.00    -0.270 NA
HETATM   14  C10 UNL     1      25.092   6.127  48.700  1.00  0.00     0.128 C 
HETATM   15  C11 UNL     1      23.647   5.745  48.680  1.00  0.00     0.019 C 
HETATM   16  C12 UNL     1      23.125   4.508  48.339  1.00  0.00     0.115 C 
HETATM   17  C19 UNL     1      22.585   6.693  49.080  1.00  0.00     0.210 C 
HETATM   18  O1  UNL     1      22.449   4.588  47.162  1.00  0.00    -0.345 OA
HETATM   19  C15 UNL     1      23.278   3.236  49.152  1.00  0.00     0.138 C 
HETATM   20  C13 UNL     1      21.849   3.425  46.636  1.00  0.00     0.202 C 
HETATM   21  C14 UNL     1      21.473   2.524  47.787  1.00  0.00     0.202 C 
HETATM   22  O2  UNL     1      22.657   2.194  48.553  1.00  0.00    -0.343 OA
HETATM   23  C16 UNL     1      23.978   3.468  50.240  1.00  0.00     0.133 C 
HETATM   24  O3  UNL     1      23.238   3.726  51.454  1.00  0.00    -0.344 OA
HETATM   25  C17 UNL     1      23.324   5.124  51.751  1.00  0.00     0.202 C 
HETATM   26  C18 UNL     1      22.249   6.005  51.343  1.00  0.00     0.194 C 
HETATM   27  O4  UNL     1      21.823   6.220  50.116  1.00  0.00    -0.384 OA
ENDBRANCH   9  11
ENDBRANCH   7   9
TORSDOF 2
ENDMDL
MODEL 2
REMARK VINA RESULT:      -8.4      0.908      2.075
REMARK  2 active torsions:
REMARK  status: ('A' for Active; 'I' for Inactive)
REMARK    1  A    between atoms: C7_7  and  N1_8 
REMARK    2  A    between atoms: N1_8  and  C8_9 
ROOT
HETATM    1  C1  UNL     1      22.456  -1.049  54.622  1.00  0.00     0.018 C 
HETATM    2  C2  UNL     1      23.387  -0.587  54.017  1.00  0.00    -0.078 C 
HETATM    3  C3  UNL     1      24.524  -0.052  53.292  1.00  0.00     0.019 A 
HETATM    4  C4  UNL     1      25.657  -0.807  53.134  1.00  0.00     0.021 A 
HETATM    5  C5  UNL     1      26.785  -0.376  52.458  1.00  0.00     0.004 A 
HETATM    6  C6  UNL     1      26.787   0.884  51.903  1.00  0.00     0.029 A 
HETATM    7  C7  UNL     1      25.654   1.656  52.053  1.00  0.00     0.034 A 
HETATM    8  C20 UNL     1      24.535   1.197  52.739  1.00  0.00     0.050 A 
ENDROOT
BRANCH   7   9
HETATM    9  N1  UNL     1      25.528   2.965  51.523  1.00  0.00    -0.353 N 
HETATM   10  H5  UNL     1      25.725   3.490  52.390  1.00  0.00     0.166 HD
BRANCH   9  11
HETATM   11  C8  UNL     1      25.269   3.758  50.400  1.00  0.00     0.087 C 
HETATM   12  C9  UNL     1      26.192   4.545  49.760  1.00  0.00     0.148 C 
HETATM   13  N2  UNL     1      26.070   5.625  48.742  1.00  0.00    -0.270 NA
HETATM   14  C10 UNL     1      24.988   6.408  48.625  1.00  0.00     0.128 C 
HETATM   15  C11 UNL     1      23.549   6.014  48.545  1.00  0.00     0.019 C 
HETATM   16  C12 UNL     1      23.050   4.789  48.134  1.00  0.00     0.115 C 
HETATM   17  C19 UNL     1      22.466   6.933  48.956  1.00  0.00     0.210 C 
HETATM   18  O1  UNL     1      22.408   4.916  46.942  1.00  0.00    -0.345 OA
HETATM   19  C15 UNL     1      23.193   3.483  48.893  1.00  0.00     0.138 C 
HETATM   20  C13 UNL     1      21.835   3.773  46.347  1.00  0.00     0.202 C 
HETATM   21  C14 UNL     1      21.436   2.817  47.445  1.00  0.00     0.202 C 
HETATM   22  O2  UNL     1      22.601   2.464  48.229  1.00  0.00    -0.343 OA
HETATM   23  C16 UNL     1      23.858   3.672  50.011  1.00  0.00     0.133 C 
HETATM   24  O3  UNL     1      23.081   3.868  51.212  1.00  0.00    -0.344 OA
HETATM   25  C17 UNL     1      23.143   5.252  51.574  1.00  0.00     0.202 C 
HETATM   26  C18 UNL     1      22.071   6.141  51.175  1.00  0.00     0.194 C 
HETATM   27  O4  UNL     1      21.679   6.407  49.947  1.00  0.00    -0.384 OA
ENDBRANCH   9  11
ENDBRANCH   7   9
TORSDOF 2
ENDMDL
MODEL 3
REMARK VINA RESULT:      -8.1      2.328      3.245
REMARK  2 active torsions:
REMARK  status: ('A' for Active; 'I' for Inactive)
REMARK    1  A    between atoms: C7_7  and  N1_8 
REMARK    2  A    between atoms: N1_8  and  C8_9 
ROOT
HETATM    1  C1  UNL     1      28.755  -2.880  53.183  1.00  0.00     0.018 C 
HETATM    2  C2  UNL     1      28.480  -1.711  53.129  1.00  0.00    -0.078 C 
HETATM    3  C3  UNL     1      28.167  -0.294  53.080  1.00  0.00     0.019 A 
HETATM    4  C4  UNL     1      28.937   0.605  53.771  1.00  0.00     0.021 A 
HETATM    5  C5  UNL     1      28.712   1.970  53.779  1.00  0.00     0.004 A 
HETATM    6  C6  UNL     1      27.655   2.473  53.054  1.00  0.00     0.029 A 
HETATM    7  C7  UNL     1      26.871   1.582  52.354  1.00  0.00     0.034 A 
HETATM    8  C20 UNL     1      27.120   0.213  52.364  1.00  0.00     0.050 A 
ENDROOT
BRANCH   7   9
HETATM    9  N1  UNL     1      25.760   1.974  51.564  1.00  0.00    -0.353 N 
HETATM   10  H5  UNL     1      25.932   1.352  50.757  1.00  0.00     0.166 HD
BRANCH   9  11
HETATM   11  C8  UNL     1      24.629   2.789  51.450  1.00  0.00     0.087 C 
HETATM   12  C9  UNL     1      24.567   4.109  51.816  1.00  0.00     0.148 C 
HETATM   13  N2  UNL     1      23.433   5.054  52.011  1.00  0.00    -0.270 NA
HETATM   14  C10 UNL     1      22.203   4.664  52.374  1.00  0.00     0.128 C 
HETATM   15  C11 UNL     1      21.351   3.583  51.792  1.00  0.00     0.019 C 
HETATM   16  C12 UNL     1      21.440   3.061  50.512  1.00  0.00     0.115 C 
HETATM   17  C19 UNL     1      20.301   2.908  52.585  1.00  0.00     0.210 C 
HETATM   18  O1  UNL     1      20.351   3.417  49.780  1.00  0.00    -0.345 OA
HETATM   19  C15 UNL     1      22.583   2.213  49.986  1.00  0.00     0.138 C 
HETATM   20  C13 UNL     1      20.257   2.990  48.439  1.00  0.00     0.202 C 
HETATM   21  C14 UNL     1      20.995   1.680  48.307  1.00  0.00     0.202 C 
HETATM   22  O2  UNL     1      22.378   1.860  48.697  1.00  0.00    -0.343 OA
HETATM   23  C16 UNL     1      23.489   2.033  50.923  1.00  0.00     0.133 C 
HETATM   24  O3  UNL     1      23.409   0.810  51.687  1.00  0.00    -0.344 OA
HETATM   25  C17 UNL     1      22.905   1.119  52.990  1.00  0.00     0.202 C 
HETATM   26  C18 UNL     1      21.492   0.951  53.265  1.00  0.00     0.194 C 
HETATM   27  O4  UNL     1      20.490   1.552  52.658  1.00  0.00    -0.384 OA
ENDBRANCH   9  11
ENDBRANCH   7   9
TORSDOF 2
ENDMDL
MODEL 4
REMARK VINA RESULT:      -8.1      3.081      5.830
REMARK  2 active torsions:
REMARK  status: ('A' for Active; 'I' for Inactive)
REMARK    1  A    between atoms: C7_7  and  N1_8 
REMARK    2  A    between atoms: N1_8  and  C8_9 
ROOT
HETATM    1  C1  UNL     1      29.878   5.508  47.933  1.00  0.00     0.018 C 
HETATM    2  C2  UNL     1      28.710   5.573  48.212  1.00  0.00    -0.078 C 
HETATM    3  C3  UNL     1      27.299   5.675  48.537  1.00  0.00     0.019 A 
HETATM    4  C4  UNL     1      26.596   6.803  48.206  1.00  0.00     0.021 A 
HETATM    5  C5  UNL     1      25.251   6.983  48.478  1.00  0.00     0.004 A 
HETATM    6  C6  UNL     1      24.562   5.978  49.118  1.00  0.00     0.029 A 
HETATM    7  C7  UNL     1      25.256   4.836  49.458  1.00  0.00     0.034 A 
HETATM    8  C20 UNL     1      26.608   4.683  49.174  1.00  0.00     0.050 A 
ENDROOT
BRANCH   7   9
HETATM    9  N1  UNL     1      24.659   3.728  50.113  1.00  0.00    -0.353 N 
HETATM   10  H5  UNL     1      25.256   3.722  50.956  1.00  0.00     0.166 HD
BRANCH   9  11
HETATM   11  C8  UNL     1      23.677   2.733  50.078  1.00  0.00     0.087 C 
HETATM   12  C9  UNL     1      23.118   2.215  48.938  1.00  0.00     0.148 C 
HETATM   13  N2  UNL     1      21.920   1.366  48.694  1.00  0.00    -0.270 NA
HETATM   14  C10 UNL     1      20.842   1.363  49.492  1.00  0.00     0.128 C 
HETATM   15  C11 UNL     1      20.777   1.227  50.978  1.00  0.00     0.019 C 
HETATM   16  C12 UNL     1      21.729   0.642  51.797  1.00  0.00     0.115 C 
HETATM   17  C19 UNL     1      19.644   1.768  51.760  1.00  0.00     0.210 C 
HETATM   18  O1  UNL     1      21.252  -0.519  52.321  1.00  0.00    -0.345 OA
HETATM   19  C15 UNL     1      23.111   1.202  52.077  1.00  0.00     0.138 C 
HETATM   20  C13 UNL     1      22.079  -1.274  53.178  1.00  0.00     0.202 C 
HETATM   21  C14 UNL     1      23.016  -0.327  53.888  1.00  0.00     0.202 C 
HETATM   22  O2  UNL     1      23.805   0.397  52.913  1.00  0.00    -0.343 OA
HETATM   23  C16 UNL     1      23.285   2.335  51.434  1.00  0.00     0.133 C 
HETATM   24  O3  UNL     1      23.037   3.553  52.171  1.00  0.00    -0.344 OA
HETATM   25  C17 UNL     1      21.798   4.113  51.721  1.00  0.00     0.202 C 
HETATM   26  C18 UNL     1      20.585   3.847  52.466  1.00  0.00     0.194 C 
HETATM   27  O4  UNL     1      20.045   2.671  52.710  1.00  0.00    -0.384 OA
ENDBRANCH   9  11
ENDBRANCH   7   9
TORSDOF 2
ENDMDL
MODEL 5
REMARK VINA RESULT:      -8.0      3.695      4.672
REMARK  2 active torsions:
REMARK  status: ('A' for Active; 'I' for Inactive)
REMARK    1  A    between atoms: C7_7  and  N1_8 
REMARK    2  A    between atoms: N1_8  and  C8_9 
ROOT
HETATM    1  C1  UNL     1      26.758  -0.265  52.699  1.00  0.00     0.018 C 
HETATM    2  C2  UNL     1      25.630  -0.296  53.115  1.00  0.00    -0.078 C 
HETATM    3  C3  UNL     1      24.277  -0.350  53.637  1.00  0.00     0.019 A 
HETATM    4  C4  UNL     1      23.991  -1.122  54.732  1.00  0.00     0.021 A 
HETATM    5  C5  UNL     1      22.731  -1.232  55.294  1.00  0.00     0.004 A 
HETATM    6  C6  UNL     1      21.689  -0.528  54.732  1.00  0.00     0.029 A 
HETATM    7  C7  UNL     1      21.960   0.253  53.629  1.00  0.00     0.034 A 
HETATM    8  C20 UNL     1      23.237   0.343  53.084  1.00  0.00     0.050 A 
ENDROOT
BRANCH   7   9
HETATM    9  N1  UNL     1      20.978   1.031  52.964  1.00  0.00    -0.353 N 
HETATM   10  H5  UNL     1      20.503   1.406  53.801  1.00  0.00     0.166 HD
BRANCH   9  11
HETATM   11  C8  UNL     1      20.444   1.455  51.743  1.00  0.00     0.087 C 
HETATM   12  C9  UNL     1      20.651   0.840  50.535  1.00  0.00     0.148 C 
HETATM   13  N2  UNL     1      20.396   1.259  49.129  1.00  0.00    -0.270 NA
HETATM   14  C10 UNL     1      20.392   2.539  48.730  1.00  0.00     0.128 C 
HETATM   15  C11 UNL     1      19.674   3.705  49.327  1.00  0.00     0.019 C 
HETATM   16  C12 UNL     1      18.539   3.659  50.119  1.00  0.00     0.115 C 
HETATM   17  C19 UNL     1      20.159   5.091  49.150  1.00  0.00     0.210 C 
HETATM   18  O1  UNL     1      17.475   4.177  49.450  1.00  0.00    -0.345 OA
HETATM   19  C15 UNL     1      18.474   3.109  51.532  1.00  0.00     0.138 C 
HETATM   20  C13 UNL     1      16.216   4.211  50.085  1.00  0.00     0.202 C 
HETATM   21  C14 UNL     1      16.439   4.327  51.574  1.00  0.00     0.202 C 
HETATM   22  O2  UNL     1      17.223   3.201  52.037  1.00  0.00    -0.343 OA
HETATM   23  C16 UNL     1      19.658   2.681  51.912  1.00  0.00     0.133 C 
HETATM   24  O3  UNL     1      20.467   3.592  52.689  1.00  0.00    -0.344 OA
HETATM   25  C17 UNL     1      21.515   4.096  51.854  1.00  0.00     0.202 C 
HETATM   26  C18 UNL     1      21.350   5.379  51.200  1.00  0.00     0.194 C 
HETATM   27  O4  UNL     1      20.409   5.716  50.343  1.00  0.00    -0.384 OA
ENDBRANCH   9  11
ENDBRANCH   7   9
TORSDOF 2
ENDMDL
MODEL 6
REMARK VINA RESULT:      -8.0      2.494      4.093
REMARK  2 active torsions:
REMARK  status: ('A' for Active; 'I' for Inactive)
REMARK    1  A    between atoms: C7_7  and  N1_8 
REMARK    2  A    between atoms: N1_8  and  C8_9 
ROOT
HETATM    1  C1  UNL     1      27.883  -0.512  53.464  1.00  0.00     0.018 C 
HETATM    2  C2  UNL     1      26.697  -0.516  53.660  1.00  0.00    -0.078 C 
HETATM    3  C3  UNL     1      25.269  -0.535  53.918  1.00  0.00     0.019 A 
HETATM    4  C4  UNL     1      24.776  -1.199  55.011  1.00  0.00     0.021 A 
HETATM    5  C5  UNL     1      23.432  -1.268  55.332  1.00  0.00     0.004 A 
HETATM    6  C6  UNL     1      22.520  -0.636  54.516  1.00  0.00     0.029 A 
HETATM    7  C7  UNL     1      23.000   0.036  53.412  1.00  0.00     0.034 A 
HETATM    8  C20 UNL     1      24.358   0.088  53.113  1.00  0.00     0.050 A 
ENDROOT
BRANCH   7   9
HETATM    9  N1  UNL     1      22.167   0.732  52.500  1.00  0.00    -0.353 N 
HETATM   10  H5  UNL     1      22.000  -0.044  51.838  1.00  0.00     0.166 HD
BRANCH   9  11
HETATM   11  C8  UNL     1      21.536   1.935  52.167  1.00  0.00     0.087 C 
HETATM   12  C9  UNL     1      20.276   2.302  52.567  1.00  0.00     0.148 C 
HETATM   13  N2  UNL     1      19.351   3.385  52.131  1.00  0.00    -0.270 NA
HETATM   14  C10 UNL     1      19.353   3.902  50.894  1.00  0.00     0.128 C 
HETATM   15  C11 UNL     1      20.507   4.409  50.091  1.00  0.00     0.019 C 
HETATM   16  C12 UNL     1      21.720   4.864  50.583  1.00  0.00     0.115 C 
HETATM   17  C19 UNL     1      20.474   4.438  48.613  1.00  0.00     0.210 C 
HETATM   18  O1  UNL     1      21.835   6.205  50.389  1.00  0.00    -0.345 OA
HETATM   19  C15 UNL     1      22.777   4.003  51.249  1.00  0.00     0.138 C 
HETATM   20  C13 UNL     1      23.001   6.864  50.833  1.00  0.00     0.202 C 
HETATM   21  C14 UNL     1      24.147   5.883  50.784  1.00  0.00     0.202 C 
HETATM   22  O2  UNL     1      23.845   4.742  51.623  1.00  0.00    -0.343 OA
HETATM   23  C16 UNL     1      22.386   2.748  51.292  1.00  0.00     0.133 C 
HETATM   24  O3  UNL     1      22.855   1.878  50.239  1.00  0.00    -0.344 OA
HETATM   25  C17 UNL     1      21.768   1.621  49.342  1.00  0.00     0.202 C 
HETATM   26  C18 UNL     1      21.642   2.410  48.133  1.00  0.00     0.194 C 
HETATM   27  O4  UNL     1      21.494   3.715  48.051  1.00  0.00    -0.384 OA
ENDBRANCH   9  11
ENDBRANCH   7   9
TORSDOF 2
ENDMDL
MODEL 7
REMARK VINA RESULT:      -8.0      1.623      3.069
REMARK  2 active torsions:
REMARK  status: ('A' for Active; 'I' for Inactive)
REMARK    1  A    between atoms: C7_7  and  N1_8 
REMARK    2  A    between atoms: N1_8  and  C8_9 
ROOT
HETATM    1  C1  UNL     1      29.556  -0.998  53.466  1.00  0.00     0.018 C 
HETATM    2  C2  UNL     1      28.438  -0.585  53.302  1.00  0.00    -0.078 C 
HETATM    3  C3  UNL     1      27.080  -0.109  53.113  1.00  0.00     0.019 A 
HETATM    4  C4  UNL     1      26.018  -0.909  53.446  1.00  0.00     0.021 A 
HETATM    5  C5  UNL     1      24.694  -0.535  53.300  1.00  0.00     0.004 A 
HETATM    6  C6  UNL     1      24.407   0.712  52.792  1.00  0.00     0.029 A 
HETATM    7  C7  UNL     1      25.465   1.529  52.453  1.00  0.00     0.034 A 
HETATM    8  C20 UNL     1      26.787   1.127  52.609  1.00  0.00     0.050 A 
ENDROOT
BRANCH   7   9
HETATM    9  N1  UNL     1      25.302   2.836  51.928  1.00  0.00    -0.353 N 
HETATM   10  H5  UNL     1      26.289   3.013  51.678  1.00  0.00     0.166 HD
BRANCH   9  11
HETATM   11  C8  UNL     1      24.423   3.885  51.639  1.00  0.00     0.087 C 
HETATM   12  C9  UNL     1      23.436   4.341  52.475  1.00  0.00     0.148 C 
HETATM   13  N2  UNL     1      22.269   5.241  52.266  1.00  0.00    -0.270 NA
HETATM   14  C10 UNL     1      21.644   5.377  51.088  1.00  0.00     0.128 C 
HETATM   15  C11 UNL     1      22.231   5.639  49.739  1.00  0.00     0.019 C 
HETATM   16  C12 UNL     1      23.456   6.229  49.473  1.00  0.00     0.115 C 
HETATM   17  C19 UNL     1      21.537   5.236  48.497  1.00  0.00     0.210 C 
HETATM   18  O1  UNL     1      23.277   7.456  48.915  1.00  0.00    -0.345 OA
HETATM   19  C15 UNL     1      24.810   5.608  49.757  1.00  0.00     0.138 C 
HETATM   20  C13 UNL     1      24.410   8.226  48.577  1.00  0.00     0.202 C 
HETATM   21  C14 UNL     1      25.542   7.284  48.247  1.00  0.00     0.202 C 
HETATM   22  O2  UNL     1      25.815   6.434  49.386  1.00  0.00    -0.343 OA
HETATM   23  C16 UNL     1      24.665   4.417  50.294  1.00  0.00     0.133 C 
HETATM   24  O3  UNL     1      24.735   3.282  49.403  1.00  0.00    -0.344 OA
HETATM   25  C17 UNL     1      23.412   2.766  49.218  1.00  0.00     0.202 C 
HETATM   26  C18 UNL     1      22.647   3.168  48.056  1.00  0.00     0.194 C 
HETATM   27  O4  UNL     1      22.291   4.391  47.725  1.00  0.00    -0.384 OA
ENDBRANCH   9  11
ENDBRANCH   7   9
TORSDOF 2
ENDMDL
MODEL 8
REMARK VINA RESULT:      -7.9      2.805      5.840
REMARK  2 active torsions:
REMARK  status: ('A' for Active; 'I' for Inactive)
REMARK    1  A    between atoms: C7_7  and  N1_8 
REMARK    2  A    between atoms: N1_8  and  C8_9 
ROOT
HETATM    1  C1  UNL     1      31.991   6.050  47.147  1.00  0.00     0.018 C 
HETATM    2  C2  UNL     1      30.824   6.283  47.316  1.00  0.00    -0.078 C 
HETATM    3  C3  UNL     1      29.417   6.585  47.504  1.00  0.00     0.019 A 
HETATM    4  C4  UNL     1      28.853   7.662  46.871  1.00  0.00     0.021 A 
HETATM    5  C5  UNL     1      27.522   8.021  46.994  1.00  0.00     0.004 A 
HETATM    6  C6  UNL     1      26.700   7.261  47.796  1.00  0.00     0.029 A 
HETATM    7  C7  UNL     1      27.252   6.174  48.440  1.00  0.00     0.034 A 
HETATM    8  C20 UNL     1      28.594   5.837  48.299  1.00  0.00     0.050 A 
ENDROOT
BRANCH   7   9
HETATM    9  N1  UNL     1      26.511   5.310  49.285  1.00  0.00    -0.353 N 
HETATM   10  H5  UNL     1      27.240   4.592  49.430  1.00  0.00     0.166 HD
BRANCH   9  11
HETATM   11  C8  UNL     1      25.302   5.064  49.943  1.00  0.00     0.087 C 
HETATM   12  C9  UNL     1      24.678   5.934  50.800  1.00  0.00     0.148 C 
HETATM   13  N2  UNL     1      23.559   5.773  51.769  1.00  0.00    -0.270 NA
HETATM   14  C10 UNL     1      23.274   4.615  52.381  1.00  0.00     0.128 C 
HETATM   15  C11 UNL     1      23.103   3.256  51.784  1.00  0.00     0.019 C 
HETATM   16  C12 UNL     1      22.763   2.967  50.473  1.00  0.00     0.115 C 
HETATM   17  C19 UNL     1      23.331   2.025  52.572  1.00  0.00     0.210 C 
HETATM   18  O1  UNL     1      21.512   2.436  50.415  1.00  0.00    -0.345 OA
HETATM   19  C15 UNL     1      23.648   3.203  49.263  1.00  0.00     0.138 C 
HETATM   20  C13 UNL     1      20.976   2.082  49.160  1.00  0.00     0.202 C 
HETATM   21  C14 UNL     1      22.116   1.704  48.246  1.00  0.00     0.202 C 
HETATM   22  O2  UNL     1      23.030   2.821  48.123  1.00  0.00    -0.343 OA
HETATM   23  C16 UNL     1      24.798   3.723  49.631  1.00  0.00     0.133 C 
HETATM   24  O3  UNL     1      25.903   2.809  49.810  1.00  0.00    -0.344 OA
HETATM   25  C17 UNL     1      26.142   2.652  51.212  1.00  0.00     0.202 C 
HETATM   26  C18 UNL     1      25.569   1.517  51.908  1.00  0.00     0.194 C 
HETATM   27  O4  UNL     1      24.291   1.218  52.020  1.00  0.00    -0.384 OA
ENDBRANCH   9  11
ENDBRANCH   7   9
TORSDOF 2
ENDMDL
MODEL 9
REMARK VINA RESULT:      -7.7      6.530      8.084
REMARK  2 active torsions:
REMARK  status: ('A' for Active; 'I' for Inactive)
REMARK    1  A    between atoms: C7_7  and  N1_8 
REMARK    2  A    between atoms: N1_8  and  C8_9 
ROOT
HETATM    1  C1  UNL     1      32.010   0.464  46.658  1.00  0.00     0.018 C 
HETATM    2  C2  UNL     1      32.473   1.528  46.972  1.00  0.00    -0.078 C 
HETATM    3  C3  UNL     1      33.056   2.801  47.353  1.00  0.00     0.019 A 
HETATM    4  C4  UNL     1      34.381   2.878  47.693  1.00  0.00     0.021 A 
HETATM    5  C5  UNL     1      35.017   4.049  48.068  1.00  0.00     0.004 A 
HETATM    6  C6  UNL     1      34.289   5.217  48.107  1.00  0.00     0.029 A 
HETATM    7  C7  UNL     1      32.954   5.156  47.768  1.00  0.00     0.034 A 
HETATM    8  C20 UNL     1      32.341   3.965  47.396  1.00  0.00     0.050 A 
ENDROOT
BRANCH   7   9
HETATM    9  N1  UNL     1      32.100   6.288  47.762  1.00  0.00    -0.353 N 
HETATM   10  H5  UNL     1      32.399   6.699  48.661  1.00  0.00     0.166 HD
BRANCH   9  11
HETATM   11  C8  UNL     1      31.107   7.007  47.087  1.00  0.00     0.087 C 
HETATM   12  C9  UNL     1      31.181   7.419  45.781  1.00  0.00     0.148 C 
HETATM   13  N2  UNL     1      30.378   8.380  44.976  1.00  0.00    -0.270 NA
HETATM   14  C10 UNL     1      29.740   9.434  45.506  1.00  0.00     0.128 C 
HETATM   15  C11 UNL     1      28.822   9.478  46.684  1.00  0.00     0.019 C 
HETATM   16  C12 UNL     1      28.089   8.422  47.201  1.00  0.00     0.115 C 
HETATM   17  C19 UNL     1      28.629  10.714  47.474  1.00  0.00     0.210 C 
HETATM   18  O1  UNL     1      26.761   8.616  46.981  1.00  0.00    -0.345 OA
HETATM   19  C15 UNL     1      28.670   7.214  47.911  1.00  0.00     0.138 C 
HETATM   20  C13 UNL     1      25.844   7.641  47.425  1.00  0.00     0.202 C 
HETATM   21  C14 UNL     1      26.427   6.960  48.639  1.00  0.00     0.202 C 
HETATM   22  O2  UNL     1      27.697   6.356  48.294  1.00  0.00    -0.343 OA
HETATM   23  C16 UNL     1      29.980   7.306  47.976  1.00  0.00     0.133 C 
HETATM   24  O3  UNL     1      30.540   7.842  49.195  1.00  0.00    -0.344 OA
HETATM   25  C17 UNL     1      31.000   9.173  48.939  1.00  0.00     0.202 C 
HETATM   26  C18 UNL     1      30.146  10.296  49.271  1.00  0.00     0.194 C 
HETATM   27  O4  UNL     1      28.944  10.545  48.797  1.00  0.00    -0.384 OA
ENDBRANCH   9  11
ENDBRANCH   7   9
TORSDOF 2
ENDMDL
