MODEL 1
REMARK VINA RESULT:      -7.7      0.000      0.000
REMARK  4 active torsions:
REMARK  status: ('A' for Active; 'I' for Inactive)
REMARK    1  A    between atoms: C2_2  and  C4_4 
REMARK    2  A    between atoms: C5_5  and  C6_6 
REMARK    3  A    between atoms: C6_6  and  C7_7 
REMARK    4  A    between atoms: N1_9  and  C9_10 
ROOT
HETATM    1  C7  UNL     1      23.290   5.211  51.237  1.00  0.00     0.079 C 
HETATM    2  C8  UNL     1      23.062   4.484  52.543  1.00  0.00     0.176 C 
HETATM    3  N1  UNL     1      23.895   3.393  52.078  1.00  0.00    -0.307 N 
HETATM    4  N2  UNL     1      23.893   3.967  50.835  1.00  0.00    -0.208 NA
HETATM    5  C17 UNL     1      23.185   3.358  49.786  1.00  0.00     0.154 C 
HETATM    6  C18 UNL     1      22.676   4.332  48.794  1.00  0.00    -0.036 C 
HETATM    7  C19 UNL     1      22.532   4.709  47.538  1.00  0.00     0.009 C 
HETATM    8  C20 UNL     1      21.873   5.917  47.074  1.00  0.00    -0.003 C 
HETATM    9  C21 UNL     1      21.378   6.726  47.984  1.00  0.00    -0.022 C 
HETATM   10  C22 UNL     1      21.270   6.809  49.462  1.00  0.00     0.068 C 
HETATM   11  P1  UNL     1      21.805   5.223  50.181  1.00  0.00    -0.055 P 
ENDROOT
BRANCH   3  12
HETATM   12  C9  UNL     1      24.537   2.173  52.544  1.00  0.00     0.046 C 
HETATM   13  C10 UNL     1      25.798   2.294  52.986  1.00  0.00     0.035 C 
HETATM   14  C11 UNL     1      26.908   1.453  53.548  1.00  0.00     0.142 C 
HETATM   15  C12 UNL     1      28.241   2.041  53.164  1.00  0.00     0.044 C 
HETATM   16  O1  UNL     1      26.699   1.276  54.879  1.00  0.00    -0.380 OA
HETATM   17  C13 UNL     1      26.346  -0.015  55.267  1.00  0.00     0.195 C 
HETATM   18  C14 UNL     1      25.031  -0.450  54.752  1.00  0.00     0.200 C 
HETATM   19  O2  UNL     1      24.866  -0.475  53.350  1.00  0.00    -0.361 OA
HETATM   20  C15 UNL     1      23.606  -0.227  52.788  1.00  0.00     0.137 C 
HETATM   21  C16 UNL     1      23.617   1.053  52.469  1.00  0.00     0.054 C 
ENDBRANCH   3  12
BRANCH   1  22
HETATM   22  C6  UNL     1      24.146   6.420  51.314  1.00  0.00     0.061 C 
BRANCH  22  23
HETATM   23  C5  UNL     1      25.259   6.325  50.329  1.00  0.00    -0.028 C 
HETATM   24  C4  UNL     1      25.517   6.618  49.060  1.00  0.00    -0.027 C 
BRANCH  24  25
HETATM   25  C2  UNL     1      26.774   6.410  48.278  1.00  0.00    -0.001 C 
HETATM   26  C1  UNL     1      27.357   5.082  48.712  1.00  0.00     0.013 C 
HETATM   27  C3  UNL     1      27.810   7.480  48.570  1.00  0.00     0.013 C 
ENDBRANCH  24  25
ENDBRANCH  22  23
ENDBRANCH   1  22
TORSDOF 4
ENDMDL
MODEL 2
REMARK VINA RESULT:      -7.6      3.014      7.286
REMARK  4 active torsions:
REMARK  status: ('A' for Active; 'I' for Inactive)
REMARK    1  A    between atoms: C2_2  and  C4_4 
REMARK    2  A    between atoms: C5_5  and  C6_6 
REMARK    3  A    between atoms: C6_6  and  C7_7 
REMARK    4  A    between atoms: N1_9  and  C9_10 
ROOT
HETATM    1  C7  UNL     1      24.552   1.637  52.676  1.00  0.00     0.079 C 
HETATM    2  C8  UNL     1      25.332   1.734  51.384  1.00  0.00     0.176 C 
HETATM    3  N1  UNL     1      24.449   2.793  50.935  1.00  0.00    -0.307 N 
HETATM    4  N2  UNL     1      23.638   2.524  52.005  1.00  0.00    -0.208 NA
HETATM    5  C17 UNL     1      22.385   1.923  51.797  1.00  0.00     0.154 C 
HETATM    6  C18 UNL     1      21.957   1.080  52.937  1.00  0.00    -0.036 C 
HETATM    7  C19 UNL     1      21.031   0.728  53.809  1.00  0.00     0.009 C 
HETATM    8  C20 UNL     1      21.167  -0.277  54.848  1.00  0.00    -0.003 C 
HETATM    9  C21 UNL     1      22.323  -0.895  54.946  1.00  0.00    -0.022 C 
HETATM   10  C22 UNL     1      23.649  -0.893  54.279  1.00  0.00     0.068 C 
HETATM   11  P1  UNL     1      23.546   0.121  52.769  1.00  0.00    -0.055 P 
ENDROOT
BRANCH   3  12
HETATM   12  C9  UNL     1      24.307   3.786  49.881  1.00  0.00     0.046 C 
HETATM   13  C10 UNL     1      23.273   3.623  49.043  1.00  0.00     0.035 C 
HETATM   14  C11 UNL     1      22.649   4.272  47.841  1.00  0.00     0.142 C 
HETATM   15  C12 UNL     1      21.977   3.228  46.987  1.00  0.00     0.044 C 
HETATM   16  O1  UNL     1      21.861   5.300  48.251  1.00  0.00    -0.380 OA
HETATM   17  C13 UNL     1      22.327   6.576  47.940  1.00  0.00     0.195 C 
HETATM   18  C14 UNL     1      23.581   6.935  48.634  1.00  0.00     0.200 C 
HETATM   19  O2  UNL     1      24.705   6.113  48.399  1.00  0.00    -0.361 OA
HETATM   20  C15 UNL     1      25.665   5.933  49.403  1.00  0.00     0.137 C 
HETATM   21  C16 UNL     1      25.333   4.805  50.001  1.00  0.00     0.054 C 
ENDBRANCH   3  12
BRANCH   1  22
HETATM   22  C6  UNL     1      25.253   2.129  53.889  1.00  0.00     0.061 C 
BRANCH  22  23
HETATM   23  C5  UNL     1      26.587   1.480  54.009  1.00  0.00    -0.028 C 
HETATM   24  C4  UNL     1      27.152   0.420  54.575  1.00  0.00    -0.027 C 
BRANCH  24  25
HETATM   25  C2  UNL     1      28.579  -0.023  54.540  1.00  0.00    -0.001 C 
HETATM   26  C1  UNL     1      29.418   1.193  54.208  1.00  0.00     0.013 C 
HETATM   27  C3  UNL     1      28.828  -1.058  53.457  1.00  0.00     0.013 C 
ENDBRANCH  24  25
ENDBRANCH  22  23
ENDBRANCH   1  22
TORSDOF 4
ENDMDL
MODEL 3
REMARK VINA RESULT:      -7.4      3.049      7.969
REMARK  4 active torsions:
REMARK  status: ('A' for Active; 'I' for Inactive)
REMARK    1  A    between atoms: C2_2  and  C4_4 
REMARK    2  A    between atoms: C5_5  and  C6_6 
REMARK    3  A    between atoms: C6_6  and  C7_7 
REMARK    4  A    between atoms: N1_9  and  C9_10 
ROOT
HETATM    1  C7  UNL     1      25.099   1.257  52.779  1.00  0.00     0.079 C 
HETATM    2  C8  UNL     1      24.082   2.371  52.669  1.00  0.00     0.176 C 
HETATM    3  N1  UNL     1      24.621   2.730  51.371  1.00  0.00    -0.307 N 
HETATM    4  N2  UNL     1      25.661   1.870  51.604  1.00  0.00    -0.208 NA
HETATM    5  C17 UNL     1      26.947   2.380  51.846  1.00  0.00     0.154 C 
HETATM    6  C18 UNL     1      27.754   1.509  52.731  1.00  0.00    -0.036 C 
HETATM    7  C19 UNL     1      28.883   0.876  52.984  1.00  0.00     0.009 C 
HETATM    8  C20 UNL     1      29.162   0.049  54.144  1.00  0.00    -0.003 C 
HETATM    9  C21 UNL     1      28.202  -0.099  55.030  1.00  0.00    -0.022 C 
HETATM   10  C22 UNL     1      26.802   0.345  55.240  1.00  0.00     0.068 C 
HETATM   11  P1  UNL     1      26.397   1.622  54.004  1.00  0.00    -0.055 P 
ENDROOT
BRANCH   3  12
HETATM   12  C9  UNL     1      24.347   3.575  50.219  1.00  0.00     0.046 C 
HETATM   13  C10 UNL     1      23.385   3.152  49.385  1.00  0.00     0.035 C 
HETATM   14  C11 UNL     1      22.702   3.562  48.112  1.00  0.00     0.142 C 
HETATM   15  C12 UNL     1      22.249   2.338  47.357  1.00  0.00     0.044 C 
HETATM   16  O1  UNL     1      21.735   4.472  48.401  1.00  0.00    -0.380 OA
HETATM   17  C13 UNL     1      21.984   5.773  47.970  1.00  0.00     0.195 C 
HETATM   18  C14 UNL     1      23.133   6.411  48.645  1.00  0.00     0.200 C 
HETATM   19  O2  UNL     1      24.389   5.779  48.514  1.00  0.00    -0.361 OA
HETATM   20  C15 UNL     1      25.331   5.870  49.548  1.00  0.00     0.137 C 
HETATM   21  C16 UNL     1      25.177   4.765  50.252  1.00  0.00     0.054 C 
ENDBRANCH   3  12
BRANCH   1  22
HETATM   22  C6  UNL     1      24.559  -0.121  52.669  1.00  0.00     0.061 C 
BRANCH  22  23
HETATM   23  C5  UNL     1      23.159  -0.166  53.176  1.00  0.00    -0.028 C 
HETATM   24  C4  UNL     1      22.018  -0.803  52.945  1.00  0.00    -0.027 C 
BRANCH  24  25
HETATM   25  C2  UNL     1      20.697  -0.654  53.629  1.00  0.00    -0.001 C 
HETATM   26  C1  UNL     1      19.725  -0.098  52.610  1.00  0.00     0.013 C 
HETATM   27  C3  UNL     1      20.760   0.331  54.782  1.00  0.00     0.013 C 
ENDBRANCH  24  25
ENDBRANCH  22  23
ENDBRANCH   1  22
TORSDOF 4
ENDMDL
MODEL 4
REMARK VINA RESULT:      -7.4      1.949      4.501
REMARK  4 active torsions:
REMARK  status: ('A' for Active; 'I' for Inactive)
REMARK    1  A    between atoms: C2_2  and  C4_4 
REMARK    2  A    between atoms: C5_5  and  C6_6 
REMARK    3  A    between atoms: C6_6  and  C7_7 
REMARK    4  A    between atoms: N1_9  and  C9_10 
ROOT
HETATM    1  C7  UNL     1      23.967   3.806  49.467  1.00  0.00     0.079 C 
HETATM    2  C8  UNL     1      25.374   3.256  49.526  1.00  0.00     0.176 C 
HETATM    3  N1  UNL     1      25.132   2.791  50.878  1.00  0.00    -0.307 N 
HETATM    4  N2  UNL     1      23.956   3.494  50.872  1.00  0.00    -0.208 NA
HETATM    5  C17 UNL     1      23.831   4.649  51.662  1.00  0.00     0.154 C 
HETATM    6  C18 UNL     1      22.902   5.645  51.079  1.00  0.00    -0.036 C 
HETATM    7  C19 UNL     1      21.881   6.469  51.219  1.00  0.00     0.009 C 
HETATM    8  C20 UNL     1      21.304   7.304  50.181  1.00  0.00    -0.003 C 
HETATM    9  C21 UNL     1      21.835   7.234  48.980  1.00  0.00    -0.022 C 
HETATM   10  C22 UNL     1      22.928   6.510  48.285  1.00  0.00     0.068 C 
HETATM   11  P1  UNL     1      23.930   5.627  49.524  1.00  0.00    -0.055 P 
ENDROOT
BRANCH   3  12
HETATM   12  C9  UNL     1      25.724   1.969  51.922  1.00  0.00     0.046 C 
HETATM   13  C10 UNL     1      25.013   0.902  52.315  1.00  0.00     0.035 C 
HETATM   14  C11 UNL     1      25.091  -0.240  53.287  1.00  0.00     0.142 C 
HETATM   15  C12 UNL     1      23.704  -0.638  53.721  1.00  0.00     0.044 C 
HETATM   16  O1  UNL     1      25.851  -1.230  52.748  1.00  0.00    -0.380 OA
HETATM   17  C13 UNL     1      27.091  -1.432  53.349  1.00  0.00     0.195 C 
HETATM   18  C14 UNL     1      28.020  -0.294  53.189  1.00  0.00     0.200 C 
HETATM   19  O2  UNL     1      27.606   0.952  53.709  1.00  0.00    -0.361 OA
HETATM   20  C15 UNL     1      28.022   2.141  53.094  1.00  0.00     0.137 C 
HETATM   21  C16 UNL     1      27.032   2.478  52.291  1.00  0.00     0.054 C 
ENDBRANCH   3  12
BRANCH   1  22
HETATM   22  C6  UNL     1      23.029   3.080  48.575  1.00  0.00     0.061 C 
BRANCH  22  23
HETATM   23  C5  UNL     1      22.034   2.322  49.382  1.00  0.00    -0.028 C 
HETATM   24  C4  UNL     1      21.828   1.095  49.847  1.00  0.00    -0.027 C 
BRANCH  24  25
HETATM   25  C2  UNL     1      20.696   0.574  50.672  1.00  0.00    -0.001 C 
HETATM   26  C1  UNL     1      19.417   1.113  50.069  1.00  0.00     0.013 C 
HETATM   27  C3  UNL     1      20.765   1.062  52.107  1.00  0.00     0.013 C 
ENDBRANCH  24  25
ENDBRANCH  22  23
ENDBRANCH   1  22
TORSDOF 4
ENDMDL
MODEL 5
REMARK VINA RESULT:      -7.3      3.449      7.195
REMARK  4 active torsions:
REMARK  status: ('A' for Active; 'I' for Inactive)
REMARK    1  A    between atoms: C2_2  and  C4_4 
REMARK    2  A    between atoms: C5_5  and  C6_6 
REMARK    3  A    between atoms: C6_6  and  C7_7 
REMARK    4  A    between atoms: N1_9  and  C9_10 
ROOT
HETATM    1  C7  UNL     1      23.665   2.127  52.225  1.00  0.00     0.079 C 
HETATM    2  C8  UNL     1      24.190   2.405  50.834  1.00  0.00     0.176 C 
HETATM    3  N1  UNL     1      23.042   3.250  50.573  1.00  0.00    -0.307 N 
HETATM    4  N2  UNL     1      22.488   2.800  51.742  1.00  0.00    -0.208 NA
HETATM    5  C17 UNL     1      21.376   1.942  51.701  1.00  0.00     0.154 C 
HETATM    6  C18 UNL     1      21.323   1.014  52.854  1.00  0.00    -0.036 C 
HETATM    7  C19 UNL     1      20.645   0.460  53.840  1.00  0.00     0.009 C 
HETATM    8  C20 UNL     1      21.157  -0.502  54.800  1.00  0.00    -0.003 C 
HETATM    9  C21 UNL     1      22.418  -0.855  54.692  1.00  0.00    -0.022 C 
HETATM   10  C22 UNL     1      23.589  -0.556  53.832  1.00  0.00     0.068 C 
HETATM   11  P1  UNL     1      23.034   0.427  52.402  1.00  0.00    -0.055 P 
ENDROOT
BRANCH   3  12
HETATM   12  C9  UNL     1      22.525   4.199  49.598  1.00  0.00     0.046 C 
HETATM   13  C10 UNL     1      22.403   5.470  50.009  1.00  0.00     0.035 C 
HETATM   14  C11 UNL     1      21.957   6.809  49.498  1.00  0.00     0.142 C 
HETATM   15  C12 UNL     1      21.407   7.634  50.633  1.00  0.00     0.044 C 
HETATM   16  O1  UNL     1      22.971   7.374  48.791  1.00  0.00    -0.380 OA
HETATM   17  C13 UNL     1      22.770   7.462  47.415  1.00  0.00     0.195 C 
HETATM   18  C14 UNL     1      22.701   6.149  46.741  1.00  0.00     0.200 C 
HETATM   19  O2  UNL     1      21.687   5.262  47.162  1.00  0.00    -0.361 OA
HETATM   20  C15 UNL     1      21.900   3.878  47.110  1.00  0.00     0.137 C 
HETATM   21  C16 UNL     1      22.289   3.543  48.326  1.00  0.00     0.054 C 
ENDBRANCH   3  12
BRANCH   1  22
HETATM   22  C6  UNL     1      24.428   2.747  53.337  1.00  0.00     0.061 C 
BRANCH  22  23
HETATM   23  C5  UNL     1      25.848   2.301  53.296  1.00  0.00    -0.028 C 
HETATM   24  C4  UNL     1      26.653   1.427  53.888  1.00  0.00    -0.027 C 
BRANCH  24  25
HETATM   25  C2  UNL     1      28.107   1.170  53.650  1.00  0.00    -0.001 C 
HETATM   26  C1  UNL     1      28.585   0.252  54.755  1.00  0.00     0.013 C 
HETATM   27  C3  UNL     1      28.931   2.442  53.726  1.00  0.00     0.013 C 
ENDBRANCH  24  25
ENDBRANCH  22  23
ENDBRANCH   1  22
TORSDOF 4
ENDMDL
MODEL 6
REMARK VINA RESULT:      -7.3      3.673      7.492
REMARK  4 active torsions:
REMARK  status: ('A' for Active; 'I' for Inactive)
REMARK    1  A    between atoms: C2_2  and  C4_4 
REMARK    2  A    between atoms: C5_5  and  C6_6 
REMARK    3  A    between atoms: C6_6  and  C7_7 
REMARK    4  A    between atoms: N1_9  and  C9_10 
ROOT
HETATM    1  C7  UNL     1      23.589   2.371  52.222  1.00  0.00     0.079 C 
HETATM    2  C8  UNL     1      23.921   2.830  50.820  1.00  0.00     0.176 C 
HETATM    3  N1  UNL     1      22.795   3.743  50.856  1.00  0.00    -0.307 N 
HETATM    4  N2  UNL     1      22.393   3.146  52.022  1.00  0.00    -0.208 NA
HETATM    5  C17 UNL     1      21.241   2.341  52.031  1.00  0.00     0.154 C 
HETATM    6  C18 UNL     1      21.306   1.257  53.039  1.00  0.00    -0.036 C 
HETATM    7  C19 UNL     1      20.749   0.589  54.030  1.00  0.00     0.009 C 
HETATM    8  C20 UNL     1      21.341  -0.519  54.758  1.00  0.00    -0.003 C 
HETATM    9  C21 UNL     1      22.553  -0.894  54.413  1.00  0.00    -0.022 C 
HETATM   10  C22 UNL     1      23.601  -0.513  53.434  1.00  0.00     0.068 C 
HETATM   11  P1  UNL     1      22.898   0.685  52.256  1.00  0.00    -0.055 P 
ENDROOT
BRANCH   3  12
HETATM   12  C9  UNL     1      22.195   4.840  50.113  1.00  0.00     0.046 C 
HETATM   13  C10 UNL     1      21.787   4.563  48.866  1.00  0.00     0.035 C 
HETATM   14  C11 UNL     1      21.143   5.235  47.687  1.00  0.00     0.142 C 
HETATM   15  C12 UNL     1      21.613   4.589  46.410  1.00  0.00     0.044 C 
HETATM   16  O1  UNL     1      19.797   5.266  47.876  1.00  0.00    -0.380 OA
HETATM   17  C13 UNL     1      19.252   6.525  48.119  1.00  0.00     0.195 C 
HETATM   18  C14 UNL     1      19.694   7.126  49.394  1.00  0.00     0.200 C 
HETATM   19  O2  UNL     1      21.080   7.335  49.562  1.00  0.00    -0.361 OA
HETATM   20  C15 UNL     1      21.651   7.261  50.839  1.00  0.00     0.137 C 
HETATM   21  C16 UNL     1      22.122   6.033  50.936  1.00  0.00     0.054 C 
ENDBRANCH   3  12
BRANCH   1  22
HETATM   22  C6  UNL     1      24.538   2.796  53.281  1.00  0.00     0.061 C 
BRANCH  22  23
HETATM   23  C5  UNL     1      25.801   2.014  53.183  1.00  0.00    -0.028 C 
HETATM   24  C4  UNL     1      26.714   1.460  53.972  1.00  0.00    -0.027 C 
BRANCH  24  25
HETATM   25  C2  UNL     1      27.944   0.694  53.602  1.00  0.00    -0.001 C 
HETATM   26  C1  UNL     1      27.496  -0.521  52.819  1.00  0.00     0.013 C 
HETATM   27  C3  UNL     1      28.694   0.197  54.825  1.00  0.00     0.013 C 
ENDBRANCH  24  25
ENDBRANCH  22  23
ENDBRANCH   1  22
TORSDOF 4
ENDMDL
MODEL 7
REMARK VINA RESULT:      -7.1      3.472      8.083
REMARK  4 active torsions:
REMARK  status: ('A' for Active; 'I' for Inactive)
REMARK    1  A    between atoms: C2_2  and  C4_4 
REMARK    2  A    between atoms: C5_5  and  C6_6 
REMARK    3  A    between atoms: C6_6  and  C7_7 
REMARK    4  A    between atoms: N1_9  and  C9_10 
ROOT
HETATM    1  C7  UNL     1      23.156   2.195  51.650  1.00  0.00     0.079 C 
HETATM    2  C8  UNL     1      22.414   3.466  51.993  1.00  0.00     0.176 C 
HETATM    3  N1  UNL     1      23.089   4.149  50.906  1.00  0.00    -0.307 N 
HETATM    4  N2  UNL     1      23.902   3.056  50.770  1.00  0.00    -0.208 NA
HETATM    5  C17 UNL     1      25.253   3.141  51.144  1.00  0.00     0.154 C 
HETATM    6  C18 UNL     1      25.801   1.848  51.616  1.00  0.00    -0.036 C 
HETATM    7  C19 UNL     1      26.749   0.932  51.580  1.00  0.00     0.009 C 
HETATM    8  C20 UNL     1      26.777  -0.305  52.340  1.00  0.00    -0.003 C 
HETATM    9  C21 UNL     1      25.761  -0.551  53.137  1.00  0.00    -0.022 C 
HETATM   10  C22 UNL     1      24.482   0.084  53.540  1.00  0.00     0.068 C 
HETATM   11  P1  UNL     1      24.434   1.782  52.881  1.00  0.00    -0.055 P 
ENDROOT
BRANCH   3  12
HETATM   12  C9  UNL     1      23.069   5.398  50.160  1.00  0.00     0.046 C 
HETATM   13  C10 UNL     1      22.506   5.358  48.944  1.00  0.00     0.035 C 
HETATM   14  C11 UNL     1      22.211   6.258  47.779  1.00  0.00     0.142 C 
HETATM   15  C12 UNL     1      22.224   5.462  46.500  1.00  0.00     0.044 C 
HETATM   16  O1  UNL     1      21.072   6.954  48.033  1.00  0.00    -0.380 OA
HETATM   17  C13 UNL     1      21.237   8.318  48.264  1.00  0.00     0.195 C 
HETATM   18  C14 UNL     1      21.992   8.623  49.497  1.00  0.00     0.200 C 
HETATM   19  O2  UNL     1      23.307   8.116  49.589  1.00  0.00    -0.361 OA
HETATM   20  C15 UNL     1      23.840   7.771  50.838  1.00  0.00     0.137 C 
HETATM   21  C16 UNL     1      23.645   6.471  50.949  1.00  0.00     0.054 C 
ENDBRANCH   3  12
BRANCH   1  22
HETATM   22  C6  UNL     1      22.336   1.112  51.052  1.00  0.00     0.061 C 
BRANCH  22  23
HETATM   23  C5  UNL     1      21.484   0.477  52.095  1.00  0.00    -0.028 C 
HETATM   24  C4  UNL     1      20.209   0.187  52.325  1.00  0.00    -0.027 C 
BRANCH  24  25
HETATM   25  C2  UNL     1      19.591  -0.485  53.509  1.00  0.00    -0.001 C 
HETATM   26  C1  UNL     1      20.611  -1.462  54.054  1.00  0.00     0.013 C 
HETATM   27  C3  UNL     1      18.354  -1.281  53.131  1.00  0.00     0.013 C 
ENDBRANCH  24  25
ENDBRANCH  22  23
ENDBRANCH   1  22
TORSDOF 4
ENDMDL
MODEL 8
REMARK VINA RESULT:      -7.1      3.253      7.776
REMARK  4 active torsions:
REMARK  status: ('A' for Active; 'I' for Inactive)
REMARK    1  A    between atoms: C2_2  and  C4_4 
REMARK    2  A    between atoms: C5_5  and  C6_6 
REMARK    3  A    between atoms: C6_6  and  C7_7 
REMARK    4  A    between atoms: N1_9  and  C9_10 
ROOT
HETATM    1  C7  UNL     1      24.082   2.402  51.616  1.00  0.00     0.079 C 
HETATM    2  C8  UNL     1      23.728   3.852  51.857  1.00  0.00     0.176 C 
HETATM    3  N1  UNL     1      24.667   4.249  50.825  1.00  0.00    -0.307 N 
HETATM    4  N2  UNL     1      25.124   2.958  50.793  1.00  0.00    -0.208 NA
HETATM    5  C17 UNL     1      26.401   2.658  51.295  1.00  0.00     0.154 C 
HETATM    6  C18 UNL     1      26.494   1.287  51.848  1.00  0.00    -0.036 C 
HETATM    7  C19 UNL     1      27.124   0.130  51.925  1.00  0.00     0.009 C 
HETATM    8  C20 UNL     1      26.714  -1.019  52.712  1.00  0.00    -0.003 C 
HETATM    9  C21 UNL     1      25.607  -0.912  53.411  1.00  0.00    -0.022 C 
HETATM   10  C22 UNL     1      24.547   0.092  53.674  1.00  0.00     0.068 C 
HETATM   11  P1  UNL     1      25.066   1.692  52.975  1.00  0.00    -0.055 P 
ENDROOT
BRANCH   3  12
HETATM   12  C9  UNL     1      25.086   5.408  50.052  1.00  0.00     0.046 C 
HETATM   13  C10 UNL     1      24.336   6.512  50.178  1.00  0.00     0.035 C 
HETATM   14  C11 UNL     1      24.266   7.923  49.667  1.00  0.00     0.142 C 
HETATM   15  C12 UNL     1      22.832   8.384  49.633  1.00  0.00     0.044 C 
HETATM   16  O1  UNL     1      25.121   8.697  50.386  1.00  0.00    -0.380 OA
HETATM   17  C13 UNL     1      26.245   9.150  49.699  1.00  0.00     0.195 C 
HETATM   18  C14 UNL     1      27.170   8.070  49.297  1.00  0.00     0.200 C 
HETATM   19  O2  UNL     1      26.655   7.064  48.450  1.00  0.00    -0.361 OA
HETATM   20  C15 UNL     1      27.150   5.756  48.534  1.00  0.00     0.137 C 
HETATM   21  C16 UNL     1      26.305   5.117  49.320  1.00  0.00     0.054 C 
ENDBRANCH   3  12
BRANCH   1  22
HETATM   22  C6  UNL     1      23.029   1.582  50.966  1.00  0.00     0.061 C 
BRANCH  22  23
HETATM   23  C5  UNL     1      22.045   1.112  51.980  1.00  0.00    -0.028 C 
HETATM   24  C4  UNL     1      21.270   0.065  52.231  1.00  0.00    -0.027 C 
BRANCH  24  25
HETATM   25  C2  UNL     1      20.332  -0.167  53.372  1.00  0.00    -0.001 C 
HETATM   26  C1  UNL     1      20.889  -1.316  54.184  1.00  0.00     0.013 C 
HETATM   27  C3  UNL     1      18.948  -0.572  52.899  1.00  0.00     0.013 C 
ENDBRANCH  24  25
ENDBRANCH  22  23
ENDBRANCH   1  22
TORSDOF 4
ENDMDL
MODEL 9
REMARK VINA RESULT:      -6.9      6.385     10.703
REMARK  4 active torsions:
REMARK  status: ('A' for Active; 'I' for Inactive)
REMARK    1  A    between atoms: C2_2  and  C4_4 
REMARK    2  A    between atoms: C5_5  and  C6_6 
REMARK    3  A    between atoms: C6_6  and  C7_7 
REMARK    4  A    between atoms: N1_9  and  C9_10 
ROOT
HETATM    1  C7  UNL     1      31.466   6.208  47.915  1.00  0.00     0.079 C 
HETATM    2  C8  UNL     1      31.190   7.247  48.978  1.00  0.00     0.176 C 
HETATM    3  N1  UNL     1      30.894   8.221  47.945  1.00  0.00    -0.307 N 
HETATM    4  N2  UNL     1      31.368   7.330  47.018  1.00  0.00    -0.208 NA
HETATM    5  C17 UNL     1      32.586   7.584  46.365  1.00  0.00     0.154 C 
HETATM    6  C18 UNL     1      33.304   6.346  45.986  1.00  0.00    -0.036 C 
HETATM    7  C19 UNL     1      33.944   5.633  45.080  1.00  0.00     0.009 C 
HETATM    8  C20 UNL     1      34.501   4.305  45.268  1.00  0.00    -0.003 C 
HETATM    9  C21 UNL     1      34.351   3.746  46.448  1.00  0.00    -0.022 C 
HETATM   10  C22 UNL     1      33.738   4.063  47.762  1.00  0.00     0.068 C 
HETATM   11  P1  UNL     1      33.240   5.815  47.772  1.00  0.00    -0.055 P 
ENDROOT
BRANCH   3  12
HETATM   12  C9  UNL     1      30.353   9.559  47.763  1.00  0.00     0.046 C 
HETATM   13  C10 UNL     1      29.084   9.636  47.338  1.00  0.00     0.035 C 
HETATM   14  C11 UNL     1      28.046  10.663  46.985  1.00  0.00     0.142 C 
HETATM   15  C12 UNL     1      27.122  10.115  45.929  1.00  0.00     0.044 C 
HETATM   16  O1  UNL     1      27.451  11.101  48.126  1.00  0.00    -0.380 OA
HETATM   17  C13 UNL     1      27.746  12.412  48.494  1.00  0.00     0.195 C 
HETATM   18  C14 UNL     1      29.162  12.621  48.859  1.00  0.00     0.200 C 
HETATM   19  O2  UNL     1      30.130  12.335  47.872  1.00  0.00    -0.361 OA
HETATM   20  C15 UNL     1      31.399  11.873  48.247  1.00  0.00     0.137 C 
HETATM   21  C16 UNL     1      31.332  10.559  48.144  1.00  0.00     0.054 C 
ENDBRANCH   3  12
BRANCH   1  22
HETATM   22  C6  UNL     1      30.462   5.121  47.801  1.00  0.00     0.061 C 
BRANCH  22  23
HETATM   23  C5  UNL     1      29.163   5.560  48.380  1.00  0.00    -0.028 C 
HETATM   24  C4  UNL     1      27.993   6.051  47.990  1.00  0.00    -0.027 C 
BRANCH  24  25
HETATM   25  C2  UNL     1      26.801   6.423  48.813  1.00  0.00    -0.001 C 
HETATM   26  C1  UNL     1      26.088   5.138  49.174  1.00  0.00     0.013 C 
HETATM   27  C3  UNL     1      25.821   7.286  48.039  1.00  0.00     0.013 C 
ENDBRANCH  24  25
ENDBRANCH  22  23
ENDBRANCH   1  22
TORSDOF 4
ENDMDL
