MODEL 1
REMARK VINA RESULT:      -8.8      0.000      0.000
REMARK  3 active torsions:
REMARK  status: ('A' for Active; 'I' for Inactive)
REMARK    1  A    between atoms: C3_3  and  C4_4 
REMARK    2  A    between atoms: N4_16  and  C13_17 
REMARK    3  A    between atoms: C16_20  and  O1_21 
ROOT
HETATM    1  C4  UNL     1      24.708   3.390  50.051  1.00  0.00     0.065 C 
HETATM    2  C5  UNL     1      24.007   2.544  49.079  1.00  0.00    -0.016 C 
HETATM    3  C6  UNL     1      23.030   2.296  48.162  1.00  0.00    -0.010 C 
HETATM    4  C7  UNL     1      22.045   3.387  47.871  1.00  0.00     0.149 C 
HETATM    5  N1  UNL     1      21.574   3.973  49.155  1.00  0.00    -0.352 N 
HETATM    6  C8  UNL     1      21.134   5.046  50.003  1.00  0.00     0.162 C 
HETATM    7  C9  UNL     1      21.972   5.114  51.272  1.00  0.00     0.013 A 
HETATM    8  C10 UNL     1      22.497   6.339  51.359  1.00  0.00     0.145 A 
HETATM    9  N2  UNL     1      23.484   6.104  52.304  1.00  0.00    -0.075 NA
HETATM   10  C11 UNL     1      23.433   4.777  52.671  1.00  0.00     0.725 A 
HETATM   11  N3  UNL     1      22.641   3.798  52.274  1.00  0.00    -0.061 NA
HETATM   12  C12 UNL     1      21.636   3.826  51.374  1.00  0.00     0.247 A 
HETATM   13  N4  UNL     1      21.280   2.476  51.439  1.00  0.00    -0.317 N 
HETATM   14  C18 UNL     1      21.446   3.294  50.321  1.00  0.00     0.297 A 
HETATM   15  O2  UNL     1      21.114   2.109  49.839  1.00  0.00    -0.175 OA
HETATM   16  N5  UNL     1      24.298   3.936  53.409  1.00  0.00    -0.188 N 
HETATM   17  C19 UNL     1      25.085   2.964  52.659  1.00  0.00     0.056 A 
HETATM   18  C20 UNL     1      25.798   2.126  53.491  1.00  0.00     0.030 A 
HETATM   19  C21 UNL     1      26.653   1.112  53.145  1.00  0.00     0.002 A 
HETATM   20  C22 UNL     1      26.815   0.910  51.760  1.00  0.00     0.001 A 
HETATM   21  C23 UNL     1      26.089   1.762  50.912  1.00  0.00     0.010 A 
HETATM   22  C24 UNL     1      25.217   2.795  51.277  1.00  0.00    -0.020 A 
HETATM   23  H23 UNL     1      24.333   4.049  54.429  1.00  0.00     0.184 HD
ENDROOT
BRANCH  13  24
HETATM   24  C13 UNL     1      21.113   1.611  52.523  1.00  0.00     0.089 C 
HETATM   25  C14 UNL     1      22.259   0.528  52.487  1.00  0.00     0.028 C 
HETATM   26  C15 UNL     1      21.748  -0.664  53.196  1.00  0.00     0.034 C 
HETATM   27  C16 UNL     1      20.318  -0.358  53.554  1.00  0.00     0.120 C 
HETATM   28  C17 UNL     1      19.916   0.753  52.601  1.00  0.00     0.057 C 
BRANCH  27  29
HETATM   29  O1  UNL     1      20.196  -0.051  54.878  1.00  0.00    -0.396 OA
HETATM   30  H20 UNL     1      20.994   0.444  55.213  1.00  0.00     0.210 HD
ENDBRANCH  27  29
ENDBRANCH  13  24
BRANCH   1  31
HETATM   31  C3  UNL     1      25.987   3.795  49.224  1.00  0.00    -0.018 C 
HETATM   32  C2  UNL     1      26.390   5.076  49.043  1.00  0.00    -0.034 C 
HETATM   33  C1  UNL     1      27.264   6.186  48.530  1.00  0.00     0.036 C 
ENDBRANCH   1  31
TORSDOF 3
ENDMDL
MODEL 2
REMARK VINA RESULT:      -8.5      5.849      9.102
REMARK  3 active torsions:
REMARK  status: ('A' for Active; 'I' for Inactive)
REMARK    1  A    between atoms: C3_3  and  C4_4 
REMARK    2  A    between atoms: N4_16  and  C13_17 
REMARK    3  A    between atoms: C16_20  and  O1_21 
ROOT
HETATM    1  C4  UNL     1      31.072   8.696  46.426  1.00  0.00     0.065 C 
HETATM    2  C5  UNL     1      30.123   8.402  45.347  1.00  0.00    -0.016 C 
HETATM    3  C6  UNL     1      29.073   8.705  44.531  1.00  0.00    -0.010 C 
HETATM    4  C7  UNL     1      28.408  10.036  44.707  1.00  0.00     0.149 C 
HETATM    5  N1  UNL     1      28.174  10.277  46.155  1.00  0.00    -0.352 N 
HETATM    6  C8  UNL     1      28.082  11.096  47.332  1.00  0.00     0.162 C 
HETATM    7  C9  UNL     1      28.965  10.549  48.445  1.00  0.00     0.013 A 
HETATM    8  C10 UNL     1      29.806  11.517  48.821  1.00  0.00     0.145 A 
HETATM    9  N2  UNL     1      30.736  10.760  49.519  1.00  0.00    -0.075 NA
HETATM   10  C11 UNL     1      30.344   9.439  49.480  1.00  0.00     0.725 A 
HETATM   11  N3  UNL     1      29.299   8.862  48.918  1.00  0.00    -0.061 NA
HETATM   12  C12 UNL     1      28.298   9.419  48.204  1.00  0.00     0.247 A 
HETATM   13  N4  UNL     1      27.593   8.248  47.913  1.00  0.00    -0.317 N 
HETATM   14  C18 UNL     1      27.922   9.314  47.075  1.00  0.00     0.297 A 
HETATM   15  O2  UNL     1      27.259   8.463  46.311  1.00  0.00    -0.175 OA
HETATM   16  N5  UNL     1      30.983   8.224  49.819  1.00  0.00    -0.188 N 
HETATM   17  C19 UNL     1      31.441   7.382  48.719  1.00  0.00     0.056 A 
HETATM   18  C20 UNL     1      31.938   6.176  49.167  1.00  0.00     0.030 A 
HETATM   19  C21 UNL     1      32.469   5.149  48.429  1.00  0.00     0.002 A 
HETATM   20  C22 UNL     1      32.505   5.368  47.038  1.00  0.00     0.001 A 
HETATM   21  C23 UNL     1      31.998   6.594  46.580  1.00  0.00     0.010 A 
HETATM   22  C24 UNL     1      31.457   7.637  47.344  1.00  0.00    -0.020 A 
HETATM   23  H23 UNL     1      31.094   7.993  50.813  1.00  0.00     0.184 HD
ENDROOT
BRANCH  13  24
HETATM   24  C13 UNL     1      27.249   7.150  48.704  1.00  0.00     0.089 C 
HETATM   25  C14 UNL     1      28.183   5.938  48.323  1.00  0.00     0.028 C 
HETATM   26  C15 UNL     1      27.450   4.702  48.671  1.00  0.00     0.034 C 
HETATM   27  C16 UNL     1      26.090   5.141  49.145  1.00  0.00     0.120 C 
HETATM   28  C17 UNL     1      25.916   6.534  48.567  1.00  0.00     0.057 C 
BRANCH  27  29
HETATM   29  O1  UNL     1      25.994   5.068  50.504  1.00  0.00    -0.396 OA
HETATM   30  H20 UNL     1      26.618   5.706  50.950  1.00  0.00     0.210 HD
ENDBRANCH  27  29
ENDBRANCH  13  24
BRANCH   1  31
HETATM   31  C3  UNL     1      32.372   9.020  45.597  1.00  0.00    -0.018 C 
HETATM   32  C2  UNL     1      32.642  10.240  45.071  1.00  0.00    -0.034 C 
HETATM   33  C1  UNL     1      33.432  11.267  44.307  1.00  0.00     0.036 C 
ENDBRANCH   1  31
TORSDOF 3
ENDMDL
MODEL 3
REMARK VINA RESULT:      -7.9      2.280      5.343
REMARK  3 active torsions:
REMARK  status: ('A' for Active; 'I' for Inactive)
REMARK    1  A    between atoms: C3_3  and  C4_4 
REMARK    2  A    between atoms: N4_16  and  C13_17 
REMARK    3  A    between atoms: C16_20  and  O1_21 
ROOT
HETATM    1  C4  UNL     1      20.381   4.370  50.226  1.00  0.00     0.065 C 
HETATM    2  C5  UNL     1      21.081   4.968  51.368  1.00  0.00    -0.016 C 
HETATM    3  C6  UNL     1      22.190   5.437  52.007  1.00  0.00    -0.010 C 
HETATM    4  C7  UNL     1      23.498   5.379  51.279  1.00  0.00     0.149 C 
HETATM    5  N1  UNL     1      23.648   4.039  50.652  1.00  0.00    -0.352 N 
HETATM    6  C8  UNL     1      24.071   3.134  49.620  1.00  0.00     0.162 C 
HETATM    7  C9  UNL     1      22.908   2.280  49.135  1.00  0.00     0.013 A 
HETATM    8  C10 UNL     1      22.789   2.450  47.815  1.00  0.00     0.145 A 
HETATM    9  N2  UNL     1      21.513   1.939  47.628  1.00  0.00    -0.075 NA
HETATM   10  C11 UNL     1      21.024   1.524  48.848  1.00  0.00     0.725 A 
HETATM   11  N3  UNL     1      21.563   1.551  50.053  1.00  0.00    -0.061 NA
HETATM   12  C12 UNL     1      22.776   2.004  50.434  1.00  0.00     0.247 A 
HETATM   13  N4  UNL     1      22.654   1.752  51.803  1.00  0.00    -0.317 N 
HETATM   14  C18 UNL     1      23.147   2.884  51.153  1.00  0.00     0.297 A 
HETATM   15  O2  UNL     1      23.245   3.153  52.443  1.00  0.00    -0.175 OA
HETATM   16  N5  UNL     1      19.742   1.133  49.301  1.00  0.00    -0.188 N 
HETATM   17  C19 UNL     1      19.008   2.083  50.129  1.00  0.00     0.056 A 
HETATM   18  C20 UNL     1      17.830   1.548  50.606  1.00  0.00     0.030 A 
HETATM   19  C21 UNL     1      16.882   2.148  51.393  1.00  0.00     0.002 A 
HETATM   20  C22 UNL     1      17.159   3.482  51.754  1.00  0.00     0.001 A 
HETATM   21  C23 UNL     1      18.358   4.028  51.270  1.00  0.00     0.010 A 
HETATM   22  C24 UNL     1      19.321   3.404  50.466  1.00  0.00    -0.020 A 
HETATM   23  H23 UNL     1      19.391   0.208  49.028  1.00  0.00     0.184 HD
ENDROOT
BRANCH  13  24
HETATM   24  C13 UNL     1      22.159   0.650  52.505  1.00  0.00     0.089 C 
HETATM   25  C14 UNL     1      20.889   1.100  53.325  1.00  0.00     0.028 C 
HETATM   26  C15 UNL     1      20.765   0.175  54.471  1.00  0.00     0.034 C 
HETATM   27  C16 UNL     1      21.966  -0.732  54.408  1.00  0.00     0.120 C 
HETATM   28  C17 UNL     1      22.974   0.026  53.564  1.00  0.00     0.057 C 
BRANCH  27  29
HETATM   29  O1  UNL     1      21.629  -1.965  53.929  1.00  0.00    -0.396 OA
HETATM   30  H20 UNL     1      22.078  -2.692  54.444  1.00  0.00     0.210 HD
ENDBRANCH  27  29
ENDBRANCH  13  24
BRANCH   1  31
HETATM   31  C3  UNL     1      19.660   5.636  49.624  1.00  0.00    -0.018 C 
HETATM   32  C2  UNL     1      20.166   6.892  49.692  1.00  0.00    -0.034 C 
HETATM   33  C1  UNL     1      20.198   8.378  49.469  1.00  0.00     0.036 C 
ENDBRANCH   1  31
TORSDOF 3
ENDMDL
MODEL 4
REMARK VINA RESULT:      -7.6      2.334      3.176
REMARK  3 active torsions:
REMARK  status: ('A' for Active; 'I' for Inactive)
REMARK    1  A    between atoms: C3_3  and  C4_4 
REMARK    2  A    between atoms: N4_16  and  C13_17 
REMARK    3  A    between atoms: C16_20  and  O1_21 
ROOT
HETATM    1  C4  UNL     1      23.468   3.936  49.341  1.00  0.00     0.065 C 
HETATM    2  C5  UNL     1      22.749   3.311  48.225  1.00  0.00    -0.016 C 
HETATM    3  C6  UNL     1      22.088   3.338  47.034  1.00  0.00    -0.010 C 
HETATM    4  C7  UNL     1      21.910   4.664  46.359  1.00  0.00     0.149 C 
HETATM    5  N1  UNL     1      21.451   5.663  47.361  1.00  0.00    -0.352 N 
HETATM    6  C8  UNL     1      21.386   6.975  47.944  1.00  0.00     0.162 C 
HETATM    7  C9  UNL     1      21.743   6.931  49.423  1.00  0.00     0.013 A 
HETATM    8  C10 UNL     1      22.760   7.772  49.630  1.00  0.00     0.145 A 
HETATM    9  N2  UNL     1      23.181   7.329  50.875  1.00  0.00    -0.075 NA
HETATM   10  C11 UNL     1      22.371   6.283  51.264  1.00  0.00     0.725 A 
HETATM   11  N3  UNL     1      21.347   5.709  50.660  1.00  0.00    -0.061 NA
HETATM   12  C12 UNL     1      20.796   5.992  49.461  1.00  0.00     0.247 A 
HETATM   13  N4  UNL     1      19.811   5.000  49.462  1.00  0.00    -0.317 N 
HETATM   14  C18 UNL     1      20.675   5.388  48.437  1.00  0.00     0.297 A 
HETATM   15  O2  UNL     1      19.949   4.408  47.927  1.00  0.00    -0.175 OA
HETATM   16  N5  UNL     1      22.448   5.326  52.302  1.00  0.00    -0.188 N 
HETATM   17  C19 UNL     1      22.820   3.966  51.930  1.00  0.00     0.056 A 
HETATM   18  C20 UNL     1      22.747   3.100  53.001  1.00  0.00     0.030 A 
HETATM   19  C21 UNL     1      23.038   1.761  53.032  1.00  0.00     0.002 A 
HETATM   20  C22 UNL     1      23.464   1.211  51.806  1.00  0.00     0.001 A 
HETATM   21  C23 UNL     1      23.538   2.091  50.715  1.00  0.00     0.010 A 
HETATM   22  C24 UNL     1      23.237   3.459  50.695  1.00  0.00    -0.020 A 
HETATM   23  H23 UNL     1      22.241   5.630  53.261  1.00  0.00     0.184 HD
ENDROOT
BRANCH  13  24
HETATM   24  C13 UNL     1      18.934   4.563  50.456  1.00  0.00     0.089 C 
HETATM   25  C14 UNL     1      19.323   3.090  50.864  1.00  0.00     0.028 C 
HETATM   26  C15 UNL     1      18.101   2.454  51.402  1.00  0.00     0.034 C 
HETATM   27  C16 UNL     1      16.995   3.461  51.231  1.00  0.00     0.120 C 
HETATM   28  C17 UNL     1      17.499   4.402  50.153  1.00  0.00     0.057 C 
BRANCH  27  29
HETATM   29  O1  UNL     1      16.686   4.061  52.417  1.00  0.00    -0.396 OA
HETATM   30  H20 UNL     1      16.321   3.405  53.074  1.00  0.00     0.210 HD
ENDBRANCH  27  29
ENDBRANCH  13  24
BRANCH   1  31
HETATM   31  C3  UNL     1      24.952   3.528  49.003  1.00  0.00    -0.018 C 
HETATM   32  C2  UNL     1      25.995   4.392  49.038  1.00  0.00    -0.034 C 
HETATM   33  C1  UNL     1      27.428   4.829  48.904  1.00  0.00     0.036 C 
ENDBRANCH   1  31
TORSDOF 3
ENDMDL
MODEL 5
REMARK VINA RESULT:      -7.3      2.808      6.554
REMARK  3 active torsions:
REMARK  status: ('A' for Active; 'I' for Inactive)
REMARK    1  A    between atoms: C3_3  and  C4_4 
REMARK    2  A    between atoms: N4_16  and  C13_17 
REMARK    3  A    between atoms: C16_20  and  O1_21 
ROOT
HETATM    1  C4  UNL     1      20.539   4.598  49.017  1.00  0.00     0.065 C 
HETATM    2  C5  UNL     1      21.106   3.928  47.842  1.00  0.00    -0.016 C 
HETATM    3  C6  UNL     1      21.693   2.876  47.205  1.00  0.00    -0.010 C 
HETATM    4  C7  UNL     1      21.996   1.648  48.008  1.00  0.00     0.149 C 
HETATM    5  N1  UNL     1      22.635   2.048  49.289  1.00  0.00    -0.352 N 
HETATM    6  C8  UNL     1      22.899   1.929  50.697  1.00  0.00     0.162 C 
HETATM    7  C9  UNL     1      22.628   3.243  51.415  1.00  0.00     0.013 A 
HETATM    8  C10 UNL     1      21.738   3.012  52.384  1.00  0.00     0.145 A 
HETATM    9  N2  UNL     1      21.341   4.313  52.653  1.00  0.00    -0.075 NA
HETATM   10  C11 UNL     1      22.034   5.164  51.819  1.00  0.00     0.725 A 
HETATM   11  N3  UNL     1      22.940   4.919  50.890  1.00  0.00    -0.061 NA
HETATM   12  C12 UNL     1      23.451   3.737  50.487  1.00  0.00     0.247 A 
HETATM   13  N4  UNL     1      24.301   4.223  49.490  1.00  0.00    -0.317 N 
HETATM   14  C18 UNL     1      23.433   3.131  49.457  1.00  0.00     0.297 A 
HETATM   15  O2  UNL     1      23.999   3.162  48.263  1.00  0.00    -0.175 OA
HETATM   16  N5  UNL     1      21.900   6.534  51.495  1.00  0.00    -0.188 N 
HETATM   17  C19 UNL     1      21.339   6.859  50.189  1.00  0.00     0.056 A 
HETATM   18  C20 UNL     1      21.366   8.215  49.939  1.00  0.00     0.030 A 
HETATM   19  C21 UNL     1      20.911   8.884  48.833  1.00  0.00     0.002 A 
HETATM   20  C22 UNL     1      20.348   8.071  47.830  1.00  0.00     0.001 A 
HETATM   21  C23 UNL     1      20.320   6.690  48.082  1.00  0.00     0.010 A 
HETATM   22  C24 UNL     1      20.788   6.017  49.217  1.00  0.00    -0.020 A 
HETATM   23  H23 UNL     1      22.200   7.230  52.188  1.00  0.00     0.184 HD
ENDROOT
BRANCH  13  24
HETATM   24  C13 UNL     1      25.174   5.312  49.465  1.00  0.00     0.089 C 
HETATM   25  C14 UNL     1      24.632   6.373  48.431  1.00  0.00     0.028 C 
HETATM   26  C15 UNL     1      25.795   7.160  47.969  1.00  0.00     0.034 C 
HETATM   27  C16 UNL     1      27.004   6.536  48.613  1.00  0.00     0.120 C 
HETATM   28  C17 UNL     1      26.558   5.134  48.986  1.00  0.00     0.057 C 
BRANCH  27  29
HETATM   29  O1  UNL     1      27.453   7.292  49.656  1.00  0.00    -0.396 OA
HETATM   30  H20 UNL     1      27.062   6.989  50.522  1.00  0.00     0.210 HD
ENDBRANCH  27  29
ENDBRANCH  13  24
BRANCH   1  31
HETATM   31  C3  UNL     1      18.998   4.487  48.707  1.00  0.00    -0.018 C 
HETATM   32  C2  UNL     1      18.052   4.303  49.660  1.00  0.00    -0.034 C 
HETATM   33  C1  UNL     1      16.663   4.116  50.204  1.00  0.00     0.036 C 
ENDBRANCH   1  31
TORSDOF 3
ENDMDL
MODEL 6
REMARK VINA RESULT:      -7.0      7.071     10.079
REMARK  3 active torsions:
REMARK  status: ('A' for Active; 'I' for Inactive)
REMARK    1  A    between atoms: C3_3  and  C4_4 
REMARK    2  A    between atoms: N4_16  and  C13_17 
REMARK    3  A    between atoms: C16_20  and  O1_21 
ROOT
HETATM    1  C4  UNL     1      28.829   7.920  47.364  1.00  0.00     0.065 C 
HETATM    2  C5  UNL     1      28.388   8.035  45.969  1.00  0.00    -0.016 C 
HETATM    3  C6  UNL     1      28.503   8.488  44.689  1.00  0.00    -0.010 C 
HETATM    4  C7  UNL     1      29.669   9.368  44.357  1.00  0.00     0.149 C 
HETATM    5  N1  UNL     1      29.811  10.407  45.411  1.00  0.00    -0.352 N 
HETATM    6  C8  UNL     1      30.556  11.287  46.269  1.00  0.00     0.162 C 
HETATM    7  C9  UNL     1      30.160  11.090  47.725  1.00  0.00     0.013 A 
HETATM    8  C10 UNL     1      31.262  10.794  48.420  1.00  0.00     0.145 A 
HETATM    9  N2  UNL     1      30.683  10.290  49.575  1.00  0.00    -0.075 NA
HETATM   10  C11 UNL     1      29.312  10.344  49.438  1.00  0.00     0.725 A 
HETATM   11  N3  UNL     1      28.558  10.773  48.443  1.00  0.00    -0.061 NA
HETATM   12  C12 UNL     1      28.928  11.290  47.253  1.00  0.00     0.247 A 
HETATM   13  N4  UNL     1      27.651  11.485  46.720  1.00  0.00    -0.317 N 
HETATM   14  C18 UNL     1      28.787  10.947  46.116  1.00  0.00     0.297 A 
HETATM   15  O2  UNL     1      27.847  10.905  45.189  1.00  0.00    -0.175 OA
HETATM   16  N5  UNL     1      28.237   9.792  50.172  1.00  0.00    -0.188 N 
HETATM   17  C19 UNL     1      27.540   8.655  49.582  1.00  0.00     0.056 A 
HETATM   18  C20 UNL     1      26.442   8.281  50.329  1.00  0.00     0.030 A 
HETATM   19  C21 UNL     1      25.567   7.252  50.094  1.00  0.00     0.002 A 
HETATM   20  C22 UNL     1      25.833   6.489  48.940  1.00  0.00     0.001 A 
HETATM   21  C23 UNL     1      26.949   6.870  48.178  1.00  0.00     0.010 A 
HETATM   22  C24 UNL     1      27.837   7.924  48.427  1.00  0.00    -0.020 A 
HETATM   23  H23 UNL     1      28.001  10.212  51.079  1.00  0.00     0.184 HD
ENDROOT
BRANCH  13  24
HETATM   24  C13 UNL     1      26.481  12.004  47.280  1.00  0.00     0.089 C 
HETATM   25  C14 UNL     1      25.425  10.840  47.415  1.00  0.00     0.028 C 
HETATM   26  C15 UNL     1      24.087  11.468  47.404  1.00  0.00     0.034 C 
HETATM   27  C16 UNL     1      24.316  12.937  47.167  1.00  0.00     0.120 C 
HETATM   28  C17 UNL     1      25.697  13.012  46.543  1.00  0.00     0.057 C 
BRANCH  27  29
HETATM   29  O1  UNL     1      24.167  13.652  48.321  1.00  0.00    -0.396 OA
HETATM   30  H20 UNL     1      24.853  13.397  48.999  1.00  0.00     0.210 HD
ENDBRANCH  27  29
ENDBRANCH  13  24
BRANCH   1  31
HETATM   31  C3  UNL     1      29.432   6.464  47.364  1.00  0.00    -0.018 C 
HETATM   32  C2  UNL     1      30.632   6.149  47.910  1.00  0.00    -0.034 C 
HETATM   33  C1  UNL     1      31.776   5.254  48.299  1.00  0.00     0.036 C 
ENDBRANCH   1  31
TORSDOF 3
ENDMDL
MODEL 7
REMARK VINA RESULT:      -6.9      2.193      4.254
REMARK  3 active torsions:
REMARK  status: ('A' for Active; 'I' for Inactive)
REMARK    1  A    between atoms: C3_3  and  C4_4 
REMARK    2  A    between atoms: N4_16  and  C13_17 
REMARK    3  A    between atoms: C16_20  and  O1_21 
ROOT
HETATM    1  C4  UNL     1      22.552   4.709  48.595  1.00  0.00     0.065 C 
HETATM    2  C5  UNL     1      22.931   3.412  48.023  1.00  0.00    -0.016 C 
HETATM    3  C6  UNL     1      22.730   2.089  47.767  1.00  0.00    -0.010 C 
HETATM    4  C7  UNL     1      21.478   1.453  48.290  1.00  0.00     0.149 C 
HETATM    5  N1  UNL     1      21.280   1.860  49.706  1.00  0.00    -0.352 N 
HETATM    6  C8  UNL     1      20.490   2.223  50.850  1.00  0.00     0.162 C 
HETATM    7  C9  UNL     1      20.954   3.550  51.433  1.00  0.00     0.013 A 
HETATM    8  C10 UNL     1      19.908   4.381  51.458  1.00  0.00     0.145 A 
HETATM    9  N2  UNL     1      20.571   5.587  51.637  1.00  0.00    -0.075 NA
HETATM   10  C11 UNL     1      21.926   5.337  51.697  1.00  0.00     0.725 A 
HETATM   11  N3  UNL     1      22.603   4.206  51.616  1.00  0.00    -0.061 NA
HETATM   12  C12 UNL     1      22.145   2.949  51.444  1.00  0.00     0.247 A 
HETATM   13  N4  UNL     1      23.380   2.294  51.423  1.00  0.00    -0.317 N 
HETATM   14  C18 UNL     1      22.276   2.125  50.587  1.00  0.00     0.297 A 
HETATM   15  O2  UNL     1      23.183   1.273  50.143  1.00  0.00    -0.175 OA
HETATM   16  N5  UNL     1      23.071   6.165  51.653  1.00  0.00    -0.188 N 
HETATM   17  C19 UNL     1      23.847   6.165  50.418  1.00  0.00     0.056 A 
HETATM   18  C20 UNL     1      25.000   6.914  50.535  1.00  0.00     0.030 A 
HETATM   19  C21 UNL     1      25.956   7.155  49.582  1.00  0.00     0.002 A 
HETATM   20  C22 UNL     1      25.718   6.555  48.329  1.00  0.00     0.001 A 
HETATM   21  C23 UNL     1      24.546   5.792  48.210  1.00  0.00     0.010 A 
HETATM   22  C24 UNL     1      23.576   5.552  49.191  1.00  0.00    -0.020 A 
HETATM   23  H23 UNL     1      23.301   6.722  52.484  1.00  0.00     0.184 HD
ENDROOT
BRANCH  13  24
HETATM   24  C13 UNL     1      24.518   2.433  52.221  1.00  0.00     0.089 C 
HETATM   25  C14 UNL     1      25.759   2.712  51.290  1.00  0.00     0.028 C 
HETATM   26  C15 UNL     1      26.959   2.252  52.021  1.00  0.00     0.034 C 
HETATM   27  C16 UNL     1      26.458   1.626  53.295  1.00  0.00     0.120 C 
HETATM   28  C17 UNL     1      25.007   1.286  53.009  1.00  0.00     0.057 C 
BRANCH  27  29
HETATM   29  O1  UNL     1      26.654   2.454  54.362  1.00  0.00    -0.396 OA
HETATM   30  H20 UNL     1      25.864   2.459  54.970  1.00  0.00     0.210 HD
ENDBRANCH  27  29
ENDBRANCH  13  24
BRANCH   1  31
HETATM   31  C3  UNL     1      22.083   5.478  47.302  1.00  0.00    -0.018 C 
HETATM   32  C2  UNL     1      20.999   6.292  47.263  1.00  0.00    -0.034 C 
HETATM   33  C1  UNL     1      20.001   7.228  46.641  1.00  0.00     0.036 C 
ENDBRANCH   1  31
TORSDOF 3
ENDMDL
MODEL 8
REMARK VINA RESULT:      -6.9      9.467     13.018
REMARK  3 active torsions:
REMARK  status: ('A' for Active; 'I' for Inactive)
REMARK    1  A    between atoms: C3_3  and  C4_4 
REMARK    2  A    between atoms: N4_16  and  C13_17 
REMARK    3  A    between atoms: C16_20  and  O1_21 
ROOT
HETATM    1  C4  UNL     1      31.642   8.689  47.440  1.00  0.00     0.065 C 
HETATM    2  C5  UNL     1      30.786   7.499  47.398  1.00  0.00    -0.016 C 
HETATM    3  C6  UNL     1      30.459   6.221  47.742  1.00  0.00    -0.010 C 
HETATM    4  C7  UNL     1      31.381   5.483  48.664  1.00  0.00     0.149 C 
HETATM    5  N1  UNL     1      32.783   5.677  48.209  1.00  0.00    -0.352 N 
HETATM    6  C8  UNL     1      34.196   5.851  48.407  1.00  0.00     0.162 C 
HETATM    7  C9  UNL     1      34.698   7.093  47.685  1.00  0.00     0.013 A 
HETATM    8  C10 UNL     1      35.294   7.883  48.582  1.00  0.00     0.145 A 
HETATM    9  N2  UNL     1      35.333   9.068  47.862  1.00  0.00    -0.075 NA
HETATM   10  C11 UNL     1      34.760   8.849  46.627  1.00  0.00     0.725 A 
HETATM   11  N3  UNL     1      34.233   7.760  46.097  1.00  0.00    -0.061 NA
HETATM   12  C12 UNL     1      34.103   6.528  46.632  1.00  0.00     0.247 A 
HETATM   13  N4  UNL     1      33.453   5.918  45.556  1.00  0.00    -0.317 N 
HETATM   14  C18 UNL     1      33.169   5.840  46.920  1.00  0.00     0.297 A 
HETATM   15  O2  UNL     1      32.258   5.085  46.331  1.00  0.00    -0.175 OA
HETATM   16  N5  UNL     1      34.337   9.705  45.584  1.00  0.00    -0.188 N 
HETATM   17  C19 UNL     1      32.901   9.904  45.424  1.00  0.00     0.056 A 
HETATM   18  C20 UNL     1      32.607  10.659  44.309  1.00  0.00     0.030 A 
HETATM   19  C21 UNL     1      31.377  11.060  43.855  1.00  0.00     0.002 A 
HETATM   20  C22 UNL     1      30.283  10.639  44.637  1.00  0.00     0.001 A 
HETATM   21  C23 UNL     1      30.581   9.870  45.773  1.00  0.00     0.010 A 
HETATM   22  C24 UNL     1      31.843   9.465  46.227  1.00  0.00    -0.020 A 
HETATM   23  H23 UNL     1      35.054  10.144  44.994  1.00  0.00     0.184 HD
ENDROOT
BRANCH  13  24
HETATM   24  C13 UNL     1      33.685   5.971  44.180  1.00  0.00     0.089 C 
HETATM   25  C14 UNL     1      32.475   6.711  43.490  1.00  0.00     0.028 C 
HETATM   26  C15 UNL     1      32.418   6.234  42.093  1.00  0.00     0.034 C 
HETATM   27  C16 UNL     1      33.479   5.173  41.968  1.00  0.00     0.120 C 
HETATM   28  C17 UNL     1      33.739   4.724  43.394  1.00  0.00     0.057 C 
BRANCH  27  29
HETATM   29  O1  UNL     1      34.575   5.647  41.307  1.00  0.00    -0.396 OA
HETATM   30  H20 UNL     1      35.308   4.971  41.286  1.00  0.00     0.210 HD
ENDBRANCH  27  29
ENDBRANCH  13  24
BRANCH   1  31
HETATM   31  C3  UNL     1      30.806   9.622  48.396  1.00  0.00    -0.018 C 
HETATM   32  C2  UNL     1      29.596   9.285  48.905  1.00  0.00    -0.034 C 
HETATM   33  C1  UNL     1      28.338   9.472  49.707  1.00  0.00     0.036 C 
ENDBRANCH   1  31
TORSDOF 3
ENDMDL
MODEL 9
REMARK VINA RESULT:      -6.9      3.394      6.785
REMARK  3 active torsions:
REMARK  status: ('A' for Active; 'I' for Inactive)
REMARK    1  A    between atoms: C3_3  and  C4_4 
REMARK    2  A    between atoms: N4_16  and  C13_17 
REMARK    3  A    between atoms: C16_20  and  O1_21 
ROOT
HETATM    1  C4  UNL     1      24.042   5.555  49.065  1.00  0.00     0.065 C 
HETATM    2  C5  UNL     1      24.076   6.113  50.422  1.00  0.00    -0.016 C 
HETATM    3  C6  UNL     1      23.702   6.154  51.731  1.00  0.00    -0.010 C 
HETATM    4  C7  UNL     1      22.712   5.137  52.212  1.00  0.00     0.149 C 
HETATM    5  N1  UNL     1      21.594   5.046  51.237  1.00  0.00    -0.352 N 
HETATM    6  C8  UNL     1      20.574   4.354  50.497  1.00  0.00     0.162 C 
HETATM    7  C9  UNL     1      20.717   4.610  49.004  1.00  0.00     0.013 A 
HETATM    8  C10 UNL     1      20.830   3.429  48.389  1.00  0.00     0.145 A 
HETATM    9  N2  UNL     1      21.319   3.850  47.161  1.00  0.00    -0.075 NA
HETATM   10  C11 UNL     1      21.440   5.223  47.185  1.00  0.00     0.725 A 
HETATM   11  N3  UNL     1      21.175   6.100  48.136  1.00  0.00    -0.061 NA
HETATM   12  C12 UNL     1      20.700   5.890  49.382  1.00  0.00     0.247 A 
HETATM   13  N4  UNL     1      20.697   7.218  49.815  1.00  0.00    -0.317 N 
HETATM   14  C18 UNL     1      21.134   6.073  50.480  1.00  0.00     0.297 A 
HETATM   15  O2  UNL     1      21.354   7.069  51.321  1.00  0.00    -0.175 OA
HETATM   16  N5  UNL     1      22.066   6.161  46.332  1.00  0.00    -0.188 N 
HETATM   17  C19 UNL     1      23.317   6.753  46.793  1.00  0.00     0.056 A 
HETATM   18  C20 UNL     1      23.769   7.734  45.936  1.00  0.00     0.030 A 
HETATM   19  C21 UNL     1      24.909   8.489  46.035  1.00  0.00     0.002 A 
HETATM   20  C22 UNL     1      25.712   8.218  47.160  1.00  0.00     0.001 A 
HETATM   21  C23 UNL     1      25.252   7.220  48.034  1.00  0.00     0.010 A 
HETATM   22  C24 UNL     1      24.084   6.455  47.924  1.00  0.00    -0.020 A 
HETATM   23  H23 UNL     1      21.616   6.379  45.434  1.00  0.00     0.184 HD
ENDROOT
BRANCH  13  24
HETATM   24  C13 UNL     1      20.287   8.398  49.189  1.00  0.00     0.089 C 
HETATM   25  C14 UNL     1      21.544   9.330  48.990  1.00  0.00     0.028 C 
HETATM   26  C15 UNL     1      21.044  10.720  48.926  1.00  0.00     0.034 C 
HETATM   27  C16 UNL     1      19.562  10.644  49.179  1.00  0.00     0.120 C 
HETATM   28  C17 UNL     1      19.362   9.315  49.882  1.00  0.00     0.057 C 
BRANCH  27  29
HETATM   29  O1  UNL     1      18.855  10.793  48.021  1.00  0.00    -0.396 OA
HETATM   30  H20 UNL     1      18.462   9.927  47.720  1.00  0.00     0.210 HD
ENDBRANCH  27  29
ENDBRANCH  13  24
BRANCH   1  31
HETATM   31  C3  UNL     1      25.410   4.776  49.030  1.00  0.00    -0.018 C 
HETATM   32  C2  UNL     1      25.725   3.771  49.885  1.00  0.00    -0.034 C 
HETATM   33  C1  UNL     1      26.582   2.693  50.487  1.00  0.00     0.036 C 
ENDBRANCH   1  31
TORSDOF 3
ENDMDL
