MODEL 1
REMARK VINA RESULT:      -8.8      0.000      0.000
REMARK  5 active torsions:
REMARK  status: ('A' for Active; 'I' for Inactive)
REMARK    1  A    between atoms: C5_6  and  O1_7 
REMARK    2  A    between atoms: O1_7  and  C6_8 
REMARK    3  A    between atoms: C9_11  and  N1_12 
REMARK    4  A    between atoms: N1_12  and  C10_13 
REMARK    5  A    between atoms: C12_15  and  C13_16 
ROOT
HETATM    1  C6  UNL     1      24.845  -0.303  53.234  1.00  0.00     0.091 A 
HETATM    2  C7  UNL     1      23.936  -0.971  54.024  1.00  0.00     0.041 A 
HETATM    3  C8  UNL     1      22.634  -0.559  54.108  1.00  0.00     0.032 A 
HETATM    4  C9  UNL     1      22.127   0.547  53.414  1.00  0.00     0.035 A 
HETATM    5  C19 UNL     1      23.090   1.161  52.649  1.00  0.00     0.056 A 
HETATM    6  C20 UNL     1      24.397   0.809  52.518  1.00  0.00     0.069 A 
HETATM    7 CL1  UNL     1      25.517   1.690  51.499  1.00  0.00    -0.081 Cl
ENDROOT
BRANCH   4   8
HETATM    8  N1  UNL     1      20.775   0.936  53.530  1.00  0.00    -0.341 N 
HETATM    9  H7  UNL     1      20.599   1.586  54.357  1.00  0.00     0.167 HD
BRANCH   8  10
HETATM   10  C10 UNL     1      19.681   0.584  52.724  1.00  0.00     0.131 A 
HETATM   11  C11 UNL     1      18.939  -0.517  53.081  1.00  0.00     0.083 A 
HETATM   12  C12 UNL     1      17.847  -0.976  52.390  1.00  0.00     0.073 A 
HETATM   13  N3  UNL     1      17.506  -0.277  51.293  1.00  0.00    -0.241 NA
HETATM   14  C18 UNL     1      18.235   0.820  50.928  1.00  0.00     0.235 A 
HETATM   15  N4  UNL     1      19.293   1.239  51.624  1.00  0.00    -0.224 NA
BRANCH  12  16
HETATM   16  C13 UNL     1      17.048  -2.136  52.745  1.00  0.00     0.010 A 
HETATM   17  C14 UNL     1      17.641  -3.086  53.551  1.00  0.00     0.017 A 
HETATM   18  C15 UNL     1      16.949  -4.236  53.944  1.00  0.00     0.020 A 
HETATM   19  C16 UNL     1      15.644  -4.416  53.510  1.00  0.00     0.116 A 
HETATM   20  N2  UNL     1      15.083  -3.484  52.727  1.00  0.00    -0.272 NA
HETATM   21  C17 UNL     1      15.752  -2.378  52.351  1.00  0.00     0.130 A 
ENDBRANCH  12  16
ENDBRANCH   8  10
ENDBRANCH   4   8
BRANCH   1  22
HETATM   22  O1  UNL     1      26.171  -0.642  53.088  1.00  0.00    -0.340 OA
BRANCH  22  23
HETATM   23  C5  UNL     1      27.204  -0.538  54.005  1.00  0.00     0.158 A 
HETATM   24  C4  UNL     1      28.372  -1.308  53.474  1.00  0.00     0.006 A 
HETATM   25  C3  UNL     1      29.623  -1.018  53.263  1.00  0.00     0.001 A 
HETATM   26  C2  UNL     1      29.999   0.340  53.608  1.00  0.00     0.037 A 
HETATM   27  C1  UNL     1      29.020   1.068  54.080  1.00  0.00     0.096 A 
HETATM   28  F1  UNL     1      29.350   2.358  54.414  1.00  0.00    -0.211 F 
HETATM   29  C21 UNL     1      27.582   0.858  54.363  1.00  0.00     0.106 A 
ENDBRANCH  22  23
ENDBRANCH   1  22
TORSDOF 5
ENDMDL
MODEL 2
REMARK VINA RESULT:      -8.8      7.315     10.173
REMARK  5 active torsions:
REMARK  status: ('A' for Active; 'I' for Inactive)
REMARK    1  A    between atoms: C5_6  and  O1_7 
REMARK    2  A    between atoms: O1_7  and  C6_8 
REMARK    3  A    between atoms: C9_11  and  N1_12 
REMARK    4  A    between atoms: N1_12  and  C10_13 
REMARK    5  A    between atoms: C12_15  and  C13_16 
ROOT
HETATM    1  C6  UNL     1      28.349   7.028  48.275  1.00  0.00     0.091 A 
HETATM    2  C7  UNL     1      27.050   7.283  48.653  1.00  0.00     0.041 A 
HETATM    3  C8  UNL     1      26.208   6.270  49.022  1.00  0.00     0.032 A 
HETATM    4  C9  UNL     1      26.586   4.922  49.047  1.00  0.00     0.035 A 
HETATM    5  C19 UNL     1      27.892   4.744  48.658  1.00  0.00     0.056 A 
HETATM    6  C20 UNL     1      28.784   5.700  48.280  1.00  0.00     0.069 A 
HETATM    7 CL1  UNL     1      30.428   5.327  47.806  1.00  0.00    -0.081 Cl
ENDROOT
BRANCH   4   8
HETATM    8  N1  UNL     1      25.683   3.909  49.435  1.00  0.00    -0.341 N 
HETATM    9  H7  UNL     1      25.065   3.572  48.633  1.00  0.00     0.167 HD
BRANCH   8  10
HETATM   10  C10 UNL     1      25.506   3.315  50.695  1.00  0.00     0.131 A 
HETATM   11  C11 UNL     1      26.429   2.384  51.109  1.00  0.00     0.083 A 
HETATM   12  C12 UNL     1      26.384   1.725  52.311  1.00  0.00     0.073 A 
HETATM   13  N3  UNL     1      25.352   2.036  53.116  1.00  0.00    -0.241 NA
HETATM   14  C18 UNL     1      24.428   2.961  52.716  1.00  0.00     0.235 A 
HETATM   15  N4  UNL     1      24.503   3.583  51.539  1.00  0.00    -0.224 NA
BRANCH  12  16
HETATM   16  C13 UNL     1      27.344   0.737  52.771  1.00  0.00     0.010 A 
HETATM   17  C14 UNL     1      28.556   1.206  53.235  1.00  0.00     0.017 A 
HETATM   18  C15 UNL     1      29.543   0.330  53.698  1.00  0.00     0.020 A 
HETATM   19  C16 UNL     1      29.288  -1.034  53.685  1.00  0.00     0.116 A 
HETATM   20  N2  UNL     1      28.106  -1.473  53.231  1.00  0.00    -0.272 NA
HETATM   21  C17 UNL     1      27.159  -0.627  52.786  1.00  0.00     0.130 A 
ENDBRANCH  12  16
ENDBRANCH   8  10
ENDBRANCH   4   8
BRANCH   1  22
HETATM   22  O1  UNL     1      29.266   7.979  47.889  1.00  0.00    -0.340 OA
BRANCH  22  23
HETATM   23  C5  UNL     1      30.128   8.729  48.673  1.00  0.00     0.158 A 
HETATM   24  C4  UNL     1      31.365   8.994  47.873  1.00  0.00     0.006 A 
HETATM   25  C3  UNL     1      32.022  10.072  47.560  1.00  0.00     0.001 A 
HETATM   26  C2  UNL     1      31.459  11.302  48.084  1.00  0.00     0.037 A 
HETATM   27  C1  UNL     1      30.373  11.139  48.794  1.00  0.00     0.096 A 
HETATM   28  F1  UNL     1      29.819  12.288  49.302  1.00  0.00    -0.211 F 
HETATM   29  C21 UNL     1      29.543   9.987  49.216  1.00  0.00     0.106 A 
ENDBRANCH  22  23
ENDBRANCH   1  22
TORSDOF 5
ENDMDL
MODEL 3
REMARK VINA RESULT:      -8.7      6.185     10.307
REMARK  5 active torsions:
REMARK  status: ('A' for Active; 'I' for Inactive)
REMARK    1  A    between atoms: C5_6  and  O1_7 
REMARK    2  A    between atoms: O1_7  and  C6_8 
REMARK    3  A    between atoms: C9_11  and  N1_12 
REMARK    4  A    between atoms: N1_12  and  C10_13 
REMARK    5  A    between atoms: C12_15  and  C13_16 
ROOT
HETATM    1  C6  UNL     1      25.023   1.437  52.424  1.00  0.00     0.091 A 
HETATM    2  C7  UNL     1      26.230   2.024  52.116  1.00  0.00     0.041 A 
HETATM    3  C8  UNL     1      26.349   2.884  51.058  1.00  0.00     0.032 A 
HETATM    4  C9  UNL     1      25.282   3.233  50.222  1.00  0.00     0.035 A 
HETATM    5  C19 UNL     1      24.113   2.609  50.589  1.00  0.00     0.056 A 
HETATM    6  C20 UNL     1      23.921   1.746  51.623  1.00  0.00     0.069 A 
HETATM    7 CL1  UNL     1      22.366   1.023  51.976  1.00  0.00    -0.081 Cl
ENDROOT
BRANCH   4   8
HETATM    8  N1  UNL     1      25.451   4.125  49.141  1.00  0.00    -0.341 N 
HETATM    9  H7  UNL     1      24.944   3.810  48.257  1.00  0.00     0.167 HD
BRANCH   8  10
HETATM   10  C10 UNL     1      26.176   5.326  49.091  1.00  0.00     0.131 A 
HETATM   11  C11 UNL     1      27.426   5.307  48.519  1.00  0.00     0.083 A 
HETATM   12  C12 UNL     1      28.245   6.401  48.402  1.00  0.00     0.073 A 
HETATM   13  N3  UNL     1      27.759   7.557  48.890  1.00  0.00    -0.241 NA
HETATM   14  C18 UNL     1      26.518   7.589  49.461  1.00  0.00     0.235 A 
HETATM   15  N4  UNL     1      25.748   6.505  49.559  1.00  0.00    -0.224 NA
BRANCH  12  16
HETATM   16  C13 UNL     1      29.568   6.406  47.804  1.00  0.00     0.010 A 
HETATM   17  C14 UNL     1      30.311   5.248  47.906  1.00  0.00     0.017 A 
HETATM   18  C15 UNL     1      31.595   5.160  47.361  1.00  0.00     0.020 A 
HETATM   19  C16 UNL     1      32.124   6.263  46.708  1.00  0.00     0.116 A 
HETATM   20  N2  UNL     1      31.391   7.381  46.617  1.00  0.00    -0.272 NA
HETATM   21  C17 UNL     1      30.154   7.463  47.143  1.00  0.00     0.130 A 
ENDBRANCH  12  16
ENDBRANCH   8  10
ENDBRANCH   4   8
BRANCH   1  22
HETATM   22  O1  UNL     1      24.807   0.561  53.464  1.00  0.00    -0.340 OA
BRANCH  22  23
HETATM   23  C5  UNL     1      25.690  -0.333  54.049  1.00  0.00     0.158 A 
HETATM   24  C4  UNL     1      26.294  -1.162  52.959  1.00  0.00     0.006 A 
HETATM   25  C3  UNL     1      27.516  -1.445  52.614  1.00  0.00     0.001 A 
HETATM   26  C2  UNL     1      28.539  -0.839  53.445  1.00  0.00     0.037 A 
HETATM   27  C1  UNL     1      28.075  -0.099  54.419  1.00  0.00     0.096 A 
HETATM   28  F1  UNL     1      29.024   0.486  55.221  1.00  0.00    -0.211 F 
HETATM   29  C21 UNL     1      26.734   0.292  54.908  1.00  0.00     0.106 A 
ENDBRANCH  22  23
ENDBRANCH   1  22
TORSDOF 5
ENDMDL
MODEL 4
REMARK VINA RESULT:      -8.7      6.969     11.521
REMARK  5 active torsions:
REMARK  status: ('A' for Active; 'I' for Inactive)
REMARK    1  A    between atoms: C5_6  and  O1_7 
REMARK    2  A    between atoms: O1_7  and  C6_8 
REMARK    3  A    between atoms: C9_11  and  N1_12 
REMARK    4  A    between atoms: N1_12  and  C10_13 
REMARK    5  A    between atoms: C12_15  and  C13_16 
ROOT
HETATM    1  C6  UNL     1      25.192   3.192  51.010  1.00  0.00     0.091 A 
HETATM    2  C7  UNL     1      26.244   2.858  50.188  1.00  0.00     0.041 A 
HETATM    3  C8  UNL     1      26.793   3.774  49.333  1.00  0.00     0.032 A 
HETATM    4  C9  UNL     1      26.343   5.095  49.224  1.00  0.00     0.035 A 
HETATM    5  C19 UNL     1      25.292   5.354  50.072  1.00  0.00     0.056 A 
HETATM    6  C20 UNL     1      24.699   4.497  50.945  1.00  0.00     0.069 A 
HETATM    7 CL1  UNL     1      23.360   4.968  51.972  1.00  0.00    -0.081 Cl
ENDROOT
BRANCH   4   8
HETATM    8  N1  UNL     1      26.940   6.007  48.327  1.00  0.00    -0.341 N 
HETATM    9  H7  UNL     1      26.325   6.223  47.482  1.00  0.00     0.167 HD
BRANCH   8  10
HETATM   10  C10 UNL     1      28.191   6.638  48.408  1.00  0.00     0.131 A 
HETATM   11  C11 UNL     1      29.317   5.873  48.208  1.00  0.00     0.083 A 
HETATM   12  C12 UNL     1      30.601   6.353  48.257  1.00  0.00     0.073 A 
HETATM   13  N3  UNL     1      30.732   7.666  48.521  1.00  0.00    -0.241 NA
HETATM   14  C18 UNL     1      29.620   8.436  48.721  1.00  0.00     0.235 A 
HETATM   15  N4  UNL     1      28.385   7.936  48.667  1.00  0.00    -0.224 NA
BRANCH  12  16
HETATM   16  C13 UNL     1      31.806   5.568  48.051  1.00  0.00     0.010 A 
HETATM   17  C14 UNL     1      31.665   4.357  47.405  1.00  0.00     0.017 A 
HETATM   18  C15 UNL     1      32.767   3.532  47.163  1.00  0.00     0.020 A 
HETATM   19  C16 UNL     1      34.022   3.949  47.583  1.00  0.00     0.116 A 
HETATM   20  N2  UNL     1      34.142   5.128  48.208  1.00  0.00    -0.272 NA
HETATM   21  C17 UNL     1      33.078   5.919  48.440  1.00  0.00     0.130 A 
ENDBRANCH  12  16
ENDBRANCH   8  10
ENDBRANCH   4   8
BRANCH   1  22
HETATM   22  O1  UNL     1      24.576   2.340  51.899  1.00  0.00    -0.340 OA
BRANCH  22  23
HETATM   23  C5  UNL     1      25.126   1.647  52.966  1.00  0.00     0.158 A 
HETATM   24  C4  UNL     1      25.441   0.260  52.501  1.00  0.00     0.006 A 
HETATM   25  C3  UNL     1      26.511  -0.479  52.529  1.00  0.00     0.001 A 
HETATM   26  C2  UNL     1      27.669   0.151  53.135  1.00  0.00     0.037 A 
HETATM   27  C1  UNL     1      27.459   1.369  53.563  1.00  0.00     0.096 A 
HETATM   28  F1  UNL     1      28.540   1.987  54.142  1.00  0.00    -0.211 F 
HETATM   29  C21 UNL     1      26.309   2.301  53.591  1.00  0.00     0.106 A 
ENDBRANCH  22  23
ENDBRANCH   1  22
TORSDOF 5
ENDMDL
MODEL 5
REMARK VINA RESULT:      -8.7      7.324     12.206
REMARK  5 active torsions:
REMARK  status: ('A' for Active; 'I' for Inactive)
REMARK    1  A    between atoms: C5_6  and  O1_7 
REMARK    2  A    between atoms: O1_7  and  C6_8 
REMARK    3  A    between atoms: C9_11  and  N1_12 
REMARK    4  A    between atoms: N1_12  and  C10_13 
REMARK    5  A    between atoms: C12_15  and  C13_16 
ROOT
HETATM    1  C6  UNL     1      25.372   3.708  50.264  1.00  0.00     0.091 A 
HETATM    2  C7  UNL     1      26.507   3.296  49.602  1.00  0.00     0.041 A 
HETATM    3  C8  UNL     1      27.285   4.185  48.912  1.00  0.00     0.032 A 
HETATM    4  C9  UNL     1      27.003   5.553  48.823  1.00  0.00     0.035 A 
HETATM    5  C19 UNL     1      25.858   5.889  49.506  1.00  0.00     0.056 A 
HETATM    6  C20 UNL     1      25.038   5.063  50.211  1.00  0.00     0.069 A 
HETATM    7 CL1  UNL     1      23.603   5.633  51.037  1.00  0.00    -0.081 Cl
ENDROOT
BRANCH   4   8
HETATM    8  N1  UNL     1      27.835   6.434  48.099  1.00  0.00    -0.341 N 
HETATM    9  H7  UNL     1      27.364   6.830  47.227  1.00  0.00     0.167 HD
BRANCH   8  10
HETATM   10  C10 UNL     1      29.151   6.835  48.375  1.00  0.00     0.131 A 
HETATM   11  C11 UNL     1      30.165   5.933  48.151  1.00  0.00     0.083 A 
HETATM   12  C12 UNL     1      31.495   6.186  48.375  1.00  0.00     0.073 A 
HETATM   13  N3  UNL     1      31.791   7.411  48.847  1.00  0.00    -0.241 NA
HETATM   14  C18 UNL     1      30.792   8.316  49.073  1.00  0.00     0.235 A 
HETATM   15  N4  UNL     1      29.509   8.036  48.844  1.00  0.00    -0.224 NA
BRANCH  12  16
HETATM   16  C13 UNL     1      32.583   5.252  48.148  1.00  0.00     0.010 A 
HETATM   17  C14 UNL     1      32.265   4.046  47.558  1.00  0.00     0.017 A 
HETATM   18  C15 UNL     1      33.247   3.084  47.300  1.00  0.00     0.020 A 
HETATM   19  C16 UNL     1      34.561   3.357  47.648  1.00  0.00     0.116 A 
HETATM   20  N2  UNL     1      34.854   4.534  48.221  1.00  0.00    -0.272 NA
HETATM   21  C17 UNL     1      33.906   5.457  48.467  1.00  0.00     0.130 A 
ENDBRANCH  12  16
ENDBRANCH   8  10
ENDBRANCH   4   8
BRANCH   1  22
HETATM   22  O1  UNL     1      24.529   2.889  50.982  1.00  0.00    -0.340 OA
BRANCH  22  23
HETATM   23  C5  UNL     1      24.697   2.365  52.254  1.00  0.00     0.158 A 
HETATM   24  C4  UNL     1      23.346   1.993  52.779  1.00  0.00     0.006 A 
HETATM   25  C3  UNL     1      22.844   0.904  53.285  1.00  0.00     0.001 A 
HETATM   26  C2  UNL     1      23.769  -0.210  53.369  1.00  0.00     0.037 A 
HETATM   27  C1  UNL     1      24.971   0.051  52.925  1.00  0.00     0.096 A 
HETATM   28  F1  UNL     1      25.867  -0.988  52.994  1.00  0.00    -0.211 F 
HETATM   29  C21 UNL     1      25.654   1.227  52.338  1.00  0.00     0.106 A 
ENDBRANCH  22  23
ENDBRANCH   1  22
TORSDOF 5
ENDMDL
MODEL 6
REMARK VINA RESULT:      -8.6      6.781     11.522
REMARK  5 active torsions:
REMARK  status: ('A' for Active; 'I' for Inactive)
REMARK    1  A    between atoms: C5_6  and  O1_7 
REMARK    2  A    between atoms: O1_7  and  C6_8 
REMARK    3  A    between atoms: C9_11  and  N1_12 
REMARK    4  A    between atoms: N1_12  and  C10_13 
REMARK    5  A    between atoms: C12_15  and  C13_16 
ROOT
HETATM    1  C6  UNL     1      24.765   2.889  51.645  1.00  0.00     0.091 A 
HETATM    2  C7  UNL     1      24.124   4.021  51.193  1.00  0.00     0.041 A 
HETATM    3  C8  UNL     1      24.668   4.794  50.203  1.00  0.00     0.032 A 
HETATM    4  C9  UNL     1      25.889   4.506  49.580  1.00  0.00     0.035 A 
HETATM    5  C19 UNL     1      26.468   3.365  50.083  1.00  0.00     0.056 A 
HETATM    6  C20 UNL     1      25.988   2.551  51.061  1.00  0.00     0.069 A 
HETATM    7 CL1  UNL     1      26.839   1.120  51.604  1.00  0.00    -0.081 Cl
ENDROOT
BRANCH   4   8
HETATM    8  N1  UNL     1      26.411   5.332  48.562  1.00  0.00    -0.341 N 
HETATM    9  H7  UNL     1      25.816   5.328  47.676  1.00  0.00     0.167 HD
BRANCH   8  10
HETATM   10  C10 UNL     1      27.570   6.124  48.573  1.00  0.00     0.131 A 
HETATM   11  C11 UNL     1      28.780   5.507  48.357  1.00  0.00     0.083 A 
HETATM   12  C12 UNL     1      29.990   6.153  48.340  1.00  0.00     0.073 A 
HETATM   13  N3  UNL     1      29.953   7.481  48.552  1.00  0.00    -0.241 NA
HETATM   14  C18 UNL     1      28.757   8.106  48.767  1.00  0.00     0.235 A 
HETATM   15  N4  UNL     1      27.598   7.446  48.778  1.00  0.00    -0.224 NA
BRANCH  12  16
HETATM   16  C13 UNL     1      31.280   5.526  48.116  1.00  0.00     0.010 A 
HETATM   17  C14 UNL     1      31.305   4.410  47.305  1.00  0.00     0.017 A 
HETATM   18  C15 UNL     1      32.501   3.739  47.032  1.00  0.00     0.020 A 
HETATM   19  C16 UNL     1      33.679   4.212  47.592  1.00  0.00     0.116 A 
HETATM   20  N2  UNL     1      33.638   5.297  48.378  1.00  0.00    -0.272 NA
HETATM   21  C17 UNL     1      32.484   5.940  48.638  1.00  0.00     0.130 A 
ENDBRANCH  12  16
ENDBRANCH   8  10
ENDBRANCH   4   8
BRANCH   1  22
HETATM   22  O1  UNL     1      24.297   2.053  52.633  1.00  0.00    -0.340 OA
BRANCH  22  23
HETATM   23  C5  UNL     1      23.437   0.971  52.527  1.00  0.00     0.158 A 
HETATM   24  C4  UNL     1      23.991  -0.141  53.360  1.00  0.00     0.006 A 
HETATM   25  C3  UNL     1      23.502  -0.890  54.305  1.00  0.00     0.001 A 
HETATM   26  C2  UNL     1      22.121  -0.609  54.650  1.00  0.00     0.037 A 
HETATM   27  C1  UNL     1      21.577   0.357  53.956  1.00  0.00     0.096 A 
HETATM   28  F1  UNL     1      20.269   0.642  54.263  1.00  0.00    -0.211 F 
HETATM   29  C21 UNL     1      22.019   1.266  52.874  1.00  0.00     0.106 A 
ENDBRANCH  22  23
ENDBRANCH   1  22
TORSDOF 5
ENDMDL
MODEL 7
REMARK VINA RESULT:      -8.4      7.287      9.137
REMARK  5 active torsions:
REMARK  status: ('A' for Active; 'I' for Inactive)
REMARK    1  A    between atoms: C5_6  and  O1_7 
REMARK    2  A    between atoms: O1_7  and  C6_8 
REMARK    3  A    between atoms: C9_11  and  N1_12 
REMARK    4  A    between atoms: N1_12  and  C10_13 
REMARK    5  A    between atoms: C12_15  and  C13_16 
ROOT
HETATM    1  C6  UNL     1      27.718   7.087  48.390  1.00  0.00     0.091 A 
HETATM    2  C7  UNL     1      26.444   6.950  48.891  1.00  0.00     0.041 A 
HETATM    3  C8  UNL     1      25.956   5.725  49.259  1.00  0.00     0.032 A 
HETATM    4  C9  UNL     1      26.693   4.538  49.160  1.00  0.00     0.035 A 
HETATM    5  C19 UNL     1      27.952   4.754  48.651  1.00  0.00     0.056 A 
HETATM    6  C20 UNL     1      28.502   5.938  48.266  1.00  0.00     0.069 A 
HETATM    7 CL1  UNL     1      30.129   6.064  47.633  1.00  0.00    -0.081 Cl
ENDROOT
BRANCH   4   8
HETATM    8  N1  UNL     1      26.150   3.296  49.551  1.00  0.00    -0.341 N 
HETATM    9  H7  UNL     1      25.647   2.792  48.757  1.00  0.00     0.167 HD
BRANCH   8  10
HETATM   10  C10 UNL     1      26.188   2.670  50.807  1.00  0.00     0.131 A 
HETATM   11  C11 UNL     1      25.029   2.106  51.286  1.00  0.00     0.083 A 
HETATM   12  C12 UNL     1      24.918   1.463  52.494  1.00  0.00     0.073 A 
HETATM   13  N3  UNL     1      26.040   1.399  53.233  1.00  0.00    -0.241 NA
HETATM   14  C18 UNL     1      27.198   1.956  52.768  1.00  0.00     0.235 A 
HETATM   15  N4  UNL     1      27.270   2.574  51.588  1.00  0.00    -0.224 NA
BRANCH  12  16
HETATM   16  C13 UNL     1      23.707   0.861  53.022  1.00  0.00     0.010 A 
HETATM   17  C14 UNL     1      23.853  -0.282  53.782  1.00  0.00     0.017 A 
HETATM   18  C15 UNL     1      22.744  -0.932  54.333  1.00  0.00     0.020 A 
HETATM   19  C16 UNL     1      21.479  -0.411  54.104  1.00  0.00     0.116 A 
HETATM   20  N2  UNL     1      21.354   0.699  53.364  1.00  0.00    -0.272 NA
HETATM   21  C17 UNL     1      22.424   1.323  52.835  1.00  0.00     0.130 A 
ENDBRANCH  12  16
ENDBRANCH   8  10
ENDBRANCH   4   8
BRANCH   1  22
HETATM   22  O1  UNL     1      28.293   8.274  47.994  1.00  0.00    -0.340 OA
BRANCH  22  23
HETATM   23  C5  UNL     1      28.426   9.458  48.702  1.00  0.00     0.158 A 
HETATM   24  C4  UNL     1      29.775   9.456  49.351  1.00  0.00     0.006 A 
HETATM   25  C3  UNL     1      30.771  10.292  49.361  1.00  0.00     0.001 A 
HETATM   26  C2  UNL     1      30.562  11.498  48.582  1.00  0.00     0.037 A 
HETATM   27  C1  UNL     1      29.399  11.561  47.987  1.00  0.00     0.096 A 
HETATM   28  F1  UNL     1      29.175  12.693  47.243  1.00  0.00    -0.211 F 
HETATM   29  C21 UNL     1      28.202  10.693  47.901  1.00  0.00     0.106 A 
ENDBRANCH  22  23
ENDBRANCH   1  22
TORSDOF 5
ENDMDL
MODEL 8
REMARK VINA RESULT:      -8.4      5.739      8.836
REMARK  5 active torsions:
REMARK  status: ('A' for Active; 'I' for Inactive)
REMARK    1  A    between atoms: C5_6  and  O1_7 
REMARK    2  A    between atoms: O1_7  and  C6_8 
REMARK    3  A    between atoms: C9_11  and  N1_12 
REMARK    4  A    between atoms: N1_12  and  C10_13 
REMARK    5  A    between atoms: C12_15  and  C13_16 
ROOT
HETATM    1  C6  UNL     1      26.458   5.395  49.374  1.00  0.00     0.091 A 
HETATM    2  C7  UNL     1      26.725   4.054  49.209  1.00  0.00     0.041 A 
HETATM    3  C8  UNL     1      25.874   3.098  49.694  1.00  0.00     0.032 A 
HETATM    4  C9  UNL     1      24.690   3.394  50.380  1.00  0.00     0.035 A 
HETATM    5  C19 UNL     1      24.491   4.749  50.506  1.00  0.00     0.056 A 
HETATM    6  C20 UNL     1      25.290   5.752  50.051  1.00  0.00     0.069 A 
HETATM    7 CL1  UNL     1      24.909   7.445  50.285  1.00  0.00    -0.081 Cl
ENDROOT
BRANCH   4   8
HETATM    8  N1  UNL     1      23.841   2.375  50.863  1.00  0.00    -0.341 N 
HETATM    9  H7  UNL     1      22.876   2.385  50.407  1.00  0.00     0.167 HD
BRANCH   8  10
HETATM   10  C10 UNL     1      24.101   1.391  51.830  1.00  0.00     0.131 A 
HETATM   11  C11 UNL     1      25.409   1.021  52.043  1.00  0.00     0.083 A 
HETATM   12  C12 UNL     1      25.810   0.075  52.953  1.00  0.00     0.073 A 
HETATM   13  N3  UNL     1      24.832  -0.509  53.668  1.00  0.00    -0.241 NA
HETATM   14  C18 UNL     1      23.529  -0.149  53.465  1.00  0.00     0.235 A 
HETATM   15  N4  UNL     1      23.174   0.775  52.571  1.00  0.00    -0.224 NA
BRANCH  12  16
HETATM   16  C13 UNL     1      27.182  -0.334  53.196  1.00  0.00     0.010 A 
HETATM   17  C14 UNL     1      28.074   0.647  53.577  1.00  0.00     0.017 A 
HETATM   18  C15 UNL     1      29.416   0.348  53.833  1.00  0.00     0.020 A 
HETATM   19  C16 UNL     1      29.848  -0.963  53.699  1.00  0.00     0.116 A 
HETATM   20  N2  UNL     1      28.969  -1.905  53.328  1.00  0.00    -0.272 NA
HETATM   21  C17 UNL     1      27.678  -1.613  53.082  1.00  0.00     0.130 A 
ENDBRANCH  12  16
ENDBRANCH   8  10
ENDBRANCH   4   8
BRANCH   1  22
HETATM   22  O1  UNL     1      27.252   6.425  48.923  1.00  0.00    -0.340 OA
BRANCH  22  23
HETATM   23  C5  UNL     1      28.158   6.433  47.874  1.00  0.00     0.158 A 
HETATM   24  C4  UNL     1      28.244   7.832  47.351  1.00  0.00     0.006 A 
HETATM   25  C3  UNL     1      29.229   8.653  47.131  1.00  0.00     0.001 A 
HETATM   26  C2  UNL     1      30.542   8.129  47.454  1.00  0.00     0.037 A 
HETATM   27  C1  UNL     1      30.537   6.906  47.918  1.00  0.00     0.096 A 
HETATM   28  F1  UNL     1      31.768   6.386  48.232  1.00  0.00    -0.211 F 
HETATM   29  C21 UNL     1      29.504   5.886  48.208  1.00  0.00     0.106 A 
ENDBRANCH  22  23
ENDBRANCH   1  22
TORSDOF 5
ENDMDL
MODEL 9
REMARK VINA RESULT:      -8.4      7.378     11.685
REMARK  5 active torsions:
REMARK  status: ('A' for Active; 'I' for Inactive)
REMARK    1  A    between atoms: C5_6  and  O1_7 
REMARK    2  A    between atoms: O1_7  and  C6_8 
REMARK    3  A    between atoms: C9_11  and  N1_12 
REMARK    4  A    between atoms: N1_12  and  C10_13 
REMARK    5  A    between atoms: C12_15  and  C13_16 
ROOT
HETATM    1  C6  UNL     1      25.403   2.784  50.958  1.00  0.00     0.091 A 
HETATM    2  C7  UNL     1      26.480   2.843  50.103  1.00  0.00     0.041 A 
HETATM    3  C8  UNL     1      26.748   3.972  49.378  1.00  0.00     0.032 A 
HETATM    4  C9  UNL     1      25.971   5.135  49.444  1.00  0.00     0.035 A 
HETATM    5  C19 UNL     1      24.916   5.002  50.316  1.00  0.00     0.056 A 
HETATM    6  C20 UNL     1      24.590   3.915  51.066  1.00  0.00     0.069 A 
HETATM    7 CL1  UNL     1      23.208   3.887  52.141  1.00  0.00    -0.081 Cl
ENDROOT
BRANCH   4   8
HETATM    8  N1  UNL     1      26.285   6.278  48.678  1.00  0.00    -0.341 N 
HETATM    9  H7  UNL     1      25.845   6.262  47.706  1.00  0.00     0.167 HD
BRANCH   8  10
HETATM   10  C10 UNL     1      27.075   7.386  49.024  1.00  0.00     0.131 A 
HETATM   11  C11 UNL     1      28.369   7.431  48.560  1.00  0.00     0.083 A 
HETATM   12  C12 UNL     1      29.252   8.448  48.819  1.00  0.00     0.073 A 
HETATM   13  N3  UNL     1      28.787   9.454  49.581  1.00  0.00    -0.241 NA
HETATM   14  C18 UNL     1      27.503   9.421  50.047  1.00  0.00     0.235 A 
HETATM   15  N4  UNL     1      26.670   8.415  49.776  1.00  0.00    -0.224 NA
BRANCH  12  16
HETATM   16  C13 UNL     1      30.623   8.519  48.343  1.00  0.00     0.010 A 
HETATM   17  C14 UNL     1      31.562   7.761  49.012  1.00  0.00     0.017 A 
HETATM   18  C15 UNL     1      32.906   7.766  48.626  1.00  0.00     0.020 A 
HETATM   19  C16 UNL     1      33.291   8.550  47.549  1.00  0.00     0.116 A 
HETATM   20  N2  UNL     1      32.367   9.281  46.909  1.00  0.00    -0.272 NA
HETATM   21  C17 UNL     1      31.074   9.274  47.284  1.00  0.00     0.130 A 
ENDBRANCH  12  16
ENDBRANCH   8  10
ENDBRANCH   4   8
BRANCH   1  22
HETATM   22  O1  UNL     1      25.055   1.695  51.725  1.00  0.00    -0.340 OA
BRANCH  22  23
HETATM   23  C5  UNL     1      25.642   1.224  52.889  1.00  0.00     0.158 A 
HETATM   24  C4  UNL     1      26.241  -0.115  52.593  1.00  0.00     0.006 A 
HETATM   25  C3  UNL     1      27.425  -0.629  52.759  1.00  0.00     0.001 A 
HETATM   26  C2  UNL     1      28.398   0.264  53.357  1.00  0.00     0.037 A 
HETATM   27  C1  UNL     1      27.936   1.455  53.641  1.00  0.00     0.096 A 
HETATM   28  F1  UNL     1      28.838   2.320  54.208  1.00  0.00    -0.211 F 
HETATM   29  C21 UNL     1      26.635   2.148  53.505  1.00  0.00     0.106 A 
ENDBRANCH  22  23
ENDBRANCH   1  22
TORSDOF 5
ENDMDL
