MODEL 1
REMARK VINA RESULT:      -7.8      0.000      0.000
REMARK  6 active torsions:
REMARK  status: ('A' for Active; 'I' for Inactive)
REMARK    1  A    between atoms: C1_2  and  C2_3 
REMARK    2  A    between atoms: C5_6  and  N1_7 
REMARK    3  A    between atoms: N1_7  and  N2_8 
REMARK    4  A    between atoms: N2_8  and  C6_9 
REMARK    5  A    between atoms: C9_12  and  O2_13 
REMARK    6  A    between atoms: O2_13  and  C10_14 
ROOT
HETATM    1  C6  UNL     1      23.547   3.360  51.445  1.00  0.00     0.048 A 
HETATM    2  C7  UNL     1      23.262   2.019  51.159  1.00  0.00     0.034 A 
HETATM    3  C8  UNL     1      23.715   0.988  51.990  1.00  0.00     0.039 A 
HETATM    4  C9  UNL     1      24.461   1.335  53.118  1.00  0.00     0.078 A 
HETATM    5  C14 UNL     1      24.767   2.640  53.441  1.00  0.00     0.039 A 
HETATM    6  C15 UNL     1      24.297   3.622  52.589  1.00  0.00     0.034 A 
ENDROOT
BRANCH   1   7
HETATM    7  N2  UNL     1      23.088   4.368  50.594  1.00  0.00    -0.300 N 
HETATM    8  H5  UNL     1      22.265   4.606  51.187  1.00  0.00     0.187 HD
BRANCH   7   9
HETATM    9  N1  UNL     1      23.445   4.962  49.393  1.00  0.00    -0.300 N 
HETATM   10  H4  UNL     1      22.696   5.245  48.729  1.00  0.00     0.187 HD
BRANCH   9  11
HETATM   11  C5  UNL     1      24.803   5.162  49.113  1.00  0.00     0.048 A 
HETATM   12  C4  UNL     1      25.220   6.362  48.613  1.00  0.00     0.032 A 
HETATM   13  C3  UNL     1      26.564   6.602  48.322  1.00  0.00     0.017 A 
HETATM   14  C2  UNL     1      27.514   5.648  48.526  1.00  0.00     0.002 A 
HETATM   15  C17 UNL     1      27.128   4.428  49.028  1.00  0.00     0.017 A 
HETATM   16  C16 UNL     1      25.780   4.222  49.308  1.00  0.00     0.032 A 
BRANCH  14  17
HETATM   17  C1  UNL     1      28.895   5.972  48.199  1.00  0.00     0.269 C 
HETATM   18  O1  UNL     1      29.800   5.244  48.677  1.00  0.00    -0.301 OA
ENDBRANCH  14  17
ENDBRANCH   9  11
ENDBRANCH   7   9
ENDBRANCH   1   7
BRANCH   4  19
HETATM   19  O2  UNL     1      24.853   0.236  53.862  1.00  0.00    -0.292 OA
BRANCH  19  20
HETATM   20  C10 UNL     1      26.225  -0.046  53.996  1.00  0.00     0.172 A 
HETATM   21  C11 UNL     1      26.824  -0.941  53.102  1.00  0.00     0.077 A 
HETATM   22  C12 UNL     1      28.155  -1.325  53.097  1.00  0.00     0.122 A 
HETATM   23  N3  UNL     1      28.889  -0.742  54.071  1.00  0.00    -0.254 NA
HETATM   24  C13 UNL     1      28.353   0.124  54.950  1.00  0.00     0.235 A 
HETATM   25  N4  UNL     1      27.037   0.486  54.936  1.00  0.00    -0.218 NA
ENDBRANCH  19  20
ENDBRANCH   4  19
TORSDOF 6
ENDMDL
MODEL 2
REMARK VINA RESULT:      -7.7      6.087      9.395
REMARK  6 active torsions:
REMARK  status: ('A' for Active; 'I' for Inactive)
REMARK    1  A    between atoms: C1_2  and  C2_3 
REMARK    2  A    between atoms: C5_6  and  N1_7 
REMARK    3  A    between atoms: N1_7  and  N2_8 
REMARK    4  A    between atoms: N2_8  and  C6_9 
REMARK    5  A    between atoms: C9_12  and  O2_13 
REMARK    6  A    between atoms: O2_13  and  C10_14 
ROOT
HETATM    1  C6  UNL     1      21.183  -1.037  53.888  1.00  0.00     0.048 A 
HETATM    2  C7  UNL     1      21.491  -0.164  52.838  1.00  0.00     0.034 A 
HETATM    3  C8  UNL     1      22.780   0.359  52.684  1.00  0.00     0.039 A 
HETATM    4  C9  UNL     1      23.755  -0.017  53.611  1.00  0.00     0.078 A 
HETATM    5  C14 UNL     1      23.500  -0.874  54.659  1.00  0.00     0.039 A 
HETATM    6  C15 UNL     1      22.211  -1.363  54.769  1.00  0.00     0.034 A 
ENDROOT
BRANCH   1   7
HETATM    7  N2  UNL     1      19.886  -1.538  54.021  1.00  0.00    -0.300 N 
HETATM    8  H5  UNL     1      20.194  -2.465  54.386  1.00  0.00     0.187 HD
BRANCH   7   9
HETATM    9  N1  UNL     1      18.581  -1.124  53.806  1.00  0.00    -0.300 N 
HETATM   10  H4  UNL     1      18.340  -0.121  53.944  1.00  0.00     0.187 HD
BRANCH   9  11
HETATM   11  C5  UNL     1      17.627  -2.069  53.407  1.00  0.00     0.048 A 
HETATM   12  C4  UNL     1      16.555  -1.674  52.659  1.00  0.00     0.032 A 
HETATM   13  C3  UNL     1      15.583  -2.585  52.241  1.00  0.00     0.017 A 
HETATM   14  C2  UNL     1      15.666  -3.906  52.561  1.00  0.00     0.002 A 
HETATM   15  C17 UNL     1      16.733  -4.337  53.313  1.00  0.00     0.017 A 
HETATM   16  C16 UNL     1      17.684  -3.403  53.714  1.00  0.00     0.032 A 
BRANCH  14  17
HETATM   17  C1  UNL     1      14.615  -4.795  52.089  1.00  0.00     0.269 C 
HETATM   18  O1  UNL     1      14.705  -5.242  50.919  1.00  0.00    -0.301 OA
ENDBRANCH  14  17
ENDBRANCH   9  11
ENDBRANCH   7   9
ENDBRANCH   1   7
BRANCH   4  19
HETATM   19  O2  UNL     1      24.987   0.560  53.358  1.00  0.00    -0.292 OA
BRANCH  19  20
HETATM   20  C10 UNL     1      26.130  -0.259  53.311  1.00  0.00     0.172 A 
HETATM   21  C11 UNL     1      27.293   0.160  53.967  1.00  0.00     0.077 A 
HETATM   22  C12 UNL     1      28.496  -0.524  54.018  1.00  0.00     0.122 A 
HETATM   23  N3  UNL     1      28.477  -1.700  53.351  1.00  0.00    -0.254 NA
HETATM   24  C13 UNL     1      27.381  -2.141  52.707  1.00  0.00     0.235 A 
HETATM   25  N4  UNL     1      26.205  -1.447  52.671  1.00  0.00    -0.218 NA
ENDBRANCH  19  20
ENDBRANCH   4  19
TORSDOF 6
ENDMDL
MODEL 3
REMARK VINA RESULT:      -7.6      4.699      7.608
REMARK  6 active torsions:
REMARK  status: ('A' for Active; 'I' for Inactive)
REMARK    1  A    between atoms: C1_2  and  C2_3 
REMARK    2  A    between atoms: C5_6  and  N1_7 
REMARK    3  A    between atoms: N1_7  and  N2_8 
REMARK    4  A    between atoms: N2_8  and  C6_9 
REMARK    5  A    between atoms: C9_12  and  O2_13 
REMARK    6  A    between atoms: O2_13  and  C10_14 
ROOT
HETATM    1  C6  UNL     1      22.328   0.335  53.450  1.00  0.00     0.048 A 
HETATM    2  C7  UNL     1      23.241  -0.616  53.921  1.00  0.00     0.034 A 
HETATM    3  C8  UNL     1      24.560  -0.647  53.454  1.00  0.00     0.039 A 
HETATM    4  C9  UNL     1      24.941   0.301  52.502  1.00  0.00     0.078 A 
HETATM    5  C14 UNL     1      24.079   1.256  52.009  1.00  0.00     0.039 A 
HETATM    6  C15 UNL     1      22.786   1.245  52.501  1.00  0.00     0.034 A 
ENDROOT
BRANCH   1   7
HETATM    7  N2  UNL     1      21.015   0.339  53.929  1.00  0.00    -0.300 N 
HETATM    8  H5  UNL     1      21.013   1.357  54.151  1.00  0.00     0.187 HD
BRANCH   7   9
HETATM    9  N1  UNL     1      19.971  -0.554  54.117  1.00  0.00    -0.300 N 
HETATM   10  H4  UNL     1      19.976  -1.165  54.959  1.00  0.00     0.187 HD
BRANCH   9  11
HETATM   11  C5  UNL     1      18.943  -0.604  53.167  1.00  0.00     0.048 A 
HETATM   12  C4  UNL     1      19.081   0.069  51.986  1.00  0.00     0.032 A 
HETATM   13  C3  UNL     1      18.081   0.043  51.012  1.00  0.00     0.017 A 
HETATM   14  C2  UNL     1      16.926  -0.654  51.202  1.00  0.00     0.002 A 
HETATM   15  C17 UNL     1      16.755  -1.341  52.379  1.00  0.00     0.017 A 
HETATM   16  C16 UNL     1      17.772  -1.295  53.329  1.00  0.00     0.032 A 
BRANCH  14  17
HETATM   17  C1  UNL     1      15.929  -0.633  50.141  1.00  0.00     0.269 C 
HETATM   18  O1  UNL     1      16.206  -0.010  49.086  1.00  0.00    -0.301 OA
ENDBRANCH  14  17
ENDBRANCH   9  11
ENDBRANCH   7   9
ENDBRANCH   1   7
BRANCH   4  19
HETATM   19  O2  UNL     1      26.264   0.173  52.116  1.00  0.00    -0.292 OA
BRANCH  19  20
HETATM   20  C10 UNL     1      27.277   0.612  52.987  1.00  0.00     0.172 A 
HETATM   21  C11 UNL     1      27.711   1.940  52.909  1.00  0.00     0.077 A 
HETATM   22  C12 UNL     1      28.693   2.528  53.690  1.00  0.00     0.122 A 
HETATM   23  N3  UNL     1      29.241   1.684  54.593  1.00  0.00    -0.254 NA
HETATM   24  C13 UNL     1      28.854   0.401  54.702  1.00  0.00     0.235 A 
HETATM   25  N4  UNL     1      27.884  -0.157  53.920  1.00  0.00    -0.218 NA
ENDBRANCH  19  20
ENDBRANCH   4  19
TORSDOF 6
ENDMDL
MODEL 4
REMARK VINA RESULT:      -7.6      3.087      7.677
REMARK  6 active torsions:
REMARK  status: ('A' for Active; 'I' for Inactive)
REMARK    1  A    between atoms: C1_2  and  C2_3 
REMARK    2  A    between atoms: C5_6  and  N1_7 
REMARK    3  A    between atoms: N1_7  and  N2_8 
REMARK    4  A    between atoms: N2_8  and  C6_9 
REMARK    5  A    between atoms: C9_12  and  O2_13 
REMARK    6  A    between atoms: O2_13  and  C10_14 
ROOT
HETATM    1  C6  UNL     1      25.775   4.237  50.214  1.00  0.00     0.048 A 
HETATM    2  C7  UNL     1      25.329   5.563  50.136  1.00  0.00     0.034 A 
HETATM    3  C8  UNL     1      25.979   6.499  49.324  1.00  0.00     0.039 A 
HETATM    4  C9  UNL     1      27.089   6.073  48.591  1.00  0.00     0.078 A 
HETATM    5  C14 UNL     1      27.564   4.780  48.634  1.00  0.00     0.039 A 
HETATM    6  C15 UNL     1      26.887   3.892  49.452  1.00  0.00     0.034 A 
ENDROOT
BRANCH   1   7
HETATM    7  N2  UNL     1      25.110   3.326  51.038  1.00  0.00    -0.300 N 
HETATM    8  H5  UNL     1      24.387   3.085  50.326  1.00  0.00     0.187 HD
BRANCH   7   9
HETATM    9  N1  UNL     1      25.215   2.811  52.321  1.00  0.00    -0.300 N 
HETATM   10  H4  UNL     1      24.603   3.195  53.069  1.00  0.00     0.187 HD
BRANCH   9  11
HETATM   11  C5  UNL     1      26.140   1.789  52.568  1.00  0.00     0.048 A 
HETATM   12  C4  UNL     1      27.333   2.087  53.162  1.00  0.00     0.032 A 
HETATM   13  C3  UNL     1      28.282   1.097  53.426  1.00  0.00     0.017 A 
HETATM   14  C2  UNL     1      28.056  -0.206  53.102  1.00  0.00     0.002 A 
HETATM   15  C17 UNL     1      26.865  -0.540  52.502  1.00  0.00     0.017 A 
HETATM   16  C16 UNL     1      25.941   0.471  52.253  1.00  0.00     0.032 A 
BRANCH  14  17
HETATM   17  C1  UNL     1      29.092  -1.180  53.409  1.00  0.00     0.269 C 
HETATM   18  O1  UNL     1      28.791  -2.398  53.349  1.00  0.00    -0.301 OA
ENDBRANCH  14  17
ENDBRANCH   9  11
ENDBRANCH   7   9
ENDBRANCH   1   7
BRANCH   4  19
HETATM   19  O2  UNL     1      27.648   7.083  47.827  1.00  0.00    -0.292 OA
BRANCH  19  20
HETATM   20  C10 UNL     1      28.752   7.792  48.333  1.00  0.00     0.172 A 
HETATM   21  C11 UNL     1      30.038   7.276  48.139  1.00  0.00     0.077 A 
HETATM   22  C12 UNL     1      31.224   7.848  48.571  1.00  0.00     0.122 A 
HETATM   23  N3  UNL     1      31.051   9.012  49.236  1.00  0.00    -0.254 NA
HETATM   24  C13 UNL     1      29.833   9.544  49.445  1.00  0.00     0.235 A 
HETATM   25  N4  UNL     1      28.678   8.961  49.010  1.00  0.00    -0.218 NA
ENDBRANCH  19  20
ENDBRANCH   4  19
TORSDOF 6
ENDMDL
MODEL 5
REMARK VINA RESULT:      -7.5      3.106      7.571
REMARK  6 active torsions:
REMARK  status: ('A' for Active; 'I' for Inactive)
REMARK    1  A    between atoms: C1_2  and  C2_3 
REMARK    2  A    between atoms: C5_6  and  N1_7 
REMARK    3  A    between atoms: N1_7  and  N2_8 
REMARK    4  A    between atoms: N2_8  and  C6_9 
REMARK    5  A    between atoms: C9_12  and  O2_13 
REMARK    6  A    between atoms: O2_13  and  C10_14 
ROOT
HETATM    1  C6  UNL     1      25.705   4.295  50.219  1.00  0.00     0.048 A 
HETATM    2  C7  UNL     1      26.828   3.877  49.493  1.00  0.00     0.034 A 
HETATM    3  C8  UNL     1      27.537   4.768  48.680  1.00  0.00     0.039 A 
HETATM    4  C9  UNL     1      27.093   6.090  48.612  1.00  0.00     0.078 A 
HETATM    5  C14 UNL     1      25.995   6.548  49.308  1.00  0.00     0.039 A 
HETATM    6  C15 UNL     1      25.327   5.629  50.097  1.00  0.00     0.034 A 
ENDROOT
BRANCH   1   7
HETATM    7  N2  UNL     1      25.011   3.382  51.017  1.00  0.00    -0.300 N 
HETATM    8  H5  UNL     1      24.315   3.142  50.280  1.00  0.00     0.187 HD
BRANCH   7   9
HETATM    9  N1  UNL     1      25.069   2.867  52.303  1.00  0.00    -0.300 N 
HETATM   10  H4  UNL     1      24.386   3.202  53.012  1.00  0.00     0.187 HD
BRANCH   9  11
HETATM   11  C5  UNL     1      26.047   1.911  52.606  1.00  0.00     0.048 A 
HETATM   12  C4  UNL     1      25.971   0.665  52.050  1.00  0.00     0.032 A 
HETATM   13  C3  UNL     1      26.926  -0.315  52.325  1.00  0.00     0.017 A 
HETATM   14  C2  UNL     1      27.973  -0.069  53.160  1.00  0.00     0.002 A 
HETATM   15  C17 UNL     1      28.080   1.173  53.737  1.00  0.00     0.017 A 
HETATM   16  C16 UNL     1      27.111   2.128  53.441  1.00  0.00     0.032 A 
BRANCH  14  17
HETATM   17  C1  UNL     1      28.928  -1.142  53.398  1.00  0.00     0.269 C 
HETATM   18  O1  UNL     1      30.106  -0.824  53.696  1.00  0.00    -0.301 OA
ENDBRANCH  14  17
ENDBRANCH   9  11
ENDBRANCH   7   9
ENDBRANCH   1   7
BRANCH   4  19
HETATM   19  O2  UNL     1      27.870   6.876  47.779  1.00  0.00    -0.292 OA
BRANCH  19  20
HETATM   20  C10 UNL     1      28.895   7.660  48.339  1.00  0.00     0.172 A 
HETATM   21  C11 UNL     1      30.194   7.143  48.392  1.00  0.00     0.077 A 
HETATM   22  C12 UNL     1      31.310   7.782  48.908  1.00  0.00     0.122 A 
HETATM   23  N3  UNL     1      31.049   9.019  49.388  1.00  0.00    -0.254 NA
HETATM   24  C13 UNL     1      29.816   9.554  49.357  1.00  0.00     0.235 A 
HETATM   25  N4  UNL     1      28.730   8.904  48.844  1.00  0.00    -0.218 NA
ENDBRANCH  19  20
ENDBRANCH   4  19
TORSDOF 6
ENDMDL
MODEL 6
REMARK VINA RESULT:      -7.3      3.165      8.254
REMARK  6 active torsions:
REMARK  status: ('A' for Active; 'I' for Inactive)
REMARK    1  A    between atoms: C1_2  and  C2_3 
REMARK    2  A    between atoms: C5_6  and  N1_7 
REMARK    3  A    between atoms: N1_7  and  N2_8 
REMARK    4  A    between atoms: N2_8  and  C6_9 
REMARK    5  A    between atoms: C9_12  and  O2_13 
REMARK    6  A    between atoms: O2_13  and  C10_14 
ROOT
HETATM    1  C6  UNL     1      25.672   4.155  50.302  1.00  0.00     0.048 A 
HETATM    2  C7  UNL     1      26.795   3.780  49.553  1.00  0.00     0.034 A 
HETATM    3  C8  UNL     1      27.454   4.697  48.726  1.00  0.00     0.039 A 
HETATM    4  C9  UNL     1      26.959   6.002  48.669  1.00  0.00     0.078 A 
HETATM    5  C14 UNL     1      25.858   6.418  49.387  1.00  0.00     0.039 A 
HETATM    6  C15 UNL     1      25.242   5.474  50.189  1.00  0.00     0.034 A 
ENDROOT
BRANCH   1   7
HETATM    7  N2  UNL     1      25.031   3.217  51.114  1.00  0.00    -0.300 N 
HETATM    8  H5  UNL     1      24.286   3.002  50.417  1.00  0.00     0.187 HD
BRANCH   7   9
HETATM    9  N1  UNL     1      25.172   2.659  52.375  1.00  0.00    -0.300 N 
HETATM   10  H4  UNL     1      25.959   2.972  52.980  1.00  0.00     0.187 HD
BRANCH   9  11
HETATM   11  C5  UNL     1      24.250   1.691  52.795  1.00  0.00     0.048 A 
HETATM   12  C4  UNL     1      24.698   0.536  53.370  1.00  0.00     0.032 A 
HETATM   13  C3  UNL     1      23.812  -0.453  53.802  1.00  0.00     0.017 A 
HETATM   14  C2  UNL     1      22.465  -0.305  53.668  1.00  0.00     0.002 A 
HETATM   15  C17 UNL     1      21.981   0.846  53.094  1.00  0.00     0.017 A 
HETATM   16  C16 UNL     1      22.892   1.812  52.673  1.00  0.00     0.032 A 
BRANCH  14  17
HETATM   17  C1  UNL     1      21.605  -1.379  54.143  1.00  0.00     0.269 C 
HETATM   18  O1  UNL     1      21.981  -2.033  55.147  1.00  0.00    -0.301 OA
ENDBRANCH  14  17
ENDBRANCH   9  11
ENDBRANCH   7   9
ENDBRANCH   1   7
BRANCH   4  19
HETATM   19  O2  UNL     1      27.688   6.817  47.821  1.00  0.00    -0.292 OA
BRANCH  19  20
HETATM   20  C10 UNL     1      28.807   7.502  48.326  1.00  0.00     0.172 A 
HETATM   21  C11 UNL     1      28.635   8.786  48.856  1.00  0.00     0.077 A 
HETATM   22  C12 UNL     1      29.627   9.592  49.391  1.00  0.00     0.122 A 
HETATM   23  N3  UNL     1      30.854   9.023  49.368  1.00  0.00    -0.254 NA
HETATM   24  C13 UNL     1      31.064   7.792  48.869  1.00  0.00     0.235 A 
HETATM   25  N4  UNL     1      30.070   7.017  48.346  1.00  0.00    -0.218 NA
ENDBRANCH  19  20
ENDBRANCH   4  19
TORSDOF 6
ENDMDL
MODEL 7
REMARK VINA RESULT:      -7.3      2.716      5.941
REMARK  6 active torsions:
REMARK  status: ('A' for Active; 'I' for Inactive)
REMARK    1  A    between atoms: C1_2  and  C2_3 
REMARK    2  A    between atoms: C5_6  and  N1_7 
REMARK    3  A    between atoms: N1_7  and  N2_8 
REMARK    4  A    between atoms: N2_8  and  C6_9 
REMARK    5  A    between atoms: C9_12  and  O2_13 
REMARK    6  A    between atoms: O2_13  and  C10_14 
ROOT
HETATM    1  C6  UNL     1      24.251   3.062  51.362  1.00  0.00     0.048 A 
HETATM    2  C7  UNL     1      24.519   2.789  52.709  1.00  0.00     0.034 A 
HETATM    3  C8  UNL     1      25.801   2.427  53.135  1.00  0.00     0.039 A 
HETATM    4  C9  UNL     1      26.812   2.345  52.174  1.00  0.00     0.078 A 
HETATM    5  C14 UNL     1      26.598   2.605  50.838  1.00  0.00     0.039 A 
HETATM    6  C15 UNL     1      25.313   2.959  50.467  1.00  0.00     0.034 A 
ENDROOT
BRANCH   1   7
HETATM    7  N2  UNL     1      22.960   3.415  50.964  1.00  0.00    -0.300 N 
HETATM    8  H5  UNL     1      23.254   4.310  50.517  1.00  0.00     0.187 HD
BRANCH   7   9
HETATM    9  N1  UNL     1      21.670   2.911  51.042  1.00  0.00    -0.300 N 
HETATM   10  H4  UNL     1      20.917   3.364  50.485  1.00  0.00     0.187 HD
BRANCH   9  11
HETATM   11  C5  UNL     1      21.423   1.808  51.868  1.00  0.00     0.048 A 
HETATM   12  C4  UNL     1      21.881   0.574  51.503  1.00  0.00     0.032 A 
HETATM   13  C3  UNL     1      21.657  -0.551  52.299  1.00  0.00     0.017 A 
HETATM   14  C2  UNL     1      20.972  -0.463  53.472  1.00  0.00     0.002 A 
HETATM   15  C17 UNL     1      20.497   0.764  53.869  1.00  0.00     0.017 A 
HETATM   16  C16 UNL     1      20.738   1.865  53.052  1.00  0.00     0.032 A 
BRANCH  14  17
HETATM   17  C1  UNL     1      20.778  -1.680  54.248  1.00  0.00     0.269 C 
HETATM   18  O1  UNL     1      21.590  -1.923  55.174  1.00  0.00    -0.301 OA
ENDBRANCH  14  17
ENDBRANCH   9  11
ENDBRANCH   7   9
ENDBRANCH   1   7
BRANCH   4  19
HETATM   19  O2  UNL     1      28.034   1.979  52.711  1.00  0.00    -0.292 OA
BRANCH  19  20
HETATM   20  C10 UNL     1      28.295   0.619  52.955  1.00  0.00     0.172 A 
HETATM   21  C11 UNL     1      27.306  -0.325  52.657  1.00  0.00     0.077 A 
HETATM   22  C12 UNL     1      27.401  -1.696  52.836  1.00  0.00     0.122 A 
HETATM   23  N3  UNL     1      28.588  -2.091  53.351  1.00  0.00    -0.254 NA
HETATM   24  C13 UNL     1      29.565  -1.217  53.651  1.00  0.00     0.235 A 
HETATM   25  N4  UNL     1      29.447   0.130  53.467  1.00  0.00    -0.218 NA
ENDBRANCH  19  20
ENDBRANCH   4  19
TORSDOF 6
ENDMDL
MODEL 8
REMARK VINA RESULT:      -7.1      5.386      8.664
REMARK  6 active torsions:
REMARK  status: ('A' for Active; 'I' for Inactive)
REMARK    1  A    between atoms: C1_2  and  C2_3 
REMARK    2  A    between atoms: C5_6  and  N1_7 
REMARK    3  A    between atoms: N1_7  and  N2_8 
REMARK    4  A    between atoms: N2_8  and  C6_9 
REMARK    5  A    between atoms: C9_12  and  O2_13 
REMARK    6  A    between atoms: O2_13  and  C10_14 
ROOT
HETATM    1  C6  UNL     1      21.891  -0.096  52.766  1.00  0.00     0.048 A 
HETATM    2  C7  UNL     1      22.315   0.826  51.802  1.00  0.00     0.034 A 
HETATM    3  C8  UNL     1      23.634   1.294  51.777  1.00  0.00     0.039 A 
HETATM    4  C9  UNL     1      24.519   0.812  52.745  1.00  0.00     0.078 A 
HETATM    5  C14 UNL     1      24.148  -0.096  53.713  1.00  0.00     0.039 A 
HETATM    6  C15 UNL     1      22.834  -0.528  53.695  1.00  0.00     0.034 A 
ENDROOT
BRANCH   1   7
HETATM    7  N2  UNL     1      20.566  -0.541  52.771  1.00  0.00    -0.300 N 
HETATM    8  H5  UNL     1      20.500  -0.611  51.733  1.00  0.00     0.187 HD
BRANCH   7   9
HETATM    9  N1  UNL     1      19.567  -0.833  53.687  1.00  0.00    -0.300 N 
HETATM   10  H4  UNL     1      19.760  -0.705  54.701  1.00  0.00     0.187 HD
BRANCH   9  11
HETATM   11  C5  UNL     1      18.330  -1.290  53.216  1.00  0.00     0.048 A 
HETATM   12  C4  UNL     1      17.822  -2.468  53.684  1.00  0.00     0.032 A 
HETATM   13  C3  UNL     1      16.591  -2.958  53.242  1.00  0.00     0.017 A 
HETATM   14  C2  UNL     1      15.848  -2.279  52.325  1.00  0.00     0.002 A 
HETATM   15  C17 UNL     1      16.329  -1.090  51.834  1.00  0.00     0.017 A 
HETATM   16  C16 UNL     1      17.560  -0.630  52.296  1.00  0.00     0.032 A 
BRANCH  14  17
HETATM   17  C1  UNL     1      14.575  -2.853  51.913  1.00  0.00     0.269 C 
HETATM   18  O1  UNL     1      13.545  -2.143  52.026  1.00  0.00    -0.301 OA
ENDBRANCH  14  17
ENDBRANCH   9  11
ENDBRANCH   7   9
ENDBRANCH   1   7
BRANCH   4  19
HETATM   19  O2  UNL     1      25.791   1.344  52.622  1.00  0.00    -0.292 OA
BRANCH  19  20
HETATM   20  C10 UNL     1      26.867   0.695  53.253  1.00  0.00     0.172 A 
HETATM   21  C11 UNL     1      27.338  -0.511  52.721  1.00  0.00     0.077 A 
HETATM   22  C12 UNL     1      28.384  -1.272  53.218  1.00  0.00     0.122 A 
HETATM   23  N3  UNL     1      28.959  -0.743  54.321  1.00  0.00    -0.254 NA
HETATM   24  C13 UNL     1      28.538   0.412  54.865  1.00  0.00     0.235 A 
HETATM   25  N4  UNL     1      27.504   1.145  54.357  1.00  0.00    -0.218 NA
ENDBRANCH  19  20
ENDBRANCH   4  19
TORSDOF 6
ENDMDL
MODEL 9
REMARK VINA RESULT:      -7.0      4.334      7.196
REMARK  6 active torsions:
REMARK  status: ('A' for Active; 'I' for Inactive)
REMARK    1  A    between atoms: C1_2  and  C2_3 
REMARK    2  A    between atoms: C5_6  and  N1_7 
REMARK    3  A    between atoms: N1_7  and  N2_8 
REMARK    4  A    between atoms: N2_8  and  C6_9 
REMARK    5  A    between atoms: C9_12  and  O2_13 
REMARK    6  A    between atoms: O2_13  and  C10_14 
ROOT
HETATM    1  C6  UNL     1      22.897   2.192  52.246  1.00  0.00     0.048 A 
HETATM    2  C7  UNL     1      22.814   1.013  51.494  1.00  0.00     0.034 A 
HETATM    3  C8  UNL     1      21.595   0.574  50.967  1.00  0.00     0.039 A 
HETATM    4  C9  UNL     1      20.458   1.347  51.213  1.00  0.00     0.078 A 
HETATM    5  C14 UNL     1      20.490   2.514  51.946  1.00  0.00     0.039 A 
HETATM    6  C15 UNL     1      21.719   2.905  52.446  1.00  0.00     0.034 A 
ENDROOT
BRANCH   1   7
HETATM    7  N2  UNL     1      24.127   2.603  52.766  1.00  0.00    -0.300 N 
HETATM    8  H5  UNL     1      23.750   2.808  53.715  1.00  0.00     0.187 HD
BRANCH   7   9
HETATM    9  N1  UNL     1      25.440   2.752  52.345  1.00  0.00    -0.300 N 
HETATM   10  H4  UNL     1      25.708   3.613  51.826  1.00  0.00     0.187 HD
BRANCH   9  11
HETATM   11  C5  UNL     1      26.363   1.739  52.632  1.00  0.00     0.048 A 
HETATM   12  C4  UNL     1      27.547   2.054  53.235  1.00  0.00     0.032 A 
HETATM   13  C3  UNL     1      28.493   1.074  53.539  1.00  0.00     0.017 A 
HETATM   14  C2  UNL     1      28.272  -0.238  53.247  1.00  0.00     0.002 A 
HETATM   15  C17 UNL     1      27.091  -0.590  52.640  1.00  0.00     0.017 A 
HETATM   16  C16 UNL     1      26.169   0.413  52.351  1.00  0.00     0.032 A 
BRANCH  14  17
HETATM   17  C1  UNL     1      29.306  -1.202  53.595  1.00  0.00     0.269 C 
HETATM   18  O1  UNL     1      29.064  -2.419  53.400  1.00  0.00    -0.301 OA
ENDBRANCH  14  17
ENDBRANCH   9  11
ENDBRANCH   7   9
ENDBRANCH   1   7
BRANCH   4  19
HETATM   19  O2  UNL     1      19.313   0.816  50.644  1.00  0.00    -0.292 OA
BRANCH  19  20
HETATM   20  C10 UNL     1      18.463   0.021  51.433  1.00  0.00     0.172 A 
HETATM   21  C11 UNL     1      17.177  -0.270  50.964  1.00  0.00     0.077 A 
HETATM   22  C12 UNL     1      16.221  -1.034  51.614  1.00  0.00     0.122 A 
HETATM   23  N3  UNL     1      16.635  -1.513  52.809  1.00  0.00    -0.254 NA
HETATM   24  C13 UNL     1      17.862  -1.258  53.298  1.00  0.00     0.235 A 
HETATM   25  N4  UNL     1      18.787  -0.501  52.638  1.00  0.00    -0.218 NA
ENDBRANCH  19  20
ENDBRANCH   4  19
TORSDOF 6
ENDMDL
