MODEL 1
REMARK VINA RESULT:      -8.5      0.000      0.000
REMARK  3 active torsions:
REMARK  status: ('A' for Active; 'I' for Inactive)
REMARK    1  A    between atoms: C10_13  and  C11_14 
REMARK    2  A    between atoms: C11_14  and  C12_15 
REMARK    3  A    between atoms: C12_15  and  O3_17 
ROOT
HETATM    1  C1  UNL     1      26.623   3.111  50.443  1.00  0.00     0.059 C 
HETATM    2  C2  UNL     1      26.797   2.490  51.586  1.00  0.00    -0.001 A 
HETATM    3  N1  UNL     1      27.810   2.779  52.510  1.00  0.00    -0.330 N 
HETATM    4  C3  UNL     1      27.632   1.784  53.507  1.00  0.00     0.252 A 
HETATM    5  O1  UNL     1      28.388   1.722  54.538  1.00  0.00    -0.268 OA
HETATM    6  C4  UNL     1      26.524   0.845  53.263  1.00  0.00     0.018 A 
HETATM    7  C5  UNL     1      26.112  -0.181  53.997  1.00  0.00     0.006 C 
HETATM    8  C6  UNL     1      24.950  -0.791  53.265  1.00  0.00     0.147 C 
HETATM    9  N2  UNL     1      23.728  -0.546  53.971  1.00  0.00    -0.392 N 
HETATM   10  C7  UNL     1      22.382  -0.675  53.657  1.00  0.00    -0.010 C 
HETATM   11  C8  UNL     1      21.702  -1.328  54.584  1.00  0.00     0.058 C 
HETATM   12  C9  UNL     1      21.617  -0.103  52.464  1.00  0.00     0.049 A 
HETATM   13  C10 UNL     1      20.269  -0.584  52.406  1.00  0.00     0.027 A 
HETATM   14  C13 UNL     1      21.948   1.374  52.390  1.00  0.00    -0.087 A 
HETATM   15  C14 UNL     1      20.793   1.051  52.424  1.00  0.00     0.041 A 
HETATM   16  C15 UNL     1      23.223   2.073  52.403  1.00  0.00     0.025 C 
HETATM   17  C16 UNL     1      24.569   2.046  52.277  1.00  0.00     0.014 C 
HETATM   18  C17 UNL     1      25.924   1.374  52.033  1.00  0.00     0.075 A 
HETATM   19  H3  UNL     1      28.543   3.519  52.522  1.00  0.00     0.168 HD
HETATM   20  H7  UNL     1      23.858  -0.175  54.967  1.00  0.00     0.159 HD
ENDROOT
BRANCH  13  21
HETATM   21  C11 UNL     1      19.217  -0.518  53.397  1.00  0.00     0.111 C 
BRANCH  21  22
HETATM   22  C12 UNL     1      18.209  -1.543  53.510  1.00  0.00     0.139 C 
HETATM   23  O2  UNL     1      17.189  -1.645  52.744  1.00  0.00    -0.650 OA
BRANCH  22  24
HETATM   24  O3  UNL     1      17.789  -2.664  54.207  1.00  0.00    -0.776 OA
HETATM   25  H15 UNL     1      18.424  -3.414  54.444  1.00  0.00     0.167 HD
ENDBRANCH  22  24
ENDBRANCH  21  22
ENDBRANCH  13  21
TORSDOF 3
ENDMDL
MODEL 2
REMARK VINA RESULT:      -8.1      3.817      6.982
REMARK  3 active torsions:
REMARK  status: ('A' for Active; 'I' for Inactive)
REMARK    1  A    between atoms: C10_13  and  C11_14 
REMARK    2  A    between atoms: C11_14  and  C12_15 
REMARK    3  A    between atoms: C12_15  and  O3_17 
ROOT
HETATM    1  C1  UNL     1      19.965   2.103  50.641  1.00  0.00     0.059 C 
HETATM    2  C2  UNL     1      20.780   3.110  50.852  1.00  0.00    -0.001 A 
HETATM    3  N1  UNL     1      20.378   4.421  51.139  1.00  0.00    -0.330 N 
HETATM    4  C3  UNL     1      21.605   5.135  51.181  1.00  0.00     0.252 A 
HETATM    5  O1  UNL     1      21.645   6.390  51.422  1.00  0.00    -0.268 OA
HETATM    6  C4  UNL     1      22.808   4.324  50.927  1.00  0.00     0.018 A 
HETATM    7  C5  UNL     1      24.082   4.695  50.895  1.00  0.00     0.006 C 
HETATM    8  C6  UNL     1      24.879   3.459  50.583  1.00  0.00     0.147 C 
HETATM    9  N2  UNL     1      25.633   3.047  51.729  1.00  0.00    -0.392 N 
HETATM   10  C7  UNL     1      26.335   1.898  52.068  1.00  0.00    -0.010 C 
HETATM   11  C8  UNL     1      27.551   2.156  52.517  1.00  0.00     0.058 C 
HETATM   12  C9  UNL     1      25.855   0.447  52.064  1.00  0.00     0.049 A 
HETATM   13  C10 UNL     1      26.920  -0.474  52.331  1.00  0.00     0.027 A 
HETATM   14  C13 UNL     1      24.548   0.407  52.827  1.00  0.00    -0.087 A 
HETATM   15  C14 UNL     1      25.427  -0.337  53.165  1.00  0.00     0.041 A 
HETATM   16  C15 UNL     1      23.343   1.211  52.708  1.00  0.00     0.025 C 
HETATM   17  C16 UNL     1      22.585   2.080  52.000  1.00  0.00     0.014 C 
HETATM   18  C17 UNL     1      22.259   2.970  50.797  1.00  0.00     0.075 A 
HETATM   19  H3  UNL     1      19.435   4.836  51.294  1.00  0.00     0.168 HD
HETATM   20  H7  UNL     1      25.675   3.772  52.516  1.00  0.00     0.159 HD
ENDROOT
BRANCH  13  21
HETATM   21  C11 UNL     1      27.827  -0.543  53.456  1.00  0.00     0.111 C 
BRANCH  21  22
HETATM   22  C12 UNL     1      28.939  -1.461  53.486  1.00  0.00     0.139 C 
HETATM   23  O2  UNL     1      30.166  -1.111  53.564  1.00  0.00    -0.650 OA
BRANCH  22  24
HETATM   24  O3  UNL     1      29.326  -2.791  53.465  1.00  0.00    -0.776 OA
HETATM   25  H15 UNL     1      29.045  -3.440  54.187  1.00  0.00     0.167 HD
ENDBRANCH  22  24
ENDBRANCH  21  22
ENDBRANCH  13  21
TORSDOF 3
ENDMDL
MODEL 3
REMARK VINA RESULT:      -8.0      1.873      7.209
REMARK  3 active torsions:
REMARK  status: ('A' for Active; 'I' for Inactive)
REMARK    1  A    between atoms: C10_13  and  C11_14 
REMARK    2  A    between atoms: C11_14  and  C12_15 
REMARK    3  A    between atoms: C12_15  and  O3_17 
ROOT
HETATM    1  C1  UNL     1      19.294   3.638  51.579  1.00  0.00     0.059 C 
HETATM    2  C2  UNL     1      19.364   2.356  51.849  1.00  0.00    -0.001 A 
HETATM    3  N1  UNL     1      18.417   1.400  51.458  1.00  0.00    -0.330 N 
HETATM    4  C3  UNL     1      18.888   0.208  52.069  1.00  0.00     0.252 A 
HETATM    5  O1  UNL     1      18.271  -0.905  51.936  1.00  0.00    -0.268 OA
HETATM    6  C4  UNL     1      20.125   0.354  52.854  1.00  0.00     0.018 A 
HETATM    7  C5  UNL     1      20.803  -0.560  53.536  1.00  0.00     0.006 C 
HETATM    8  C6  UNL     1      21.979   0.148  54.149  1.00  0.00     0.147 C 
HETATM    9  N2  UNL     1      23.197  -0.263  53.517  1.00  0.00    -0.392 N 
HETATM   10  C7  UNL     1      24.502   0.210  53.523  1.00  0.00    -0.010 C 
HETATM   11  C8  UNL     1      25.389  -0.742  53.755  1.00  0.00     0.058 C 
HETATM   12  C9  UNL     1      25.012   1.619  53.222  1.00  0.00     0.049 A 
HETATM   13  C10 UNL     1      26.414   1.753  53.483  1.00  0.00     0.027 A 
HETATM   14  C13 UNL     1      24.394   2.044  51.906  1.00  0.00    -0.087 A 
HETATM   15  C14 UNL     1      25.588   2.104  52.020  1.00  0.00     0.041 A 
HETATM   16  C15 UNL     1      23.017   2.026  51.442  1.00  0.00     0.025 C 
HETATM   17  C16 UNL     1      21.695   1.927  51.714  1.00  0.00     0.014 C 
HETATM   18  C17 UNL     1      20.480   1.760  52.631  1.00  0.00     0.075 A 
HETATM   19  H3  UNL     1      17.559   1.478  50.872  1.00  0.00     0.168 HD
HETATM   20  H7  UNL     1      23.102  -1.126  52.890  1.00  0.00     0.159 HD
ENDROOT
BRANCH  13  21
HETATM   21  C11 UNL     1      27.531   0.996  52.961  1.00  0.00     0.111 C 
BRANCH  21  22
HETATM   22  C12 UNL     1      28.843   1.061  53.556  1.00  0.00     0.139 C 
HETATM   23  O2  UNL     1      29.130   1.732  54.606  1.00  0.00    -0.650 OA
BRANCH  22  24
HETATM   24  O3  UNL     1      30.160   0.638  53.474  1.00  0.00    -0.776 OA
HETATM   25  H15 UNL     1      30.461  -0.042  52.789  1.00  0.00     0.167 HD
ENDBRANCH  22  24
ENDBRANCH  21  22
ENDBRANCH  13  21
TORSDOF 3
ENDMDL
MODEL 4
REMARK VINA RESULT:      -8.0      2.401      7.608
REMARK  3 active torsions:
REMARK  status: ('A' for Active; 'I' for Inactive)
REMARK    1  A    between atoms: C10_13  and  C11_14 
REMARK    2  A    between atoms: C11_14  and  C12_15 
REMARK    3  A    between atoms: C12_15  and  O3_17 
ROOT
HETATM    1  C1  UNL     1      17.708  -2.435  53.451  1.00  0.00     0.059 C 
HETATM    2  C2  UNL     1      17.953  -1.281  52.875  1.00  0.00    -0.001 A 
HETATM    3  N1  UNL     1      16.989  -0.305  52.590  1.00  0.00    -0.330 N 
HETATM    4  C3  UNL     1      17.728   0.686  51.893  1.00  0.00     0.252 A 
HETATM    5  O1  UNL     1      17.176   1.756  51.460  1.00  0.00    -0.268 OA
HETATM    6  C4  UNL     1      19.158   0.388  51.710  1.00  0.00     0.018 A 
HETATM    7  C5  UNL     1      20.098   1.103  51.106  1.00  0.00     0.006 C 
HETATM    8  C6  UNL     1      21.372   0.313  51.211  1.00  0.00     0.147 C 
HETATM    9  N2  UNL     1      22.285   0.950  52.111  1.00  0.00    -0.392 N 
HETATM   10  C7  UNL     1      23.465   0.565  52.734  1.00  0.00    -0.010 C 
HETATM   11  C8  UNL     1      24.430   1.457  52.595  1.00  0.00     0.058 C 
HETATM   12  C9  UNL     1      23.735  -0.671  53.591  1.00  0.00     0.049 A 
HETATM   13  C10 UNL     1      25.122  -0.799  53.930  1.00  0.00     0.027 A 
HETATM   14  C13 UNL     1      22.643  -0.735  54.639  1.00  0.00    -0.087 A 
HETATM   15  C14 UNL     1      23.785  -0.761  55.006  1.00  0.00     0.041 A 
HETATM   16  C15 UNL     1      21.196  -0.657  54.521  1.00  0.00     0.025 C 
HETATM   17  C16 UNL     1      20.083  -0.710  53.754  1.00  0.00     0.014 C 
HETATM   18  C17 UNL     1      19.315  -0.876  52.439  1.00  0.00     0.075 A 
HETATM   19  H3  UNL     1      15.971  -0.258  52.805  1.00  0.00     0.168 HD
HETATM   20  H7  UNL     1      22.014   1.950  52.384  1.00  0.00     0.159 HD
ENDROOT
BRANCH  13  21
HETATM   21  C11 UNL     1      26.004   0.133  54.598  1.00  0.00     0.111 C 
BRANCH  21  22
HETATM   22  C12 UNL     1      27.439   0.012  54.525  1.00  0.00     0.139 C 
HETATM   23  O2  UNL     1      28.263   0.922  54.885  1.00  0.00    -0.650 OA
BRANCH  22  24
HETATM   24  O3  UNL     1      28.503  -0.804  54.176  1.00  0.00    -0.776 OA
HETATM   25  H15 UNL     1      28.601  -1.740  54.544  1.00  0.00     0.167 HD
ENDBRANCH  22  24
ENDBRANCH  21  22
ENDBRANCH  13  21
TORSDOF 3
ENDMDL
MODEL 5
REMARK VINA RESULT:      -7.8      3.104      7.863
REMARK  3 active torsions:
REMARK  status: ('A' for Active; 'I' for Inactive)
REMARK    1  A    between atoms: C10_13  and  C11_14 
REMARK    2  A    between atoms: C11_14  and  C12_15 
REMARK    3  A    between atoms: C12_15  and  O3_17 
ROOT
HETATM    1  C1  UNL     1      21.863  -1.321  54.485  1.00  0.00     0.059 C 
HETATM    2  C2  UNL     1      21.030  -0.762  53.638  1.00  0.00    -0.001 A 
HETATM    3  N1  UNL     1      19.643  -0.676  53.815  1.00  0.00    -0.330 N 
HETATM    4  C3  UNL     1      19.197  -0.087  52.602  1.00  0.00     0.252 A 
HETATM    5  O1  UNL     1      17.959   0.155  52.386  1.00  0.00    -0.268 OA
HETATM    6  C4  UNL     1      20.259   0.218  51.628  1.00  0.00     0.018 A 
HETATM    7  C5  UNL     1      20.164   0.759  50.420  1.00  0.00     0.006 C 
HETATM    8  C6  UNL     1      21.562   0.829  49.872  1.00  0.00     0.147 C 
HETATM    9  N2  UNL     1      22.009   2.188  49.808  1.00  0.00    -0.392 N 
HETATM   10  C7  UNL     1      23.240   2.797  49.606  1.00  0.00    -0.010 C 
HETATM   11  C8  UNL     1      23.196   3.743  48.684  1.00  0.00     0.058 C 
HETATM   12  C9  UNL     1      24.554   2.570  50.352  1.00  0.00     0.049 A 
HETATM   13  C10 UNL     1      25.645   3.278  49.751  1.00  0.00     0.027 A 
HETATM   14  C13 UNL     1      24.250   2.670  51.833  1.00  0.00    -0.087 A 
HETATM   15  C14 UNL     1      25.123   3.360  51.384  1.00  0.00     0.041 A 
HETATM   16  C15 UNL     1      23.230   2.031  52.647  1.00  0.00     0.025 C 
HETATM   17  C16 UNL     1      22.295   1.064  52.800  1.00  0.00     0.014 C 
HETATM   18  C17 UNL     1      21.476  -0.152  52.358  1.00  0.00     0.075 A 
HETATM   19  H3  UNL     1      19.029  -0.956  54.609  1.00  0.00     0.168 HD
HETATM   20  H7  UNL     1      21.236   2.916  49.950  1.00  0.00     0.159 HD
ENDROOT
BRANCH  13  21
HETATM   21  C11 UNL     1      25.791   4.690  49.467  1.00  0.00     0.111 C 
BRANCH  21  22
HETATM   22  C12 UNL     1      27.033   5.249  48.993  1.00  0.00     0.139 C 
HETATM   23  O2  UNL     1      27.123   6.262  48.218  1.00  0.00    -0.650 OA
BRANCH  22  24
HETATM   24  O3  UNL     1      28.415   5.152  49.017  1.00  0.00    -0.776 OA
HETATM   25  H15 UNL     1      28.891   4.434  49.545  1.00  0.00     0.167 HD
ENDBRANCH  22  24
ENDBRANCH  21  22
ENDBRANCH  13  21
TORSDOF 3
ENDMDL
MODEL 6
REMARK VINA RESULT:      -7.8      4.081      6.694
REMARK  3 active torsions:
REMARK  status: ('A' for Active; 'I' for Inactive)
REMARK    1  A    between atoms: C10_13  and  C11_14 
REMARK    2  A    between atoms: C11_14  and  C12_15 
REMARK    3  A    between atoms: C12_15  and  O3_17 
ROOT
HETATM    1  C1  UNL     1      25.427   8.060  50.079  1.00  0.00     0.059 C 
HETATM    2  C2  UNL     1      24.283   7.451  50.283  1.00  0.00    -0.001 A 
HETATM    3  N1  UNL     1      23.056   7.842  49.730  1.00  0.00    -0.330 N 
HETATM    4  C3  UNL     1      22.131   6.944  50.324  1.00  0.00     0.252 A 
HETATM    5  O1  UNL     1      20.881   6.991  50.058  1.00  0.00    -0.268 OA
HETATM    6  C4  UNL     1      22.719   5.968  51.257  1.00  0.00     0.018 A 
HETATM    7  C5  UNL     1      22.126   5.013  51.963  1.00  0.00     0.006 C 
HETATM    8  C6  UNL     1      23.207   4.327  52.749  1.00  0.00     0.147 C 
HETATM    9  N2  UNL     1      23.433   3.006  52.245  1.00  0.00    -0.392 N 
HETATM   10  C7  UNL     1      24.423   2.050  52.432  1.00  0.00    -0.010 C 
HETATM   11  C8  UNL     1      23.932   0.856  52.714  1.00  0.00     0.058 C 
HETATM   12  C9  UNL     1      25.936   2.195  52.273  1.00  0.00     0.049 A 
HETATM   13  C10 UNL     1      26.638   1.023  52.705  1.00  0.00     0.027 A 
HETATM   14  C13 UNL     1      26.183   2.827  50.918  1.00  0.00    -0.087 A 
HETATM   15  C14 UNL     1      26.743   1.797  51.176  1.00  0.00     0.041 A 
HETATM   16  C15 UNL     1      25.616   4.010  50.294  1.00  0.00     0.025 C 
HETATM   17  C16 UNL     1      24.925   5.169  50.402  1.00  0.00     0.014 C 
HETATM   18  C17 UNL     1      24.154   6.256  51.157  1.00  0.00     0.075 A 
HETATM   19  H3  UNL     1      22.813   8.594  49.051  1.00  0.00     0.168 HD
HETATM   20  H7  UNL     1      22.684   2.658  51.563  1.00  0.00     0.159 HD
ENDROOT
BRANCH  13  21
HETATM   21  C11 UNL     1      26.500  -0.352  52.277  1.00  0.00     0.111 C 
BRANCH  21  22
HETATM   22  C12 UNL     1      27.268  -1.418  52.872  1.00  0.00     0.139 C 
HETATM   23  O2  UNL     1      28.218  -1.247  53.710  1.00  0.00    -0.650 OA
BRANCH  22  24
HETATM   24  O3  UNL     1      27.458  -2.789  52.947  1.00  0.00    -0.776 OA
HETATM   25  H15 UNL     1      27.328  -3.299  53.809  1.00  0.00     0.167 HD
ENDBRANCH  22  24
ENDBRANCH  21  22
ENDBRANCH  13  21
TORSDOF 3
ENDMDL
MODEL 7
REMARK VINA RESULT:      -7.7      1.578      2.776
REMARK  3 active torsions:
REMARK  status: ('A' for Active; 'I' for Inactive)
REMARK    1  A    between atoms: C10_13  and  C11_14 
REMARK    2  A    between atoms: C11_14  and  C12_15 
REMARK    3  A    between atoms: C12_15  and  O3_17 
ROOT
HETATM    1  C1  UNL     1      27.224   1.616  54.523  1.00  0.00     0.059 C 
HETATM    2  C2  UNL     1      26.721   1.904  53.345  1.00  0.00    -0.001 A 
HETATM    3  N1  UNL     1      27.474   2.216  52.205  1.00  0.00    -0.330 N 
HETATM    4  C3  UNL     1      26.483   2.540  51.241  1.00  0.00     0.252 A 
HETATM    5  O1  UNL     1      26.793   2.885  50.048  1.00  0.00    -0.268 OA
HETATM    6  C4  UNL     1      25.093   2.450  51.719  1.00  0.00     0.018 A 
HETATM    7  C5  UNL     1      23.962   2.690  51.068  1.00  0.00     0.006 C 
HETATM    8  C6  UNL     1      22.846   2.447  52.046  1.00  0.00     0.147 C 
HETATM    9  N2  UNL     1      22.118   1.266  51.693  1.00  0.00    -0.392 N 
HETATM   10  C7  UNL     1      21.176   0.476  52.338  1.00  0.00    -0.010 C 
HETATM   11  C8  UNL     1      20.114   0.233  51.590  1.00  0.00     0.058 C 
HETATM   12  C9  UNL     1      21.260  -0.183  53.715  1.00  0.00     0.049 A 
HETATM   13  C10 UNL     1      20.021  -0.793  54.097  1.00  0.00     0.027 A 
HETATM   14  C13 UNL     1      22.576  -0.931  53.772  1.00  0.00    -0.087 A 
HETATM   15  C14 UNL     1      21.568  -1.533  54.022  1.00  0.00     0.041 A 
HETATM   16  C15 UNL     1      23.932  -0.510  53.463  1.00  0.00     0.025 C 
HETATM   17  C16 UNL     1      24.822   0.484  53.235  1.00  0.00     0.014 C 
HETATM   18  C17 UNL     1      25.258   1.944  53.086  1.00  0.00     0.075 A 
HETATM   19  H3  UNL     1      28.502   2.229  52.039  1.00  0.00     0.168 HD
HETATM   20  H7  UNL     1      22.337   0.885  50.717  1.00  0.00     0.159 HD
ENDROOT
BRANCH  13  21
HETATM   21  C11 UNL     1      19.233  -1.798  53.417  1.00  0.00     0.111 C 
BRANCH  21  22
HETATM   22  C12 UNL     1      17.791  -1.784  53.442  1.00  0.00     0.139 C 
HETATM   23  O2  UNL     1      17.076  -0.724  53.458  1.00  0.00    -0.650 OA
BRANCH  22  24
HETATM   24  O3  UNL     1      16.639  -2.554  53.458  1.00  0.00    -0.776 OA
HETATM   25  H15 UNL     1      15.991  -2.529  54.232  1.00  0.00     0.167 HD
ENDBRANCH  22  24
ENDBRANCH  21  22
ENDBRANCH  13  21
TORSDOF 3
ENDMDL
MODEL 8
REMARK VINA RESULT:      -7.7      3.005      7.602
REMARK  3 active torsions:
REMARK  status: ('A' for Active; 'I' for Inactive)
REMARK    1  A    between atoms: C10_13  and  C11_14 
REMARK    2  A    between atoms: C11_14  and  C12_15 
REMARK    3  A    between atoms: C12_15  and  O3_17 
ROOT
HETATM    1  C1  UNL     1      19.100   1.536  51.973  1.00  0.00     0.059 C 
HETATM    2  C2  UNL     1      20.090   0.819  52.450  1.00  0.00    -0.001 A 
HETATM    3  N1  UNL     1      19.977  -0.500  52.909  1.00  0.00    -0.330 N 
HETATM    4  C3  UNL     1      21.277  -0.784  53.405  1.00  0.00     0.252 A 
HETATM    5  O1  UNL     1      21.569  -1.919  53.917  1.00  0.00    -0.268 OA
HETATM    6  C4  UNL     1      22.246   0.318  53.283  1.00  0.00     0.018 A 
HETATM    7  C5  UNL     1      23.520   0.365  53.651  1.00  0.00     0.006 C 
HETATM    8  C6  UNL     1      24.019   1.737  53.295  1.00  0.00     0.147 C 
HETATM    9  N2  UNL     1      24.942   1.668  52.203  1.00  0.00    -0.392 N 
HETATM   10  C7  UNL     1      25.512   2.605  51.351  1.00  0.00    -0.010 C 
HETATM   11  C8  UNL     1      26.824   2.475  51.255  1.00  0.00     0.058 C 
HETATM   12  C9  UNL     1      24.822   3.661  50.489  1.00  0.00     0.049 A 
HETATM   13  C10 UNL     1      25.761   4.545  49.864  1.00  0.00     0.027 A 
HETATM   14  C13 UNL     1      23.736   2.956  49.704  1.00  0.00    -0.087 A 
HETATM   15  C14 UNL     1      24.540   3.610  49.100  1.00  0.00     0.041 A 
HETATM   16  C15 UNL     1      22.678   2.053  50.128  1.00  0.00     0.025 C 
HETATM   17  C16 UNL     1      21.925   1.522  51.118  1.00  0.00     0.014 C 
HETATM   18  C17 UNL     1      21.475   1.344  52.571  1.00  0.00     0.075 A 
HETATM   19  H3  UNL     1      19.172  -1.162  52.918  1.00  0.00     0.168 HD
HETATM   20  H7  UNL     1      25.278   0.678  51.968  1.00  0.00     0.159 HD
ENDROOT
BRANCH  13  21
HETATM   21  C11 UNL     1      26.880   4.247  48.997  1.00  0.00     0.111 C 
BRANCH  21  22
HETATM   22  C12 UNL     1      27.931   5.203  48.751  1.00  0.00     0.139 C 
HETATM   23  O2  UNL     1      29.051   4.924  48.200  1.00  0.00    -0.650 OA
BRANCH  22  24
HETATM   24  O3  UNL     1      28.327   6.526  48.870  1.00  0.00    -0.776 OA
HETATM   25  H15 UNL     1      29.100   6.801  49.459  1.00  0.00     0.167 HD
ENDBRANCH  22  24
ENDBRANCH  21  22
ENDBRANCH  13  21
TORSDOF 3
ENDMDL
MODEL 9
REMARK VINA RESULT:      -7.7      4.006      6.328
REMARK  3 active torsions:
REMARK  status: ('A' for Active; 'I' for Inactive)
REMARK    1  A    between atoms: C10_13  and  C11_14 
REMARK    2  A    between atoms: C11_14  and  C12_15 
REMARK    3  A    between atoms: C12_15  and  O3_17 
ROOT
HETATM    1  C1  UNL     1      22.900   6.951  48.034  1.00  0.00     0.059 C 
HETATM    2  C2  UNL     1      24.199   6.900  48.216  1.00  0.00    -0.001 A 
HETATM    3  N1  UNL     1      25.085   7.958  47.976  1.00  0.00    -0.330 N 
HETATM    4  C3  UNL     1      26.357   7.378  48.224  1.00  0.00     0.252 A 
HETATM    5  O1  UNL     1      27.439   8.052  48.105  1.00  0.00    -0.268 OA
HETATM    6  C4  UNL     1      26.331   5.960  48.621  1.00  0.00     0.018 A 
HETATM    7  C5  UNL     1      27.339   5.148  48.912  1.00  0.00     0.006 C 
HETATM    8  C6  UNL     1      26.732   3.813  49.240  1.00  0.00     0.147 C 
HETATM    9  N2  UNL     1      26.865   3.531  50.638  1.00  0.00    -0.392 N 
HETATM   10  C7  UNL     1      26.313   2.591  51.497  1.00  0.00    -0.010 C 
HETATM   11  C8  UNL     1      27.221   1.976  52.234  1.00  0.00     0.058 C 
HETATM   12  C9  UNL     1      24.839   2.261  51.736  1.00  0.00     0.049 A 
HETATM   13  C10 UNL     1      24.673   1.121  52.587  1.00  0.00     0.027 A 
HETATM   14  C13 UNL     1      24.127   3.572  52.000  1.00  0.00    -0.087 A 
HETATM   15  C14 UNL     1      24.010   2.689  52.804  1.00  0.00     0.041 A 
HETATM   16  C15 UNL     1      24.127   4.828  51.268  1.00  0.00     0.025 C 
HETATM   17  C16 UNL     1      24.396   5.519  50.136  1.00  0.00     0.014 C 
HETATM   18  C17 UNL     1      24.894   5.677  48.697  1.00  0.00     0.075 A 
HETATM   19  H3  UNL     1      24.920   8.945  47.686  1.00  0.00     0.168 HD
HETATM   20  H7  UNL     1      27.534   4.184  51.160  1.00  0.00     0.159 HD
ENDROOT
BRANCH  13  21
HETATM   21  C11 UNL     1      25.176   0.877  53.922  1.00  0.00     0.111 C 
BRANCH  21  22
HETATM   22  C12 UNL     1      25.434  -0.455  54.410  1.00  0.00     0.139 C 
HETATM   23  O2  UNL     1      26.301  -1.253  53.914  1.00  0.00    -0.650 OA
BRANCH  22  24
HETATM   24  O3  UNL     1      25.095  -1.416  55.348  1.00  0.00    -0.776 OA
HETATM   25  H15 UNL     1      24.871  -2.365  55.083  1.00  0.00     0.167 HD
ENDBRANCH  22  24
ENDBRANCH  21  22
ENDBRANCH  13  21
TORSDOF 3
ENDMDL
