MODEL 1
REMARK VINA RESULT:      -6.7      0.000      0.000
REMARK  6 active torsions:
REMARK  status: ('A' for Active; 'I' for Inactive)
REMARK    1  A    between atoms: O1_2  and  C2_3 
REMARK    2  A    between atoms: C8_11  and  O2_12 
REMARK    3  A    between atoms: O2_12  and  C9_13 
REMARK    4  A    between atoms: C9_13  and  C10_14 
REMARK    5  A    between atoms: C10_14  and  C11_15 
REMARK    6  A    between atoms: C11_15  and  N3_16 
ROOT
HETATM    1  C2  UNL     1      24.500   0.157  53.539  1.00  0.00     0.100 C 
HETATM    2  C3  UNL     1      25.404  -0.580  54.211  1.00  0.00     0.046 C 
HETATM    3  C4  UNL     1      26.492   0.219  54.705  1.00  0.00     0.186 A 
HETATM    4  N1  UNL     1      27.788  -0.234  54.947  1.00  0.00    -0.267 NA
HETATM    5  C5  UNL     1      28.598   0.704  54.526  1.00  0.00     0.228 A 
HETATM    6  N2  UNL     1      27.858   1.811  53.972  1.00  0.00    -0.244 NA
HETATM    7  C6  UNL     1      26.572   1.520  54.063  1.00  0.00     0.067 A 
HETATM    8  C7  UNL     1      25.550   2.323  53.440  1.00  0.00     0.069 C 
HETATM    9  C8  UNL     1      24.465   1.583  53.140  1.00  0.00     0.103 C 
ENDROOT
BRANCH   9  10
HETATM   10  O2  UNL     1      23.370   2.133  52.489  1.00  0.00    -0.348 OA
BRANCH  10  11
HETATM   11  C9  UNL     1      23.509   3.340  51.761  1.00  0.00     0.177 C 
BRANCH  11  12
HETATM   12  C10 UNL     1      23.475   3.002  50.272  1.00  0.00     0.057 C 
BRANCH  12  13
HETATM   13  C11 UNL     1      24.094   4.118  49.488  1.00  0.00     0.274 C 
BRANCH  13  14
HETATM   14  N3  UNL     1      25.414   4.502  49.930  1.00  0.00     0.088 N 
HETATM   15  C12 UNL     1      25.712   5.892  49.811  1.00  0.00     0.272 C 
HETATM   16  C13 UNL     1      26.613   5.952  48.597  1.00  0.00     0.032 C 
HETATM   17  C14 UNL     1      27.489   4.730  48.844  1.00  0.00     0.032 C 
HETATM   18  C15 UNL     1      26.461   3.719  49.376  1.00  0.00     0.272 C 
ENDBRANCH  13  14
ENDBRANCH  12  13
ENDBRANCH  11  12
ENDBRANCH  10  11
ENDBRANCH   9  10
BRANCH   1  19
HETATM   19  O1  UNL     1      23.375  -0.539  53.062  1.00  0.00    -0.353 OA
HETATM   20  C1  UNL     1      22.390  -1.051  53.909  1.00  0.00     0.210 C 
ENDBRANCH   1  19
TORSDOF 6
ENDMDL
MODEL 2
REMARK VINA RESULT:      -6.5      2.524      4.926
REMARK  6 active torsions:
REMARK  status: ('A' for Active; 'I' for Inactive)
REMARK    1  A    between atoms: O1_2  and  C2_3 
REMARK    2  A    between atoms: C8_11  and  O2_12 
REMARK    3  A    between atoms: O2_12  and  C9_13 
REMARK    4  A    between atoms: C9_13  and  C10_14 
REMARK    5  A    between atoms: C10_14  and  C11_15 
REMARK    6  A    between atoms: C11_15  and  N3_16 
ROOT
HETATM    1  C2  UNL     1      25.265   0.859  52.258  1.00  0.00     0.100 C 
HETATM    2  C3  UNL     1      26.567   1.157  52.075  1.00  0.00     0.046 C 
HETATM    3  C4  UNL     1      27.423   0.366  52.915  1.00  0.00     0.186 A 
HETATM    4  N1  UNL     1      28.684   0.744  53.374  1.00  0.00    -0.267 NA
HETATM    5  C5  UNL     1      28.762   0.351  54.622  1.00  0.00     0.228 A 
HETATM    6  N2  UNL     1      27.538  -0.289  55.035  1.00  0.00    -0.244 NA
HETATM    7  C6  UNL     1      26.709  -0.274  54.006  1.00  0.00     0.067 A 
HETATM    8  C7  UNL     1      25.327  -0.669  54.119  1.00  0.00     0.069 C 
HETATM    9  C8  UNL     1      24.565  -0.039  53.203  1.00  0.00     0.103 C 
ENDROOT
BRANCH   9  10
HETATM   10  O2  UNL     1      23.191  -0.225  53.153  1.00  0.00    -0.348 OA
BRANCH  10  11
HETATM   11  C9  UNL     1      22.509  -0.789  54.259  1.00  0.00     0.177 C 
BRANCH  11  12
HETATM   12  C10 UNL     1      21.250   0.038  54.513  1.00  0.00     0.057 C 
BRANCH  12  13
HETATM   13  C11 UNL     1      20.174  -0.377  53.558  1.00  0.00     0.274 C 
BRANCH  13  14
HETATM   14  N3  UNL     1      19.745   0.660  52.649  1.00  0.00     0.088 N 
HETATM   15  C12 UNL     1      19.710   0.282  51.274  1.00  0.00     0.272 C 
HETATM   16  C13 UNL     1      20.945   0.942  50.700  1.00  0.00     0.032 C 
HETATM   17  C14 UNL     1      20.883   2.296  51.398  1.00  0.00     0.032 C 
HETATM   18  C15 UNL     1      20.433   1.892  52.810  1.00  0.00     0.272 C 
ENDBRANCH  13  14
ENDBRANCH  12  13
ENDBRANCH  11  12
ENDBRANCH  10  11
ENDBRANCH   9  10
BRANCH   1  19
HETATM   19  O1  UNL     1      24.358   1.555  51.439  1.00  0.00    -0.353 OA
HETATM   20  C1  UNL     1      24.624   2.827  50.929  1.00  0.00     0.210 C 
ENDBRANCH   1  19
TORSDOF 6
ENDMDL
MODEL 3
REMARK VINA RESULT:      -6.5      0.613      1.086
REMARK  6 active torsions:
REMARK  status: ('A' for Active; 'I' for Inactive)
REMARK    1  A    between atoms: O1_2  and  C2_3 
REMARK    2  A    between atoms: C8_11  and  O2_12 
REMARK    3  A    between atoms: O2_12  and  C9_13 
REMARK    4  A    between atoms: C9_13  and  C10_14 
REMARK    5  A    between atoms: C10_14  and  C11_15 
REMARK    6  A    between atoms: C11_15  and  N3_16 
ROOT
HETATM    1  C2  UNL     1      24.439   0.108  53.583  1.00  0.00     0.100 C 
HETATM    2  C3  UNL     1      25.353  -0.662  54.206  1.00  0.00     0.046 C 
HETATM    3  C4  UNL     1      26.436   0.115  54.742  1.00  0.00     0.186 A 
HETATM    4  N1  UNL     1      27.737  -0.340  54.951  1.00  0.00    -0.267 NA
HETATM    5  C5  UNL     1      28.538   0.629  54.585  1.00  0.00     0.228 A 
HETATM    6  N2  UNL     1      27.785   1.760  54.102  1.00  0.00    -0.244 NA
HETATM    7  C6  UNL     1      26.502   1.453  54.181  1.00  0.00     0.067 A 
HETATM    8  C7  UNL     1      25.471   2.285  53.612  1.00  0.00     0.069 C 
HETATM    9  C8  UNL     1      24.390   1.555  53.272  1.00  0.00     0.103 C 
ENDROOT
BRANCH   9  10
HETATM   10  O2  UNL     1      23.288   2.134  52.660  1.00  0.00    -0.348 OA
BRANCH  10  11
HETATM   11  C9  UNL     1      23.250   3.532  52.442  1.00  0.00     0.177 C 
BRANCH  11  12
HETATM   12  C10 UNL     1      22.973   3.775  50.960  1.00  0.00     0.057 C 
BRANCH  12  13
HETATM   13  C11 UNL     1      23.787   4.935  50.478  1.00  0.00     0.274 C 
BRANCH  13  14
HETATM   14  N3  UNL     1      24.622   4.650  49.336  1.00  0.00     0.088 N 
HETATM   15  C12 UNL     1      25.179   3.337  49.306  1.00  0.00     0.272 C 
HETATM   16  C13 UNL     1      26.619   3.559  49.712  1.00  0.00     0.032 C 
HETATM   17  C14 UNL     1      26.933   4.828  48.927  1.00  0.00     0.032 C 
HETATM   18  C15 UNL     1      25.629   5.622  49.096  1.00  0.00     0.272 C 
ENDBRANCH  13  14
ENDBRANCH  12  13
ENDBRANCH  11  12
ENDBRANCH  10  11
ENDBRANCH   9  10
BRANCH   1  19
HETATM   19  O1  UNL     1      23.318  -0.568  53.069  1.00  0.00    -0.353 OA
HETATM   20  C1  UNL     1      22.309  -1.083  53.886  1.00  0.00     0.210 C 
ENDBRANCH   1  19
TORSDOF 6
ENDMDL
MODEL 4
REMARK VINA RESULT:      -6.2      2.845      5.071
REMARK  6 active torsions:
REMARK  status: ('A' for Active; 'I' for Inactive)
REMARK    1  A    between atoms: O1_2  and  C2_3 
REMARK    2  A    between atoms: C8_11  and  O2_12 
REMARK    3  A    between atoms: O2_12  and  C9_13 
REMARK    4  A    between atoms: C9_13  and  C10_14 
REMARK    5  A    between atoms: C10_14  and  C11_15 
REMARK    6  A    between atoms: C11_15  and  N3_16 
ROOT
HETATM    1  C2  UNL     1      24.342  -0.219  53.761  1.00  0.00     0.100 C 
HETATM    2  C3  UNL     1      25.282  -0.698  54.599  1.00  0.00     0.046 C 
HETATM    3  C4  UNL     1      26.467   0.115  54.599  1.00  0.00     0.186 A 
HETATM    4  N1  UNL     1      27.756  -0.329  54.892  1.00  0.00    -0.267 NA
HETATM    5  C5  UNL     1      28.557   0.256  54.036  1.00  0.00     0.228 A 
HETATM    6  N2  UNL     1      27.815   1.100  53.133  1.00  0.00    -0.244 NA
HETATM    7  C6  UNL     1      26.537   1.011  53.458  1.00  0.00     0.067 A 
HETATM    8  C7  UNL     1      25.490   1.582  52.648  1.00  0.00     0.069 C 
HETATM    9  C8  UNL     1      24.336   0.904  52.795  1.00  0.00     0.103 C 
ENDROOT
BRANCH   9  10
HETATM   10  O2  UNL     1      23.199   1.242  52.075  1.00  0.00    -0.348 OA
BRANCH  10  11
HETATM   11  C9  UNL     1      22.601   2.514  52.250  1.00  0.00     0.177 C 
BRANCH  11  12
HETATM   12  C10 UNL     1      21.095   2.362  52.047  1.00  0.00     0.057 C 
BRANCH  12  13
HETATM   13  C11 UNL     1      20.552   1.366  53.025  1.00  0.00     0.274 C 
BRANCH  13  14
HETATM   14  N3  UNL     1      20.038   0.157  52.428  1.00  0.00     0.088 N 
HETATM   15  C12 UNL     1      19.457   0.321  51.135  1.00  0.00     0.272 C 
HETATM   16  C13 UNL     1      17.971   0.258  51.410  1.00  0.00     0.032 C 
HETATM   17  C14 UNL     1      17.926  -0.881  52.422  1.00  0.00     0.032 C 
HETATM   18  C15 UNL     1      19.170  -0.583  53.273  1.00  0.00     0.272 C 
ENDBRANCH  13  14
ENDBRANCH  12  13
ENDBRANCH  11  12
ENDBRANCH  10  11
ENDBRANCH   9  10
BRANCH   1  19
HETATM   19  O1  UNL     1      23.128  -0.929  53.734  1.00  0.00    -0.353 OA
HETATM   20  C1  UNL     1      22.443  -1.296  54.895  1.00  0.00     0.210 C 
ENDBRANCH   1  19
TORSDOF 6
ENDMDL
MODEL 5
REMARK VINA RESULT:      -6.1      2.157      3.460
REMARK  6 active torsions:
REMARK  status: ('A' for Active; 'I' for Inactive)
REMARK    1  A    between atoms: O1_2  and  C2_3 
REMARK    2  A    between atoms: C8_11  and  O2_12 
REMARK    3  A    between atoms: O2_12  and  C9_13 
REMARK    4  A    between atoms: C9_13  and  C10_14 
REMARK    5  A    between atoms: C10_14  and  C11_15 
REMARK    6  A    between atoms: C11_15  and  N3_16 
ROOT
HETATM    1  C2  UNL     1      24.434   0.210  53.454  1.00  0.00     0.100 C 
HETATM    2  C3  UNL     1      25.252  -0.615  54.135  1.00  0.00     0.046 C 
HETATM    3  C4  UNL     1      26.359   0.087  54.724  1.00  0.00     0.186 A 
HETATM    4  N1  UNL     1      27.608  -0.460  55.010  1.00  0.00    -0.267 NA
HETATM    5  C5  UNL     1      28.498   0.442  54.680  1.00  0.00     0.228 A 
HETATM    6  N2  UNL     1      27.860   1.619  54.145  1.00  0.00    -0.244 NA
HETATM    7  C6  UNL     1      26.555   1.409  54.154  1.00  0.00     0.067 A 
HETATM    8  C7  UNL     1      25.621   2.306  53.519  1.00  0.00     0.069 C 
HETATM    9  C8  UNL     1      24.510   1.653  53.126  1.00  0.00     0.103 C 
ENDROOT
BRANCH   9  10
HETATM   10  O2  UNL     1      23.490   2.303  52.447  1.00  0.00    -0.348 OA
BRANCH  10  11
HETATM   11  C9  UNL     1      23.796   3.322  51.513  1.00  0.00     0.177 C 
BRANCH  11  12
HETATM   12  C10 UNL     1      23.494   2.789  50.113  1.00  0.00     0.057 C 
BRANCH  12  13
HETATM   13  C11 UNL     1      22.205   3.369  49.621  1.00  0.00     0.274 C 
BRANCH  13  14
HETATM   14  N3  UNL     1      21.107   2.433  49.564  1.00  0.00     0.088 N 
HETATM   15  C12 UNL     1      20.035   2.701  50.465  1.00  0.00     0.272 C 
HETATM   16  C13 UNL     1      20.237   1.677  51.561  1.00  0.00     0.032 C 
HETATM   17  C14 UNL     1      20.599   0.452  50.729  1.00  0.00     0.032 C 
HETATM   18  C15 UNL     1      21.502   1.071  49.651  1.00  0.00     0.272 C 
ENDBRANCH  13  14
ENDBRANCH  12  13
ENDBRANCH  11  12
ENDBRANCH  10  11
ENDBRANCH   9  10
BRANCH   1  19
HETATM   19  O1  UNL     1      23.296  -0.388  52.884  1.00  0.00    -0.353 OA
HETATM   20  C1  UNL     1      22.322  -1.034  53.648  1.00  0.00     0.210 C 
ENDBRANCH   1  19
TORSDOF 6
ENDMDL
MODEL 6
REMARK VINA RESULT:      -5.8      3.049      6.350
REMARK  6 active torsions:
REMARK  status: ('A' for Active; 'I' for Inactive)
REMARK    1  A    between atoms: O1_2  and  C2_3 
REMARK    2  A    between atoms: C8_11  and  O2_12 
REMARK    3  A    between atoms: O2_12  and  C9_13 
REMARK    4  A    between atoms: C9_13  and  C10_14 
REMARK    5  A    between atoms: C10_14  and  C11_15 
REMARK    6  A    between atoms: C11_15  and  N3_16 
ROOT
HETATM    1  C2  UNL     1      21.474   0.247  52.644  1.00  0.00     0.100 C 
HETATM    2  C3  UNL     1      20.201   0.050  52.252  1.00  0.00     0.046 C 
HETATM    3  C4  UNL     1      19.989   0.446  50.887  1.00  0.00     0.186 A 
HETATM    4  N1  UNL     1      18.779   0.876  50.345  1.00  0.00    -0.267 NA
HETATM    5  C5  UNL     1      19.060   1.878  49.549  1.00  0.00     0.228 A 
HETATM    6  N2  UNL     1      20.475   2.156  49.553  1.00  0.00    -0.244 NA
HETATM    7  C6  UNL     1      21.051   1.297  50.377  1.00  0.00     0.067 A 
HETATM    8  C7  UNL     1      22.436   1.404  50.762  1.00  0.00     0.069 C 
HETATM    9  C8  UNL     1      22.644   0.868  51.981  1.00  0.00     0.103 C 
ENDROOT
BRANCH   9  10
HETATM   10  O2  UNL     1      23.894   0.898  52.582  1.00  0.00    -0.348 OA
BRANCH  10  11
HETATM   11  C9  UNL     1      25.030   1.295  51.836  1.00  0.00     0.177 C 
BRANCH  11  12
HETATM   12  C10 UNL     1      26.194   0.384  52.222  1.00  0.00     0.057 C 
BRANCH  12  13
HETATM   13  C11 UNL     1      26.482   0.528  53.685  1.00  0.00     0.274 C 
BRANCH  13  14
HETATM   14  N3  UNL     1      27.530  -0.334  54.178  1.00  0.00     0.088 N 
HETATM   15  C12 UNL     1      28.616   0.337  54.815  1.00  0.00     0.272 C 
HETATM   16  C13 UNL     1      29.713   0.291  53.774  1.00  0.00     0.032 C 
HETATM   17  C14 UNL     1      29.544  -1.133  53.258  1.00  0.00     0.032 C 
HETATM   18  C15 UNL     1      28.014  -1.265  53.220  1.00  0.00     0.272 C 
ENDBRANCH  13  14
ENDBRANCH  12  13
ENDBRANCH  11  12
ENDBRANCH  10  11
ENDBRANCH   9  10
BRANCH   1  19
HETATM   19  O1  UNL     1      21.781  -0.160  53.955  1.00  0.00    -0.353 OA
HETATM   20  C1  UNL     1      21.331  -1.367  54.495  1.00  0.00     0.210 C 
ENDBRANCH   1  19
TORSDOF 6
ENDMDL
MODEL 7
REMARK VINA RESULT:      -5.8      1.756      2.136
REMARK  6 active torsions:
REMARK  status: ('A' for Active; 'I' for Inactive)
REMARK    1  A    between atoms: O1_2  and  C2_3 
REMARK    2  A    between atoms: C8_11  and  O2_12 
REMARK    3  A    between atoms: O2_12  and  C9_13 
REMARK    4  A    between atoms: C9_13  and  C10_14 
REMARK    5  A    between atoms: C10_14  and  C11_15 
REMARK    6  A    between atoms: C11_15  and  N3_16 
ROOT
HETATM    1  C2  UNL     1      23.147   0.297  52.997  1.00  0.00     0.100 C 
HETATM    2  C3  UNL     1      23.893  -0.518  53.768  1.00  0.00     0.046 C 
HETATM    3  C4  UNL     1      25.298  -0.242  53.641  1.00  0.00     0.186 A 
HETATM    4  N1  UNL     1      26.327  -1.161  53.839  1.00  0.00    -0.267 NA
HETATM    5  C5  UNL     1      27.213  -0.940  52.900  1.00  0.00     0.228 A 
HETATM    6  N2  UNL     1      26.786   0.131  52.034  1.00  0.00    -0.244 NA
HETATM    7  C6  UNL     1      25.612   0.556  52.469  1.00  0.00     0.067 A 
HETATM    8  C7  UNL     1      24.807   1.498  51.730  1.00  0.00     0.069 C 
HETATM    9  C8  UNL     1      23.497   1.332  51.997  1.00  0.00     0.103 C 
ENDROOT
BRANCH   9  10
HETATM   10  O2  UNL     1      22.526   2.095  51.365  1.00  0.00    -0.348 OA
BRANCH  10  11
HETATM   11  C9  UNL     1      22.633   2.373  49.980  1.00  0.00     0.177 C 
BRANCH  11  12
HETATM   12  C10 UNL     1      22.430   3.873  49.780  1.00  0.00     0.057 C 
BRANCH  12  13
HETATM   13  C11 UNL     1      23.686   4.484  49.239  1.00  0.00     0.274 C 
BRANCH  13  14
HETATM   14  N3  UNL     1      24.533   5.095  50.235  1.00  0.00     0.088 N 
HETATM   15  C12 UNL     1      23.845   5.825  51.249  1.00  0.00     0.272 C 
HETATM   16  C13 UNL     1      24.067   7.268  50.853  1.00  0.00     0.032 C 
HETATM   17  C14 UNL     1      25.532   7.216  50.437  1.00  0.00     0.032 C 
HETATM   18  C15 UNL     1      25.593   5.872  49.696  1.00  0.00     0.272 C 
ENDBRANCH  13  14
ENDBRANCH  12  13
ENDBRANCH  11  12
ENDBRANCH  10  11
ENDBRANCH   9  10
BRANCH   1  19
HETATM   19  O1  UNL     1      21.754   0.127  53.096  1.00  0.00    -0.353 OA
HETATM   20  C1  UNL     1      21.078   0.144  54.318  1.00  0.00     0.210 C 
ENDBRANCH   1  19
TORSDOF 6
ENDMDL
MODEL 8
REMARK VINA RESULT:      -5.7      1.097      1.281
REMARK  6 active torsions:
REMARK  status: ('A' for Active; 'I' for Inactive)
REMARK    1  A    between atoms: O1_2  and  C2_3 
REMARK    2  A    between atoms: C8_11  and  O2_12 
REMARK    3  A    between atoms: O2_12  and  C9_13 
REMARK    4  A    between atoms: C9_13  and  C10_14 
REMARK    5  A    between atoms: C10_14  and  C11_15 
REMARK    6  A    between atoms: C11_15  and  N3_16 
ROOT
HETATM    1  C2  UNL     1      25.204   0.709  53.484  1.00  0.00     0.100 C 
HETATM    2  C3  UNL     1      25.985  -0.090  54.237  1.00  0.00     0.046 C 
HETATM    3  C4  UNL     1      27.286   0.479  54.455  1.00  0.00     0.186 A 
HETATM    4  N1  UNL     1      28.456  -0.238  54.696  1.00  0.00    -0.267 NA
HETATM    5  C5  UNL     1      29.406   0.353  54.015  1.00  0.00     0.228 A 
HETATM    6  N2  UNL     1      28.886   1.480  53.282  1.00  0.00    -0.244 NA
HETATM    7  C6  UNL     1      27.590   1.559  53.532  1.00  0.00     0.067 A 
HETATM    8  C7  UNL     1      26.718   2.461  52.821  1.00  0.00     0.069 C 
HETATM    9  C8  UNL     1      25.459   1.985  52.777  1.00  0.00     0.103 C 
ENDROOT
BRANCH   9  10
HETATM   10  O2  UNL     1      24.452   2.660  52.102  1.00  0.00    -0.348 OA
BRANCH  10  11
HETATM   11  C9  UNL     1      24.174   2.349  50.749  1.00  0.00     0.177 C 
BRANCH  11  12
HETATM   12  C10 UNL     1      24.950   3.326  49.867  1.00  0.00     0.057 C 
BRANCH  12  13
HETATM   13  C11 UNL     1      24.728   4.726  50.351  1.00  0.00     0.274 C 
BRANCH  13  14
HETATM   14  N3  UNL     1      25.823   5.631  50.092  1.00  0.00     0.088 N 
HETATM   15  C12 UNL     1      25.470   7.013  50.059  1.00  0.00     0.272 C 
HETATM   16  C13 UNL     1      25.470   7.337  48.582  1.00  0.00     0.032 C 
HETATM   17  C14 UNL     1      26.715   6.582  48.133  1.00  0.00     0.032 C 
HETATM   18  C15 UNL     1      26.600   5.289  48.954  1.00  0.00     0.272 C 
ENDBRANCH  13  14
ENDBRANCH  12  13
ENDBRANCH  11  12
ENDBRANCH  10  11
ENDBRANCH   9  10
BRANCH   1  19
HETATM   19  O1  UNL     1      23.893   0.249  53.261  1.00  0.00    -0.353 OA
HETATM   20  C1  UNL     1      23.296  -0.737  54.049  1.00  0.00     0.210 C 
ENDBRANCH   1  19
TORSDOF 6
ENDMDL
MODEL 9
REMARK VINA RESULT:      -5.6      2.510      3.718
REMARK  6 active torsions:
REMARK  status: ('A' for Active; 'I' for Inactive)
REMARK    1  A    between atoms: O1_2  and  C2_3 
REMARK    2  A    between atoms: C8_11  and  O2_12 
REMARK    3  A    between atoms: O2_12  and  C9_13 
REMARK    4  A    between atoms: C9_13  and  C10_14 
REMARK    5  A    between atoms: C10_14  and  C11_15 
REMARK    6  A    between atoms: C11_15  and  N3_16 
ROOT
HETATM    1  C2  UNL     1      24.496   0.844  53.190  1.00  0.00     0.100 C 
HETATM    2  C3  UNL     1      24.190  -0.430  53.503  1.00  0.00     0.046 C 
HETATM    3  C4  UNL     1      22.800  -0.720  53.281  1.00  0.00     0.186 A 
HETATM    4  N1  UNL     1      22.054  -1.685  53.957  1.00  0.00    -0.267 NA
HETATM    5  C5  UNL     1      20.881  -1.154  54.195  1.00  0.00     0.228 A 
HETATM    6  N2  UNL     1      20.819   0.197  53.694  1.00  0.00    -0.244 NA
HETATM    7  C6  UNL     1      21.989   0.478  53.147  1.00  0.00     0.067 A 
HETATM    8  C7  UNL     1      22.340   1.805  52.709  1.00  0.00     0.069 C 
HETATM    9  C8  UNL     1      23.672   1.999  52.762  1.00  0.00     0.103 C 
ENDROOT
BRANCH   9  10
HETATM   10  O2  UNL     1      24.241   3.220  52.433  1.00  0.00    -0.348 OA
BRANCH  10  11
HETATM   11  C9  UNL     1      23.550   4.424  52.715  1.00  0.00     0.177 C 
BRANCH  11  12
HETATM   12  C10 UNL     1      23.823   5.406  51.577  1.00  0.00     0.057 C 
BRANCH  12  13
HETATM   13  C11 UNL     1      23.240   4.876  50.303  1.00  0.00     0.274 C 
BRANCH  13  14
HETATM   14  N3  UNL     1      24.192   4.714  49.230  1.00  0.00     0.088 N 
HETATM   15  C12 UNL     1      24.765   3.412  49.122  1.00  0.00     0.272 C 
HETATM   16  C13 UNL     1      26.154   3.595  49.694  1.00  0.00     0.032 C 
HETATM   17  C14 UNL     1      26.529   4.939  49.082  1.00  0.00     0.032 C 
HETATM   18  C15 UNL     1      25.204   5.708  49.197  1.00  0.00     0.272 C 
ENDBRANCH  13  14
ENDBRANCH  12  13
ENDBRANCH  11  12
ENDBRANCH  10  11
ENDBRANCH   9  10
BRANCH   1  19
HETATM   19  O1  UNL     1      25.849   1.201  53.331  1.00  0.00    -0.353 OA
HETATM   20  C1  UNL     1      26.845   0.737  52.469  1.00  0.00     0.210 C 
ENDBRANCH   1  19
TORSDOF 6
ENDMDL
