MODEL 1
REMARK VINA RESULT:      -9.0      0.000      0.000
REMARK  3 active torsions:
REMARK  status: ('A' for Active; 'I' for Inactive)
REMARK    1  A    between atoms: O1_1  and  C1_2 
REMARK    2  A    between atoms: C4_5  and  C5_6 
REMARK    3  A    between atoms: C7_8  and  C8_9 
ROOT
HETATM    1  C5  UNL     1      23.544   0.851  53.818  1.00  0.00     0.234 C 
HETATM    2  C6  UNL     1      23.672   2.091  53.000  1.00  0.00     0.068 C 
HETATM    3  C7  UNL     1      25.164   2.373  52.740  1.00  0.00     0.116 C 
HETATM    4  N1  UNL     1      25.942   1.092  52.718  1.00  0.00    -0.356 N 
HETATM    5  C14 UNL     1      26.252  -0.245  53.662  1.00  0.00     0.412 A 
HETATM    6  C15 UNL     1      26.361   0.061  55.068  1.00  0.00     0.184 A 
HETATM    7  C16 UNL     1      26.381  -0.468  53.852  1.00  0.00     0.434 A 
HETATM    8  N2  UNL     1      26.426  -1.018  52.722  1.00  0.00    -0.131 N 
HETATM    9  C17 UNL     1      26.800  -2.107  52.099  1.00  0.00     0.408 A 
HETATM   10  N3  UNL     1      26.348  -0.926  52.510  1.00  0.00     0.154 N 
HETATM   11  N4  UNL     1      24.703  -0.052  53.444  1.00  0.00     0.052 N 
HETATM   12  H12 UNL     1      26.327   1.338  51.698  1.00  0.00     0.158 HD
HETATM   13  H15 UNL     1      23.884  -0.371  52.673  1.00  0.00     0.291 HD
ENDROOT
BRANCH   1  14
HETATM   14  C4  UNL     1      22.378   0.057  53.850  1.00  0.00    -0.027 A 
HETATM   15  C3  UNL     1      21.246   0.734  53.320  1.00  0.00     0.012 A 
HETATM   16  C2  UNL     1      20.045  -0.008  53.341  1.00  0.00     0.037 A 
HETATM   17  C1  UNL     1      19.870  -1.343  53.833  1.00  0.00     0.065 A 
HETATM   18  C19 UNL     1      21.053  -1.800  54.294  1.00  0.00     0.037 A 
HETATM   19  C18 UNL     1      22.265  -1.192  54.330  1.00  0.00     0.012 A 
BRANCH  17  20
HETATM   20  O1  UNL     1      18.661  -1.948  53.793  1.00  0.00    -0.361 OA
HETATM   21  H1  UNL     1      18.487  -2.928  53.659  1.00  0.00     0.217 HD
ENDBRANCH  17  20
ENDBRANCH   1  14
BRANCH   3  22
HETATM   22  C8  UNL     1      25.363   3.132  51.526  1.00  0.00    -0.036 A 
HETATM   23  C9  UNL     1      24.521   4.129  51.091  1.00  0.00     0.012 A 
HETATM   24  C10 UNL     1      24.714   4.945  49.944  1.00  0.00     0.043 A 
HETATM   25  C11 UNL     1      25.888   4.580  49.316  1.00  0.00     0.116 A 
HETATM   26  F1  UNL     1      26.173   5.340  48.193  1.00  0.00    -0.206 F 
HETATM   27  C12 UNL     1      26.773   3.606  49.684  1.00  0.00     0.043 A 
HETATM   28  C13 UNL     1      26.505   2.879  50.798  1.00  0.00     0.012 A 
ENDBRANCH   3  22
TORSDOF 3
ENDMDL
MODEL 2
REMARK VINA RESULT:      -8.7      3.861      5.618
REMARK  3 active torsions:
REMARK  status: ('A' for Active; 'I' for Inactive)
REMARK    1  A    between atoms: O1_1  and  C1_2 
REMARK    2  A    between atoms: C4_5  and  C5_6 
REMARK    3  A    between atoms: C7_8  and  C8_9 
ROOT
HETATM    1  C5  UNL     1      26.023   2.108  50.783  1.00  0.00     0.234 C 
HETATM    2  C6  UNL     1      26.799   2.975  49.850  1.00  0.00     0.068 C 
HETATM    3  C7  UNL     1      25.853   4.019  49.226  1.00  0.00     0.116 C 
HETATM    4  N1  UNL     1      24.732   4.339  50.169  1.00  0.00    -0.356 N 
HETATM    5  C14 UNL     1      23.514   3.592  51.024  1.00  0.00     0.412 A 
HETATM    6  C15 UNL     1      22.901   2.499  50.308  1.00  0.00     0.184 A 
HETATM    7  C16 UNL     1      23.234   3.482  51.134  1.00  0.00     0.434 A 
HETATM    8  N2  UNL     1      23.499   4.405  51.946  1.00  0.00    -0.131 N 
HETATM    9  C17 UNL     1      23.052   5.030  53.007  1.00  0.00     0.408 A 
HETATM   10  N3  UNL     1      23.695   4.549  51.947  1.00  0.00     0.154 N 
HETATM   11  N4  UNL     1      24.916   2.962  51.369  1.00  0.00     0.052 N 
HETATM   12  H12 UNL     1      24.999   5.423  50.124  1.00  0.00     0.158 HD
HETATM   13  H15 UNL     1      25.790   3.141  52.124  1.00  0.00     0.291 HD
ENDROOT
BRANCH   1  14
HETATM   14  C4  UNL     1      26.610   1.383  51.842  1.00  0.00    -0.027 A 
HETATM   15  C3  UNL     1      27.419   2.201  52.676  1.00  0.00     0.012 A 
HETATM   16  C2  UNL     1      28.045   1.526  53.746  1.00  0.00     0.037 A 
HETATM   17  C1  UNL     1      27.940   0.131  54.058  1.00  0.00     0.065 A 
HETATM   18  C19 UNL     1      27.138  -0.464  53.150  1.00  0.00     0.037 A 
HETATM   19  C18 UNL     1      26.484   0.069  52.088  1.00  0.00     0.012 A 
BRANCH  17  20
HETATM   20  O1  UNL     1      28.590  -0.397  55.119  1.00  0.00    -0.361 OA
HETATM   21  H1  UNL     1      28.229  -0.502  56.051  1.00  0.00     0.217 HD
ENDBRANCH  17  20
ENDBRANCH   1  14
BRANCH   3  22
HETATM   22  C8  UNL     1      26.563   5.213  48.825  1.00  0.00    -0.036 A 
HETATM   23  C9  UNL     1      26.003   6.469  48.790  1.00  0.00     0.012 A 
HETATM   24  C10 UNL     1      26.680   7.677  48.470  1.00  0.00     0.043 A 
HETATM   25  C11 UNL     1      28.002   7.399  48.189  1.00  0.00     0.116 A 
HETATM   26  F1  UNL     1      28.751   8.525  47.885  1.00  0.00    -0.206 F 
HETATM   27  C12 UNL     1      28.630   6.185  48.202  1.00  0.00     0.043 A 
HETATM   28  C13 UNL     1      27.901   5.087  48.523  1.00  0.00     0.012 A 
ENDBRANCH   3  22
TORSDOF 3
ENDMDL
MODEL 3
REMARK VINA RESULT:      -8.6      2.755      4.522
REMARK  3 active torsions:
REMARK  status: ('A' for Active; 'I' for Inactive)
REMARK    1  A    between atoms: O1_1  and  C1_2 
REMARK    2  A    between atoms: C4_5  and  C5_6 
REMARK    3  A    between atoms: C7_8  and  C8_9 
ROOT
HETATM    1  C5  UNL     1      22.854   0.296  51.938  1.00  0.00     0.234 C 
HETATM    2  C6  UNL     1      24.215  -0.035  52.449  1.00  0.00     0.068 C 
HETATM    3  C7  UNL     1      25.211   1.035  51.964  1.00  0.00     0.116 C 
HETATM    4  N1  UNL     1      24.518   2.352  51.785  1.00  0.00    -0.356 N 
HETATM    5  C14 UNL     1      23.231   3.032  50.976  1.00  0.00     0.412 A 
HETATM    6  C15 UNL     1      23.043   2.497  49.649  1.00  0.00     0.184 A 
HETATM    7  C16 UNL     1      23.040   3.195  50.777  1.00  0.00     0.434 A 
HETATM    8  N2  UNL     1      23.002   3.897  51.820  1.00  0.00    -0.131 N 
HETATM    9  C17 UNL     1      22.492   4.989  52.332  1.00  0.00     0.408 A 
HETATM   10  N3  UNL     1      23.115   3.854  52.031  1.00  0.00     0.154 N 
HETATM   11  N4  UNL     1      22.766   1.807  51.850  1.00  0.00     0.052 N 
HETATM   12  H12 UNL     1      25.248   2.835  52.479  1.00  0.00     0.158 HD
HETATM   13  H15 UNL     1      22.402   1.603  52.942  1.00  0.00     0.291 HD
ENDROOT
BRANCH   1  14
HETATM   14  C4  UNL     1      21.663  -0.167  52.538  1.00  0.00    -0.027 A 
HETATM   15  C3  UNL     1      20.500   0.317  51.880  1.00  0.00     0.012 A 
HETATM   16  C2  UNL     1      19.277  -0.102  52.446  1.00  0.00     0.037 A 
HETATM   17  C1  UNL     1      19.108  -0.947  53.591  1.00  0.00     0.065 A 
HETATM   18  C19 UNL     1      20.323  -1.290  54.069  1.00  0.00     0.037 A 
HETATM   19  C18 UNL     1      21.558  -0.956  53.619  1.00  0.00     0.012 A 
BRANCH  17  20
HETATM   20  O1  UNL     1      17.875  -1.280  54.035  1.00  0.00    -0.361 OA
HETATM   21  H1  UNL     1      17.553  -1.252  54.987  1.00  0.00     0.217 HD
ENDBRANCH  17  20
ENDBRANCH   1  14
BRANCH   3  22
HETATM   22  C8  UNL     1      26.347   1.152  52.851  1.00  0.00    -0.036 A 
HETATM   23  C9  UNL     1      26.674   0.227  53.814  1.00  0.00     0.012 A 
HETATM   24  C10 UNL     1      27.816   0.267  54.659  1.00  0.00     0.043 A 
HETATM   25  C11 UNL     1      28.558   1.394  54.369  1.00  0.00     0.116 A 
HETATM   26  F1  UNL     1      29.710   1.508  55.132  1.00  0.00    -0.206 F 
HETATM   27  C12 UNL     1      28.301   2.356  53.433  1.00  0.00     0.043 A 
HETATM   28  C13 UNL     1      27.187   2.230  52.670  1.00  0.00     0.012 A 
ENDBRANCH   3  22
TORSDOF 3
ENDMDL
MODEL 4
REMARK VINA RESULT:      -8.5      4.063      6.906
REMARK  3 active torsions:
REMARK  status: ('A' for Active; 'I' for Inactive)
REMARK    1  A    between atoms: O1_1  and  C1_2 
REMARK    2  A    between atoms: C4_5  and  C5_6 
REMARK    3  A    between atoms: C7_8  and  C8_9 
ROOT
HETATM    1  C5  UNL     1      23.273   1.282  52.744  1.00  0.00     0.234 C 
HETATM    2  C6  UNL     1      22.013   0.635  53.208  1.00  0.00     0.068 C 
HETATM    3  C7  UNL     1      20.813   1.319  52.527  1.00  0.00     0.116 C 
HETATM    4  N1  UNL     1      21.210   1.857  51.185  1.00  0.00    -0.356 N 
HETATM    5  C14 UNL     1      22.323   2.877  50.483  1.00  0.00     0.412 A 
HETATM    6  C15 UNL     1      22.624   4.036  51.288  1.00  0.00     0.184 A 
HETATM    7  C16 UNL     1      22.476   3.119  50.340  1.00  0.00     0.434 A 
HETATM    8  N2  UNL     1      22.361   2.288  49.404  1.00  0.00    -0.131 N 
HETATM    9  C17 UNL     1      22.625   2.092  48.136  1.00  0.00     0.408 A 
HETATM   10  N3  UNL     1      22.259   2.067  49.414  1.00  0.00     0.154 N 
HETATM   11  N4  UNL     1      23.038   1.750  51.321  1.00  0.00     0.052 N 
HETATM   12  H12 UNL     1      20.391   1.268  50.703  1.00  0.00     0.158 HD
HETATM   13  H15 UNL     1      23.434   0.662  51.160  1.00  0.00     0.291 HD
ENDROOT
BRANCH   1  14
HETATM   14  C4  UNL     1      24.534   0.649  52.782  1.00  0.00    -0.027 A 
HETATM   15  C3  UNL     1      24.626  -0.315  53.822  1.00  0.00     0.012 A 
HETATM   16  C2  UNL     1      25.872  -0.972  53.918  1.00  0.00     0.037 A 
HETATM   17  C1  UNL     1      27.018  -0.760  53.084  1.00  0.00     0.065 A 
HETATM   18  C19 UNL     1      26.729   0.191  52.171  1.00  0.00     0.037 A 
HETATM   19  C18 UNL     1      25.582   0.889  51.978  1.00  0.00     0.012 A 
BRANCH  17  20
HETATM   20  O1  UNL     1      28.159  -1.460  53.278  1.00  0.00    -0.361 OA
HETATM   21  H1  UNL     1      29.096  -1.131  53.126  1.00  0.00     0.217 HD
ENDBRANCH  17  20
ENDBRANCH   1  14
BRANCH   3  22
HETATM   22  C8  UNL     1      19.676   0.431  52.425  1.00  0.00    -0.036 A 
HETATM   23  C9  UNL     1      19.389  -0.565  53.329  1.00  0.00     0.012 A 
HETATM   24  C10 UNL     1      18.249  -1.412  53.306  1.00  0.00     0.043 A 
HETATM   25  C11 UNL     1      17.461  -1.087  52.220  1.00  0.00     0.116 A 
HETATM   26  F1  UNL     1      16.309  -1.852  52.126  1.00  0.00    -0.206 F 
HETATM   27  C12 UNL     1      17.677  -0.118  51.281  1.00  0.00     0.043 A 
HETATM   28  C13 UNL     1      18.793   0.645  51.389  1.00  0.00     0.012 A 
ENDBRANCH   3  22
TORSDOF 3
ENDMDL
MODEL 5
REMARK VINA RESULT:      -8.3      3.027      4.787
REMARK  3 active torsions:
REMARK  status: ('A' for Active; 'I' for Inactive)
REMARK    1  A    between atoms: O1_1  and  C1_2 
REMARK    2  A    between atoms: C4_5  and  C5_6 
REMARK    3  A    between atoms: C7_8  and  C8_9 
ROOT
HETATM    1  C5  UNL     1      24.463   1.535  51.326  1.00  0.00     0.234 C 
HETATM    2  C6  UNL     1      25.302   2.704  50.934  1.00  0.00     0.068 C 
HETATM    3  C7  UNL     1      24.484   3.626  50.010  1.00  0.00     0.116 C 
HETATM    4  N1  UNL     1      23.023   3.523  50.329  1.00  0.00    -0.356 N 
HETATM    5  C14 UNL     1      21.807   2.392  50.451  1.00  0.00     0.412 A 
HETATM    6  C15 UNL     1      21.894   1.349  49.458  1.00  0.00     0.184 A 
HETATM    7  C16 UNL     1      21.549   2.207  50.408  1.00  0.00     0.434 A 
HETATM    8  N2  UNL     1      21.167   2.996  51.310  1.00  0.00    -0.131 N 
HETATM    9  C17 UNL     1      20.148   3.304  52.073  1.00  0.00     0.408 A 
HETATM   10  N3  UNL     1      21.295   3.175  51.414  1.00  0.00     0.154 N 
HETATM   11  N4  UNL     1      23.026   2.014  51.375  1.00  0.00     0.052 N 
HETATM   12  H12 UNL     1      22.976   4.628  50.491  1.00  0.00     0.158 HD
HETATM   13  H15 UNL     1      23.393   2.226  52.465  1.00  0.00     0.291 HD
ENDROOT
BRANCH   1  14
HETATM   14  C4  UNL     1      24.696   0.763  52.484  1.00  0.00    -0.027 A 
HETATM   15  C3  UNL     1      23.503   0.190  53.003  1.00  0.00     0.012 A 
HETATM   16  C2  UNL     1      23.673  -0.582  54.173  1.00  0.00     0.037 A 
HETATM   17  C1  UNL     1      24.903  -0.833  54.862  1.00  0.00     0.065 A 
HETATM   18  C19 UNL     1      25.907  -0.201  54.218  1.00  0.00     0.037 A 
HETATM   19  C18 UNL     1      25.873   0.563  53.098  1.00  0.00     0.012 A 
BRANCH  17  20
HETATM   20  O1  UNL     1      24.934  -1.598  55.977  1.00  0.00    -0.361 OA
HETATM   21  H1  UNL     1      24.149  -1.852  56.551  1.00  0.00     0.217 HD
ENDBRANCH  17  20
ENDBRANCH   1  14
BRANCH   3  22
HETATM   22  C8  UNL     1      24.943   4.996  50.076  1.00  0.00    -0.036 A 
HETATM   23  C9  UNL     1      25.976   5.501  49.322  1.00  0.00     0.012 A 
HETATM   24  C10 UNL     1      26.414   6.853  49.303  1.00  0.00     0.043 A 
HETATM   25  C11 UNL     1      25.641   7.595  50.173  1.00  0.00     0.116 A 
HETATM   26  F1  UNL     1      25.982   8.938  50.207  1.00  0.00    -0.206 F 
HETATM   27  C12 UNL     1      24.604   7.168  50.954  1.00  0.00     0.043 A 
HETATM   28  C13 UNL     1      24.255   5.858  50.901  1.00  0.00     0.012 A 
ENDBRANCH   3  22
TORSDOF 3
ENDMDL
MODEL 6
REMARK VINA RESULT:      -8.1      3.917      6.312
REMARK  3 active torsions:
REMARK  status: ('A' for Active; 'I' for Inactive)
REMARK    1  A    between atoms: O1_1  and  C1_2 
REMARK    2  A    between atoms: C4_5  and  C5_6 
REMARK    3  A    between atoms: C7_8  and  C8_9 
ROOT
HETATM    1  C5  UNL     1      22.955   4.038  52.374  1.00  0.00     0.234 C 
HETATM    2  C6  UNL     1      24.216   3.466  52.926  1.00  0.00     0.068 C 
HETATM    3  C7  UNL     1      24.062   1.939  53.061  1.00  0.00     0.116 C 
HETATM    4  N1  UNL     1      23.111   1.417  52.026  1.00  0.00    -0.356 N 
HETATM    5  C14 UNL     1      21.552   1.631  51.482  1.00  0.00     0.412 A 
HETATM    6  C15 UNL     1      20.609   1.896  52.541  1.00  0.00     0.184 A 
HETATM    7  C16 UNL     1      21.241   1.604  51.412  1.00  0.00     0.434 A 
HETATM    8  N2  UNL     1      21.788   1.317  50.316  1.00  0.00    -0.131 N 
HETATM    9  C17 UNL     1      21.539   0.963  49.080  1.00  0.00     0.408 A 
HETATM   10  N3  UNL     1      22.026   1.312  50.267  1.00  0.00     0.154 N 
HETATM   11  N4  UNL     1      22.351   2.989  51.461  1.00  0.00     0.052 N 
HETATM   12  H12 UNL     1      23.895   0.710  51.657  1.00  0.00     0.158 HD
HETATM   13  H15 UNL     1      23.044   3.583  50.729  1.00  0.00     0.291 HD
ENDROOT
BRANCH   1  14
HETATM   14  C4  UNL     1      22.891   5.277  51.701  1.00  0.00    -0.027 A 
HETATM   15  C3  UNL     1      21.577   5.585  51.254  1.00  0.00     0.012 A 
HETATM   16  C2  UNL     1      21.456   6.808  50.560  1.00  0.00     0.037 A 
HETATM   17  C1  UNL     1      22.506   7.740  50.275  1.00  0.00     0.065 A 
HETATM   18  C19 UNL     1      23.666   7.263  50.774  1.00  0.00     0.037 A 
HETATM   19  C18 UNL     1      23.911   6.114  51.453  1.00  0.00     0.012 A 
BRANCH  17  20
HETATM   20  O1  UNL     1      22.258   8.886  49.600  1.00  0.00    -0.361 OA
HETATM   21  H1  UNL     1      22.892   9.655  49.473  1.00  0.00     0.217 HD
ENDBRANCH  17  20
ENDBRANCH   1  14
BRANCH   3  22
HETATM   22  C8  UNL     1      25.338   1.263  52.994  1.00  0.00    -0.036 A 
HETATM   23  C9  UNL     1      26.544   1.859  53.281  1.00  0.00     0.012 A 
HETATM   24  C10 UNL     1      27.812   1.217  53.296  1.00  0.00     0.043 A 
HETATM   25  C11 UNL     1      27.652  -0.114  52.970  1.00  0.00     0.116 A 
HETATM   26  F1  UNL     1      28.839  -0.831  52.980  1.00  0.00    -0.206 F 
HETATM   27  C12 UNL     1      26.495  -0.777  52.673  1.00  0.00     0.043 A 
HETATM   28  C13 UNL     1      25.332  -0.080  52.688  1.00  0.00     0.012 A 
ENDBRANCH   3  22
TORSDOF 3
ENDMDL
MODEL 7
REMARK VINA RESULT:      -8.1      4.560      7.757
REMARK  3 active torsions:
REMARK  status: ('A' for Active; 'I' for Inactive)
REMARK    1  A    between atoms: O1_1  and  C1_2 
REMARK    2  A    between atoms: C4_5  and  C5_6 
REMARK    3  A    between atoms: C7_8  and  C8_9 
ROOT
HETATM    1  C5  UNL     1      23.582   4.155  51.088  1.00  0.00     0.234 C 
HETATM    2  C6  UNL     1      23.515   3.145  52.183  1.00  0.00     0.068 C 
HETATM    3  C7  UNL     1      22.054   2.693  52.365  1.00  0.00     0.116 C 
HETATM    4  N1  UNL     1      21.311   2.792  51.066  1.00  0.00    -0.356 N 
HETATM    5  C14 UNL     1      20.931   3.896  49.879  1.00  0.00     0.412 A 
HETATM    6  C15 UNL     1      20.664   5.218  50.393  1.00  0.00     0.184 A 
HETATM    7  C16 UNL     1      20.787   4.104  49.683  1.00  0.00     0.434 A 
HETATM    8  N2  UNL     1      20.874   3.075  48.965  1.00  0.00    -0.131 N 
HETATM    9  C17 UNL     1      20.593   2.596  47.780  1.00  0.00     0.408 A 
HETATM   10  N3  UNL     1      20.973   2.861  49.026  1.00  0.00     0.154 N 
HETATM   11  N4  UNL     1      22.489   3.811  50.095  1.00  0.00     0.052 N 
HETATM   12  H12 UNL     1      21.032   1.711  51.139  1.00  0.00     0.158 HD
HETATM   13  H15 UNL     1      23.392   3.187  49.693  1.00  0.00     0.291 HD
ENDROOT
BRANCH   1  14
HETATM   14  C4  UNL     1      24.755   4.431  50.353  1.00  0.00    -0.027 A 
HETATM   15  C3  UNL     1      25.606   3.298  50.246  1.00  0.00     0.012 A 
HETATM   16  C2  UNL     1      26.804   3.519  49.532  1.00  0.00     0.037 A 
HETATM   17  C1  UNL     1      27.225   4.746  48.925  1.00  0.00     0.065 A 
HETATM   18  C19 UNL     1      26.288   5.692  49.145  1.00  0.00     0.037 A 
HETATM   19  C18 UNL     1      25.107   5.606  49.807  1.00  0.00     0.012 A 
BRANCH  17  20
HETATM   20  O1  UNL     1      28.402   4.829  48.262  1.00  0.00    -0.361 OA
HETATM   21  H1  UNL     1      29.268   5.188  48.623  1.00  0.00     0.217 HD
ENDBRANCH  17  20
ENDBRANCH   1  14
BRANCH   3  22
HETATM   22  C8  UNL     1      21.970   1.360  52.921  1.00  0.00    -0.036 A 
HETATM   23  C9  UNL     1      23.045   0.516  53.070  1.00  0.00     0.012 A 
HETATM   24  C10 UNL     1      23.021  -0.770  53.673  1.00  0.00     0.043 A 
HETATM   25  C11 UNL     1      21.736  -1.055  54.089  1.00  0.00     0.116 A 
HETATM   26  F1  UNL     1      21.618  -2.288  54.711  1.00  0.00    -0.206 F 
HETATM   27  C12 UNL     1      20.621  -0.274  53.976  1.00  0.00     0.043 A 
HETATM   28  C13 UNL     1      20.743   0.942  53.388  1.00  0.00     0.012 A 
ENDBRANCH   3  22
TORSDOF 3
ENDMDL
MODEL 8
REMARK VINA RESULT:      -7.8      7.539     10.732
REMARK  3 active torsions:
REMARK  status: ('A' for Active; 'I' for Inactive)
REMARK    1  A    between atoms: O1_1  and  C1_2 
REMARK    2  A    between atoms: C4_5  and  C5_6 
REMARK    3  A    between atoms: C7_8  and  C8_9 
ROOT
HETATM    1  C5  UNL     1      29.336   6.550  47.479  1.00  0.00     0.234 C 
HETATM    2  C6  UNL     1      30.695   5.949  47.603  1.00  0.00     0.068 C 
HETATM    3  C7  UNL     1      31.747   6.982  47.158  1.00  0.00     0.116 C 
HETATM    4  N1  UNL     1      31.256   8.374  47.419  1.00  0.00    -0.356 N 
HETATM    5  C14 UNL     1      29.972   9.375  47.069  1.00  0.00     0.412 A 
HETATM    6  C15 UNL     1      29.462   9.204  45.730  1.00  0.00     0.184 A 
HETATM    7  C16 UNL     1      29.777   9.602  46.956  1.00  0.00     0.434 A 
HETATM    8  N2  UNL     1      30.043  10.029  48.108  1.00  0.00    -0.131 N 
HETATM    9  C17 UNL     1      29.819  11.015  48.940  1.00  0.00     0.408 A 
HETATM   10  N3  UNL     1      30.184   9.923  48.276  1.00  0.00     0.154 N 
HETATM   11  N4  UNL     1      29.479   8.036  47.739  1.00  0.00     0.052 N 
HETATM   12  H12 UNL     1      32.169   8.586  48.028  1.00  0.00     0.158 HD
HETATM   13  H15 UNL     1      29.291   7.616  48.813  1.00  0.00     0.291 HD
ENDROOT
BRANCH   1  14
HETATM   14  C4  UNL     1      28.214   6.096  48.206  1.00  0.00    -0.027 A 
HETATM   15  C3  UNL     1      27.336   7.155  48.564  1.00  0.00     0.012 A 
HETATM   16  C2  UNL     1      26.201   6.761  49.307  1.00  0.00     0.037 A 
HETATM   17  C1  UNL     1      25.866   5.431  49.719  1.00  0.00     0.065 A 
HETATM   18  C19 UNL     1      26.823   4.582  49.290  1.00  0.00     0.037 A 
HETATM   19  C18 UNL     1      27.948   4.833  48.575  1.00  0.00     0.012 A 
BRANCH  17  20
HETATM   20  O1  UNL     1      24.742   5.183  50.429  1.00  0.00    -0.361 OA
HETATM   21  H1  UNL     1      23.962   4.621  50.138  1.00  0.00     0.217 HD
ENDBRANCH  17  20
ENDBRANCH   1  14
BRANCH   3  22
HETATM   22  C8  UNL     1      33.028   6.747  47.786  1.00  0.00    -0.036 A 
HETATM   23  C9  UNL     1      33.500   5.505  48.138  1.00  0.00     0.012 A 
HETATM   24  C10 UNL     1      34.778   5.222  48.691  1.00  0.00     0.043 A 
HETATM   25  C11 UNL     1      35.485   6.399  48.831  1.00  0.00     0.116 A 
HETATM   26  F1  UNL     1      36.759   6.219  49.347  1.00  0.00    -0.206 F 
HETATM   27  C12 UNL     1      35.087   7.665  48.508  1.00  0.00     0.043 A 
HETATM   28  C13 UNL     1      33.850   7.836  47.980  1.00  0.00     0.012 A 
ENDBRANCH   3  22
TORSDOF 3
ENDMDL
MODEL 9
REMARK VINA RESULT:      -7.7      4.052      6.523
REMARK  3 active torsions:
REMARK  status: ('A' for Active; 'I' for Inactive)
REMARK    1  A    between atoms: O1_1  and  C1_2 
REMARK    2  A    between atoms: C4_5  and  C5_6 
REMARK    3  A    between atoms: C7_8  and  C8_9 
ROOT
HETATM    1  C5  UNL     1      22.742   3.429  50.278  1.00  0.00     0.234 C 
HETATM    2  C6  UNL     1      24.025   2.891  50.814  1.00  0.00     0.068 C 
HETATM    3  C7  UNL     1      23.768   2.250  52.191  1.00  0.00     0.116 C 
HETATM    4  N1  UNL     1      22.367   1.722  52.269  1.00  0.00    -0.356 N 
HETATM    5  C14 UNL     1      20.789   2.223  52.091  1.00  0.00     0.412 A 
HETATM    6  C15 UNL     1      20.554   3.558  52.584  1.00  0.00     0.184 A 
HETATM    7  C16 UNL     1      20.485   2.313  52.134  1.00  0.00     0.434 A 
HETATM    8  N2  UNL     1      20.360   1.134  51.713  1.00  0.00    -0.131 N 
HETATM    9  C17 UNL     1      19.477   0.213  51.419  1.00  0.00     0.408 A 
HETATM   10  N3  UNL     1      20.538   0.981  51.649  1.00  0.00     0.154 N 
HETATM   11  N4  UNL     1      21.632   2.537  50.797  1.00  0.00     0.052 N 
HETATM   12  H12 UNL     1      22.759   0.708  52.530  1.00  0.00     0.158 HD
HETATM   13  H15 UNL     1      21.927   2.006  49.798  1.00  0.00     0.291 HD
ENDROOT
BRANCH   1  14
HETATM   14  C4  UNL     1      22.504   3.652  48.905  1.00  0.00    -0.027 A 
HETATM   15  C3  UNL     1      22.324   2.441  48.182  1.00  0.00     0.012 A 
HETATM   16  C2  UNL     1      22.097   2.601  46.798  1.00  0.00     0.037 A 
HETATM   17  C1  UNL     1      22.032   3.838  46.078  1.00  0.00     0.065 A 
HETATM   18  C19 UNL     1      22.233   4.859  46.937  1.00  0.00     0.037 A 
HETATM   19  C18 UNL     1      22.460   4.837  48.275  1.00  0.00     0.012 A 
BRANCH  17  20
HETATM   20  O1  UNL     1      21.803   3.858  44.745  1.00  0.00    -0.361 OA
HETATM   21  H1  UNL     1      21.386   3.126  44.199  1.00  0.00     0.217 HD
ENDBRANCH  17  20
ENDBRANCH   1  14
BRANCH   3  22
HETATM   22  C8  UNL     1      24.738   1.220  52.493  1.00  0.00    -0.036 A 
HETATM   23  C9  UNL     1      24.543   0.224  53.420  1.00  0.00     0.012 A 
HETATM   24  C10 UNL     1      25.437  -0.846  53.698  1.00  0.00     0.043 A 
HETATM   25  C11 UNL     1      26.551  -0.731  52.891  1.00  0.00     0.116 A 
HETATM   26  F1  UNL     1      27.474  -1.747  53.078  1.00  0.00    -0.206 F 
HETATM   27  C12 UNL     1      26.817   0.225  51.952  1.00  0.00     0.043 A 
HETATM   28  C13 UNL     1      25.901   1.206  51.754  1.00  0.00     0.012 A 
ENDBRANCH   3  22
TORSDOF 3
ENDMDL
