MODEL 1
REMARK VINA RESULT:      -8.4      0.000      0.000
REMARK  3 active torsions:
REMARK  status: ('A' for Active; 'I' for Inactive)
REMARK       I    between atoms: N2_17  and  C16_18 
REMARK    1  A    between atoms: C16_18  and  C17_20 
REMARK    2  A    between atoms: C17_20  and  O2_21 
REMARK    3  A    between atoms: O2_21  and  C18_22 
ROOT
HETATM    1  C1  UNL     1      27.581  -0.803  52.705  1.00  0.00     0.048 C 
HETATM    2  C2  UNL     1      26.249  -0.223  52.894  1.00  0.00    -0.061 A 
HETATM    3  C3  UNL     1      25.983   0.995  52.322  1.00  0.00     0.014 A 
HETATM    4  C4  UNL     1      24.746   1.563  52.485  1.00  0.00    -0.054 A 
HETATM    5  C5  UNL     1      23.839   0.794  53.266  1.00  0.00     0.014 A 
HETATM    6  C6  UNL     1      24.102  -0.456  53.854  1.00  0.00    -0.057 A 
HETATM    7  C7  UNL     1      25.367  -0.957  53.641  1.00  0.00     0.013 A 
HETATM    8  C8  UNL     1      22.861  -0.928  54.563  1.00  0.00     0.038 C 
HETATM    9  C9  UNL     1      21.710  -0.909  53.539  1.00  0.00     0.005 C 
HETATM   10  C10 UNL     1      20.388  -1.127  54.174  1.00  0.00     0.002 C 
HETATM   11  C11 UNL     1      19.243  -1.063  53.244  1.00  0.00     0.030 C 
HETATM   12  C12 UNL     1      19.084   0.157  52.395  1.00  0.00     0.269 C 
HETATM   13  N1  UNL     1      20.049   0.208  51.370  1.00  0.00     0.083 N 
HETATM   14  C13 UNL     1      19.965   1.382  50.467  1.00  0.00     0.271 C 
HETATM   15  C14 UNL     1      20.903   1.131  49.311  1.00  0.00     0.050 C 
HETATM   16  C15 UNL     1      21.062   2.101  48.262  1.00  0.00     0.128 C 
HETATM   17  N2  UNL     1      21.599   3.414  48.406  1.00  0.00    -0.347 N 
HETATM   18  C16 UNL     1      21.136   4.730  48.573  1.00  0.00     0.243 C 
HETATM   19  O1  UNL     1      21.907   5.717  48.659  1.00  0.00    -0.271 OA
HETATM   20  C19 UNL     1      23.064   3.284  48.365  1.00  0.00     0.153 C 
HETATM   21  C20 UNL     1      23.694   3.297  49.711  1.00  0.00    -0.011 C 
HETATM   22  C21 UNL     1      24.429   3.470  50.862  1.00  0.00    -0.025 C 
HETATM   23  C22 UNL     1      24.019   2.724  52.055  1.00  0.00     0.065 C 
HETATM   24  H17 UNL     1      20.013  -0.623  50.737  1.00  0.00     0.315 HD
ENDROOT
BRANCH  18  25
HETATM   25  C17 UNL     1      20.148   5.818  48.731  1.00  0.00     0.274 C 
BRANCH  25  26
HETATM   26  O2  UNL     1      19.285   5.583  49.813  1.00  0.00    -0.345 OA
BRANCH  26  27
HETATM   27  C18 UNL     1      18.278   4.671  49.888  1.00  0.00     0.562 C 
HETATM   28  O3  UNL     1      17.713   4.322  50.963  1.00  0.00    -0.406 OA
ENDBRANCH  26  27
ENDBRANCH  25  26
ENDBRANCH  18  25
TORSDOF 3
ENDMDL
MODEL 2
REMARK VINA RESULT:      -8.2      4.285      7.545
REMARK  3 active torsions:
REMARK  status: ('A' for Active; 'I' for Inactive)
REMARK       I    between atoms: N2_17  and  C16_18 
REMARK    1  A    between atoms: C16_18  and  C17_20 
REMARK    2  A    between atoms: C17_20  and  O2_21 
REMARK    3  A    between atoms: O2_21  and  C18_22 
ROOT
HETATM    1  C1  UNL     1      29.502   7.049  48.200  1.00  0.00     0.048 C 
HETATM    2  C2  UNL     1      28.112   6.600  48.310  1.00  0.00    -0.061 A 
HETATM    3  C3  UNL     1      27.874   5.307  48.699  1.00  0.00     0.014 A 
HETATM    4  C4  UNL     1      26.583   4.859  48.807  1.00  0.00    -0.054 A 
HETATM    5  C5  UNL     1      25.591   5.827  48.487  1.00  0.00     0.014 A 
HETATM    6  C6  UNL     1      25.825   7.156  48.089  1.00  0.00    -0.057 A 
HETATM    7  C7  UNL     1      27.149   7.526  48.007  1.00  0.00     0.013 A 
HETATM    8  C8  UNL     1      24.500   7.838  47.879  1.00  0.00     0.038 C 
HETATM    9  C9  UNL     1      23.685   7.671  49.176  1.00  0.00     0.005 C 
HETATM   10  C10 UNL     1      22.274   8.095  49.012  1.00  0.00     0.002 C 
HETATM   11  C11 UNL     1      21.433   7.903  50.212  1.00  0.00     0.030 C 
HETATM   12  C12 UNL     1      21.374   6.543  50.829  1.00  0.00     0.269 C 
HETATM   13  N1  UNL     1      22.574   6.220  51.494  1.00  0.00     0.083 N 
HETATM   14  C13 UNL     1      22.607   4.889  52.148  1.00  0.00     0.271 C 
HETATM   15  C14 UNL     1      23.852   4.835  53.000  1.00  0.00     0.050 C 
HETATM   16  C15 UNL     1      24.182   3.659  53.756  1.00  0.00     0.128 C 
HETATM   17  N2  UNL     1      24.500   2.377  53.220  1.00  0.00    -0.347 N 
HETATM   18  C16 UNL     1      23.857   1.154  52.957  1.00  0.00     0.243 C 
HETATM   19  O1  UNL     1      24.453   0.164  52.466  1.00  0.00    -0.271 OA
HETATM   20  C19 UNL     1      25.923   2.409  52.848  1.00  0.00     0.153 C 
HETATM   21  C20 UNL     1      26.148   2.644  51.398  1.00  0.00    -0.011 C 
HETATM   22  C21 UNL     1      26.509   2.674  50.070  1.00  0.00    -0.025 C 
HETATM   23  C22 UNL     1      25.874   3.678  49.211  1.00  0.00     0.065 C 
HETATM   24  H17 UNL     1      22.813   6.900  52.251  1.00  0.00     0.315 HD
ENDROOT
BRANCH  18  25
HETATM   25  C17 UNL     1      22.744   0.184  52.900  1.00  0.00     0.274 C 
BRANCH  25  26
HETATM   26  O2  UNL     1      22.159  -0.009  54.161  1.00  0.00    -0.345 OA
BRANCH  26  27
HETATM   27  C18 UNL     1      21.644  -1.162  54.669  1.00  0.00     0.562 C 
HETATM   28  O3  UNL     1      22.312  -2.013  55.322  1.00  0.00    -0.406 OA
ENDBRANCH  26  27
ENDBRANCH  25  26
ENDBRANCH  18  25
TORSDOF 3
ENDMDL
MODEL 3
REMARK VINA RESULT:      -8.0      2.151      3.857
REMARK  3 active torsions:
REMARK  status: ('A' for Active; 'I' for Inactive)
REMARK       I    between atoms: N2_17  and  C16_18 
REMARK    1  A    between atoms: C16_18  and  C17_20 
REMARK    2  A    between atoms: C17_20  and  O2_21 
REMARK    3  A    between atoms: O2_21  and  C18_22 
ROOT
HETATM    1  C1  UNL     1      26.402   3.462  49.647  1.00  0.00     0.048 C 
HETATM    2  C2  UNL     1      25.400   3.129  50.662  1.00  0.00    -0.061 A 
HETATM    3  C3  UNL     1      24.231   3.845  50.683  1.00  0.00     0.014 A 
HETATM    4  C4  UNL     1      23.277   3.558  51.624  1.00  0.00    -0.054 A 
HETATM    5  C5  UNL     1      23.623   2.504  52.516  1.00  0.00     0.014 A 
HETATM    6  C6  UNL     1      24.818   1.762  52.501  1.00  0.00    -0.057 A 
HETATM    7  C7  UNL     1      25.722   2.113  51.523  1.00  0.00     0.013 A 
HETATM    8  C8  UNL     1      24.759   0.729  53.594  1.00  0.00     0.038 C 
HETATM    9  C9  UNL     1      23.471  -0.090  53.384  1.00  0.00     0.005 C 
HETATM   10  C10 UNL     1      23.180  -0.984  54.531  1.00  0.00     0.002 C 
HETATM   11  C11 UNL     1      21.924  -1.752  54.406  1.00  0.00     0.030 C 
HETATM   12  C12 UNL     1      20.656  -1.004  54.148  1.00  0.00     0.269 C 
HETATM   13  N1  UNL     1      20.602  -0.509  52.830  1.00  0.00     0.083 N 
HETATM   14  C13 UNL     1      19.372   0.242  52.476  1.00  0.00     0.271 C 
HETATM   15  C14 UNL     1      19.394   0.468  50.984  1.00  0.00     0.050 C 
HETATM   16  C15 UNL     1      18.338   1.188  50.328  1.00  0.00     0.128 C 
HETATM   17  N2  UNL     1      18.008   2.560  50.525  1.00  0.00    -0.347 N 
HETATM   18  C16 UNL     1      17.097   3.330  51.270  1.00  0.00     0.243 C 
HETATM   19  O1  UNL     1      17.053   4.583  51.207  1.00  0.00    -0.271 OA
HETATM   20  C19 UNL     1      18.923   3.346  49.684  1.00  0.00     0.153 C 
HETATM   21  C20 UNL     1      20.073   3.914  50.435  1.00  0.00    -0.011 C 
HETATM   22  C21 UNL     1      21.081   4.646  51.019  1.00  0.00    -0.025 C 
HETATM   23  C22 UNL     1      21.949   3.967  51.985  1.00  0.00     0.065 C 
HETATM   24  H17 UNL     1      20.676  -1.263  52.110  1.00  0.00     0.315 HD
ENDROOT
BRANCH  18  25
HETATM   25  C17 UNL     1      15.998   3.599  52.221  1.00  0.00     0.274 C 
BRANCH  25  26
HETATM   26  O2  UNL     1      15.040   2.574  52.211  1.00  0.00    -0.345 OA
BRANCH  26  27
HETATM   27  C18 UNL     1      15.254   1.237  52.354  1.00  0.00     0.562 C 
HETATM   28  O3  UNL     1      14.819   0.547  53.319  1.00  0.00    -0.406 OA
ENDBRANCH  26  27
ENDBRANCH  25  26
ENDBRANCH  18  25
TORSDOF 3
ENDMDL
MODEL 4
REMARK VINA RESULT:      -7.7      2.189      5.227
REMARK  3 active torsions:
REMARK  status: ('A' for Active; 'I' for Inactive)
REMARK       I    between atoms: N2_17  and  C16_18 
REMARK    1  A    between atoms: C16_18  and  C17_20 
REMARK    2  A    between atoms: C17_20  and  O2_21 
REMARK    3  A    between atoms: O2_21  and  C18_22 
ROOT
HETATM    1  C1  UNL     1      17.797  -0.890  53.244  1.00  0.00     0.048 C 
HETATM    2  C2  UNL     1      19.112  -0.526  52.709  1.00  0.00    -0.061 A 
HETATM    3  C3  UNL     1      19.163   0.254  51.583  1.00  0.00     0.014 A 
HETATM    4  C4  UNL     1      20.379   0.607  51.058  1.00  0.00    -0.054 A 
HETATM    5  C5  UNL     1      21.502   0.099  51.770  1.00  0.00     0.014 A 
HETATM    6  C6  UNL     1      21.459  -0.700  52.927  1.00  0.00    -0.057 A 
HETATM    7  C7  UNL     1      20.199  -1.008  53.390  1.00  0.00     0.013 A 
HETATM    8  C8  UNL     1      22.869  -0.987  53.369  1.00  0.00     0.038 C 
HETATM    9  C9  UNL     1      23.586   0.367  53.527  1.00  0.00     0.005 C 
HETATM   10  C10 UNL     1      25.047   0.210  53.730  1.00  0.00     0.002 C 
HETATM   11  C11 UNL     1      25.792   1.481  53.833  1.00  0.00     0.030 C 
HETATM   12  C12 UNL     1      25.645   2.483  52.733  1.00  0.00     0.269 C 
HETATM   13  N1  UNL     1      24.381   3.104  52.760  1.00  0.00     0.083 N 
HETATM   14  C13 UNL     1      24.145   4.124  51.709  1.00  0.00     0.271 C 
HETATM   15  C14 UNL     1      22.860   4.838  52.051  1.00  0.00     0.050 C 
HETATM   16  C15 UNL     1      22.344   5.881  51.209  1.00  0.00     0.128 C 
HETATM   17  N2  UNL     1      21.895   5.731  49.864  1.00  0.00    -0.347 N 
HETATM   18  C16 UNL     1      22.391   5.907  48.560  1.00  0.00     0.243 C 
HETATM   19  O1  UNL     1      21.701   5.686  47.535  1.00  0.00    -0.271 OA
HETATM   20  C19 UNL     1      20.509   5.241  49.928  1.00  0.00     0.153 C 
HETATM   21  C20 UNL     1      20.393   3.774  49.723  1.00  0.00    -0.011 C 
HETATM   22  C21 UNL     1      20.110   2.472  49.378  1.00  0.00    -0.025 C 
HETATM   23  C22 UNL     1      20.911   1.411  49.994  1.00  0.00     0.065 C 
HETATM   24  H17 UNL     1      24.191   3.596  53.662  1.00  0.00     0.315 HD
ENDROOT
BRANCH  18  25
HETATM   25  C17 UNL     1      23.374   6.245  47.510  1.00  0.00     0.274 C 
BRANCH  25  26
HETATM   26  O2  UNL     1      24.523   6.843  48.048  1.00  0.00    -0.345 OA
BRANCH  26  27
HETATM   27  C18 UNL     1      25.392   6.310  48.950  1.00  0.00     0.562 C 
HETATM   28  O3  UNL     1      25.771   6.895  50.003  1.00  0.00    -0.406 OA
ENDBRANCH  26  27
ENDBRANCH  25  26
ENDBRANCH  18  25
TORSDOF 3
ENDMDL
MODEL 5
REMARK VINA RESULT:      -7.7      1.767      2.471
REMARK  3 active torsions:
REMARK  status: ('A' for Active; 'I' for Inactive)
REMARK       I    between atoms: N2_17  and  C16_18 
REMARK    1  A    between atoms: C16_18  and  C17_20 
REMARK    2  A    between atoms: C17_20  and  O2_21 
REMARK    3  A    between atoms: O2_21  and  C18_22 
ROOT
HETATM    1  C1  UNL     1      25.390  -0.747  53.889  1.00  0.00     0.048 C 
HETATM    2  C2  UNL     1      24.171  -0.014  53.537  1.00  0.00    -0.061 A 
HETATM    3  C3  UNL     1      24.292   1.282  53.108  1.00  0.00     0.014 A 
HETATM    4  C4  UNL     1      23.167   1.993  52.776  1.00  0.00    -0.054 A 
HETATM    5  C5  UNL     1      21.947   1.275  52.923  1.00  0.00     0.014 A 
HETATM    6  C6  UNL     1      21.814  -0.055  53.361  1.00  0.00    -0.057 A 
HETATM    7  C7  UNL     1      22.991  -0.698  53.672  1.00  0.00     0.013 A 
HETATM    8  C8  UNL     1      20.356  -0.427  53.340  1.00  0.00     0.038 C 
HETATM    9  C9  UNL     1      19.828  -0.142  51.921  1.00  0.00     0.005 C 
HETATM   10  C10 UNL     1      18.351  -0.246  51.838  1.00  0.00     0.002 C 
HETATM   11  C11 UNL     1      17.787   0.073  50.510  1.00  0.00     0.030 C 
HETATM   12  C12 UNL     1      18.133   1.386  49.887  1.00  0.00     0.269 C 
HETATM   13  N1  UNL     1      19.468   1.415  49.439  1.00  0.00     0.083 N 
HETATM   14  C13 UNL     1      19.903   2.679  48.796  1.00  0.00     0.271 C 
HETATM   15  C14 UNL     1      21.254   2.429  48.173  1.00  0.00     0.050 C 
HETATM   16  C15 UNL     1      21.957   3.474  47.481  1.00  0.00     0.128 C 
HETATM   17  N2  UNL     1      22.453   4.679  48.059  1.00  0.00    -0.347 N 
HETATM   18  C16 UNL     1      22.059   6.021  48.202  1.00  0.00     0.243 C 
HETATM   19  O1  UNL     1      22.765   6.879  48.785  1.00  0.00    -0.271 OA
HETATM   20  C19 UNL     1      23.751   4.357  48.672  1.00  0.00     0.153 C 
HETATM   21  C20 UNL     1      23.671   4.140  50.141  1.00  0.00    -0.011 C 
HETATM   22  C21 UNL     1      23.787   4.087  51.511  1.00  0.00    -0.025 C 
HETATM   23  C22 UNL     1      22.812   3.281  52.250  1.00  0.00     0.065 C 
HETATM   24  H17 UNL     1      19.677   0.669  48.738  1.00  0.00     0.315 HD
ENDROOT
BRANCH  18  25
HETATM   25  C17 UNL     1      21.192   7.210  48.061  1.00  0.00     0.274 C 
BRANCH  25  26
HETATM   26  O2  UNL     1      20.689   7.635  49.300  1.00  0.00    -0.345 OA
BRANCH  26  27
HETATM   27  C18 UNL     1      19.599   8.417  49.528  1.00  0.00     0.562 C 
HETATM   28  O3  UNL     1      19.651   9.593  49.986  1.00  0.00    -0.406 OA
ENDBRANCH  26  27
ENDBRANCH  25  26
ENDBRANCH  18  25
TORSDOF 3
ENDMDL
MODEL 6
REMARK VINA RESULT:      -7.4      2.251      2.844
REMARK  3 active torsions:
REMARK  status: ('A' for Active; 'I' for Inactive)
REMARK       I    between atoms: N2_17  and  C16_18 
REMARK    1  A    between atoms: C16_18  and  C17_20 
REMARK    2  A    between atoms: C17_20  and  O2_21 
REMARK    3  A    between atoms: O2_21  and  C18_22 
ROOT
HETATM    1  C1  UNL     1      27.713  -2.513  52.465  1.00  0.00     0.048 C 
HETATM    2  C2  UNL     1      26.783  -1.431  52.799  1.00  0.00    -0.061 A 
HETATM    3  C3  UNL     1      27.135  -0.147  52.474  1.00  0.00     0.014 A 
HETATM    4  C4  UNL     1      26.285   0.886  52.777  1.00  0.00    -0.054 A 
HETATM    5  C5  UNL     1      25.082   0.492  53.426  1.00  0.00     0.014 A 
HETATM    6  C6  UNL     1      24.712  -0.823  53.762  1.00  0.00    -0.057 A 
HETATM    7  C7  UNL     1      25.619  -1.801  53.421  1.00  0.00     0.013 A 
HETATM    8  C8  UNL     1      23.352  -0.792  54.406  1.00  0.00     0.038 C 
HETATM    9  C9  UNL     1      22.400  -0.064  53.438  1.00  0.00     0.005 C 
HETATM   10  C10 UNL     1      21.088   0.237  54.060  1.00  0.00     0.002 C 
HETATM   11  C11 UNL     1      20.155   0.986  53.192  1.00  0.00     0.030 C 
HETATM   12  C12 UNL     1      20.620   2.273  52.592  1.00  0.00     0.269 C 
HETATM   13  N1  UNL     1      21.563   2.060  51.567  1.00  0.00     0.083 N 
HETATM   14  C13 UNL     1      22.077   3.282  50.902  1.00  0.00     0.271 C 
HETATM   15  C14 UNL     1      22.865   2.842  49.693  1.00  0.00     0.050 C 
HETATM   16  C15 UNL     1      23.512   3.802  48.840  1.00  0.00     0.128 C 
HETATM   17  N2  UNL     1      24.578   4.672  49.211  1.00  0.00    -0.347 N 
HETATM   18  C16 UNL     1      24.755   6.001  49.636  1.00  0.00     0.243 C 
HETATM   19  O1  UNL     1      25.884   6.491  49.882  1.00  0.00    -0.271 OA
HETATM   20  C19 UNL     1      25.822   3.896  49.104  1.00  0.00     0.153 C 
HETATM   21  C20 UNL     1      26.307   3.376  50.409  1.00  0.00    -0.011 C 
HETATM   22  C21 UNL     1      26.969   2.983  51.549  1.00  0.00    -0.025 C 
HETATM   23  C22 UNL     1      26.194   2.307  52.593  1.00  0.00     0.065 C 
HETATM   24  H17 UNL     1      21.191   1.466  50.791  1.00  0.00     0.315 HD
ENDROOT
BRANCH  18  25
HETATM   25  C17 UNL     1      24.363   7.372  50.024  1.00  0.00     0.274 C 
BRANCH  25  26
HETATM   26  O2  UNL     1      23.328   7.368  50.971  1.00  0.00    -0.345 OA
BRANCH  26  27
HETATM   27  C18 UNL     1      22.043   6.958  50.794  1.00  0.00     0.562 C 
HETATM   28  O3  UNL     1      21.082   7.731  50.517  1.00  0.00    -0.406 OA
ENDBRANCH  26  27
ENDBRANCH  25  26
ENDBRANCH  18  25
TORSDOF 3
ENDMDL
MODEL 7
REMARK VINA RESULT:      -7.4      2.335      5.166
REMARK  3 active torsions:
REMARK  status: ('A' for Active; 'I' for Inactive)
REMARK       I    between atoms: N2_17  and  C16_18 
REMARK    1  A    between atoms: C16_18  and  C17_20 
REMARK    2  A    between atoms: C17_20  and  O2_21 
REMARK    3  A    between atoms: O2_21  and  C18_22 
ROOT
HETATM    1  C1  UNL     1      21.891  -0.602  54.932  1.00  0.00     0.048 C 
HETATM    2  C2  UNL     1      22.260  -0.039  53.630  1.00  0.00    -0.061 A 
HETATM    3  C3  UNL     1      21.305   0.008  52.648  1.00  0.00     0.014 A 
HETATM    4  C4  UNL     1      21.623   0.526  51.419  1.00  0.00    -0.054 A 
HETATM    5  C5  UNL     1      22.968   0.972  51.294  1.00  0.00     0.014 A 
HETATM    6  C6  UNL     1      23.954   0.929  52.297  1.00  0.00    -0.057 A 
HETATM    7  C7  UNL     1      23.552   0.397  53.501  1.00  0.00     0.013 A 
HETATM    8  C8  UNL     1      25.223   1.529  51.753  1.00  0.00     0.038 C 
HETATM    9  C9  UNL     1      24.879   2.934  51.225  1.00  0.00     0.005 C 
HETATM   10  C10 UNL     1      25.994   3.533  50.453  1.00  0.00     0.002 C 
HETATM   11  C11 UNL     1      25.697   4.860  49.875  1.00  0.00     0.030 C 
HETATM   12  C12 UNL     1      24.486   5.005  49.011  1.00  0.00     0.269 C 
HETATM   13  N1  UNL     1      23.297   4.954  49.765  1.00  0.00     0.083 N 
HETATM   14  C13 UNL     1      22.039   5.099  48.993  1.00  0.00     0.271 C 
HETATM   15  C14 UNL     1      20.915   5.267  49.985  1.00  0.00     0.050 C 
HETATM   16  C15 UNL     1      19.555   5.416  49.547  1.00  0.00     0.128 C 
HETATM   17  N2  UNL     1      18.785   4.440  48.850  1.00  0.00    -0.347 N 
HETATM   18  C16 UNL     1      18.422   4.130  47.527  1.00  0.00     0.243 C 
HETATM   19  O1  UNL     1      17.683   3.158  47.235  1.00  0.00    -0.271 OA
HETATM   20  C19 UNL     1      18.247   3.517  49.861  1.00  0.00     0.153 C 
HETATM   21  C20 UNL     1      19.025   2.256  49.982  1.00  0.00    -0.011 C 
HETATM   22  C21 UNL     1      19.531   0.980  50.082  1.00  0.00    -0.025 C 
HETATM   23  C22 UNL     1      20.985   0.825  50.167  1.00  0.00     0.065 C 
HETATM   24  H17 UNL     1      23.251   5.697  50.499  1.00  0.00     0.315 HD
ENDROOT
BRANCH  18  25
HETATM   25  C17 UNL     1      18.375   4.274  46.057  1.00  0.00     0.274 C 
BRANCH  25  26
HETATM   26  O2  UNL     1      19.437   3.601  45.435  1.00  0.00    -0.345 OA
BRANCH  26  27
HETATM   27  C18 UNL     1      20.736   3.997  45.352  1.00  0.00     0.562 C 
HETATM   28  O3  UNL     1      21.542   3.610  44.459  1.00  0.00    -0.406 OA
ENDBRANCH  26  27
ENDBRANCH  25  26
ENDBRANCH  18  25
TORSDOF 3
ENDMDL
MODEL 8
REMARK VINA RESULT:      -7.1      9.518     12.414
REMARK  3 active torsions:
REMARK  status: ('A' for Active; 'I' for Inactive)
REMARK       I    between atoms: N2_17  and  C16_18 
REMARK    1  A    between atoms: C16_18  and  C17_20 
REMARK    2  A    between atoms: C17_20  and  O2_21 
REMARK    3  A    between atoms: O2_21  and  C18_22 
ROOT
HETATM    1  C1  UNL     1      25.403   5.253  49.486  1.00  0.00     0.048 C 
HETATM    2  C2  UNL     1      26.493   5.882  48.736  1.00  0.00    -0.061 A 
HETATM    3  C3  UNL     1      26.241   7.066  48.092  1.00  0.00     0.014 A 
HETATM    4  C4  UNL     1      27.242   7.675  47.379  1.00  0.00    -0.054 A 
HETATM    5  C5  UNL     1      28.482   6.977  47.385  1.00  0.00     0.014 A 
HETATM    6  C6  UNL     1      28.750   5.764  48.044  1.00  0.00    -0.057 A 
HETATM    7  C7  UNL     1      27.692   5.220  48.738  1.00  0.00     0.013 A 
HETATM    8  C8  UNL     1      30.191   5.397  47.815  1.00  0.00     0.038 C 
HETATM    9  C9  UNL     1      31.049   6.595  48.263  1.00  0.00     0.005 C 
HETATM   10  C10 UNL     1      32.471   6.449  47.869  1.00  0.00     0.002 C 
HETATM   11  C11 UNL     1      33.328   7.598  48.227  1.00  0.00     0.030 C 
HETATM   12  C12 UNL     1      32.921   8.960  47.765  1.00  0.00     0.269 C 
HETATM   13  N1  UNL     1      31.805   9.441  48.477  1.00  0.00     0.083 N 
HETATM   14  C13 UNL     1      31.332  10.794  48.094  1.00  0.00     0.271 C 
HETATM   15  C14 UNL     1      30.311  11.223  49.119  1.00  0.00     0.050 C 
HETATM   16  C15 UNL     1      29.647  12.494  49.017  1.00  0.00     0.128 C 
HETATM   17  N2  UNL     1      28.763  12.900  47.974  1.00  0.00    -0.347 N 
HETATM   18  C16 UNL     1      28.811  13.637  46.778  1.00  0.00     0.243 C 
HETATM   19  O1  UNL     1      27.802  13.831  46.058  1.00  0.00    -0.271 OA
HETATM   20  C19 UNL     1      27.438  12.352  48.300  1.00  0.00     0.153 C 
HETATM   21  C20 UNL     1      27.117  11.104  47.559  1.00  0.00    -0.011 C 
HETATM   22  C21 UNL     1      26.610  10.055  46.827  1.00  0.00    -0.025 C 
HETATM   23  C22 UNL     1      27.464   8.880  46.632  1.00  0.00     0.065 C 
HETATM   24  H17 UNL     1      31.974   9.495  49.507  1.00  0.00     0.315 HD
ENDROOT
BRANCH  18  25
HETATM   25  C17 UNL     1      29.416  14.441  45.695  1.00  0.00     0.274 C 
BRANCH  25  26
HETATM   26  O2  UNL     1      29.835  15.698  46.155  1.00  0.00    -0.345 OA
BRANCH  26  27
HETATM   27  C18 UNL     1      29.362  16.918  45.783  1.00  0.00     0.562 C 
HETATM   28  O3  UNL     1      28.230  17.373  46.114  1.00  0.00    -0.406 OA
ENDBRANCH  26  27
ENDBRANCH  25  26
ENDBRANCH  18  25
TORSDOF 3
ENDMDL
MODEL 9
REMARK VINA RESULT:      -7.1      2.744      6.259
REMARK  3 active torsions:
REMARK  status: ('A' for Active; 'I' for Inactive)
REMARK       I    between atoms: N2_17  and  C16_18 
REMARK    1  A    between atoms: C16_18  and  C17_20 
REMARK    2  A    between atoms: C17_20  and  O2_21 
REMARK    3  A    between atoms: O2_21  and  C18_22 
ROOT
HETATM    1  C1  UNL     1      15.890   3.207  49.455  1.00  0.00     0.048 C 
HETATM    2  C2  UNL     1      17.097   2.431  49.753  1.00  0.00    -0.061 A 
HETATM    3  C3  UNL     1      18.269   2.788  49.136  1.00  0.00     0.014 A 
HETATM    4  C4  UNL     1      19.413   2.078  49.394  1.00  0.00    -0.054 A 
HETATM    5  C5  UNL     1      19.248   1.001  50.309  1.00  0.00     0.014 A 
HETATM    6  C6  UNL     1      18.051   0.629  50.947  1.00  0.00    -0.057 A 
HETATM    7  C7  UNL     1      16.950   1.394  50.636  1.00  0.00     0.013 A 
HETATM    8  C8  UNL     1      18.330  -0.540  51.853  1.00  0.00     0.038 C 
HETATM    9  C9  UNL     1      19.480  -0.132  52.793  1.00  0.00     0.005 C 
HETATM   10  C10 UNL     1      20.004  -1.278  53.574  1.00  0.00     0.002 C 
HETATM   11  C11 UNL     1      21.147  -0.952  54.451  1.00  0.00     0.030 C 
HETATM   12  C12 UNL     1      22.346  -0.299  53.844  1.00  0.00     0.269 C 
HETATM   13  N1  UNL     1      22.092   1.044  53.505  1.00  0.00     0.083 N 
HETATM   14  C13 UNL     1      23.230   1.781  52.902  1.00  0.00     0.271 C 
HETATM   15  C14 UNL     1      22.846   3.239  52.844  1.00  0.00     0.050 C 
HETATM   16  C15 UNL     1      23.739   4.219  52.291  1.00  0.00     0.128 C 
HETATM   17  N2  UNL     1      24.178   4.287  50.936  1.00  0.00    -0.347 N 
HETATM   18  C16 UNL     1      25.286   3.891  50.165  1.00  0.00     0.243 C 
HETATM   19  O1  UNL     1      25.376   4.125  48.935  1.00  0.00    -0.271 OA
HETATM   20  C19 UNL     1      23.122   4.975  50.178  1.00  0.00     0.153 C 
HETATM   21  C20 UNL     1      22.229   4.046  49.437  1.00  0.00    -0.011 C 
HETATM   22  C21 UNL     1      21.439   3.334  48.564  1.00  0.00    -0.025 C 
HETATM   23  C22 UNL     1      20.808   2.106  49.057  1.00  0.00     0.065 C 
HETATM   24  H17 UNL     1      21.801   1.621  54.326  1.00  0.00     0.315 HD
ENDROOT
BRANCH  18  25
HETATM   25  C17 UNL     1      26.601   3.279  49.882  1.00  0.00     0.274 C 
BRANCH  25  26
HETATM   26  O2  UNL     1      27.262   2.902  51.060  1.00  0.00    -0.345 OA
BRANCH  26  27
HETATM   27  C18 UNL     1      26.852   1.994  51.988  1.00  0.00     0.562 C 
HETATM   28  O3  UNL     1      26.944   2.161  53.236  1.00  0.00    -0.406 OA
ENDBRANCH  26  27
ENDBRANCH  25  26
ENDBRANCH  18  25
TORSDOF 3
ENDMDL
