MODEL 1
REMARK VINA RESULT:      -7.6      0.000      0.000
REMARK  5 active torsions:
REMARK  status: ('A' for Active; 'I' for Inactive)
REMARK    1  A    between atoms: C2_2  and  C3_3 
REMARK    2  A    between atoms: C3_3  and  S1_10 
REMARK    3  A    between atoms: C4_4  and  C5_5 
REMARK    4  A    between atoms: S1_10  and  C8_11 
REMARK    5  A    between atoms: C13_16  and  C14_17 
REMARK       I    between atoms: C14_17  and  N3_19 
ROOT
HETATM    1  C8  UNL     1      22.801   0.654  53.307  1.00  0.00     0.021 A 
HETATM    2  C9  UNL     1      23.091  -0.503  53.964  1.00  0.00     0.020 A 
HETATM    3  C10 UNL     1      22.230  -1.457  54.455  1.00  0.00     0.001 A 
HETATM    4  C11 UNL     1      20.891  -1.157  54.224  1.00  0.00     0.001 A 
HETATM    5  C12 UNL     1      20.485  -0.009  53.570  1.00  0.00     0.018 A 
HETATM    6  C13 UNL     1      21.438   0.907  53.105  1.00  0.00     0.049 A 
ENDROOT
BRANCH   1   7
HETATM    7  S1  UNL     1      23.783   1.953  52.641  1.00  0.00    -0.089 SA
BRANCH   7   8
HETATM    8  C3  UNL     1      25.430   1.605  52.320  1.00  0.00     0.018 C 
HETATM    9  C4  UNL     1      26.209   0.783  53.221  1.00  0.00     0.053 C 
BRANCH   8  10
HETATM   10  C2  UNL     1      26.133   2.003  51.254  1.00  0.00    -0.018 C 
HETATM   11  C1  UNL     1      26.395   2.883  50.274  1.00  0.00     0.025 C 
ENDBRANCH   8  10
BRANCH   9  12
HETATM   12  C5  UNL     1      27.342   1.361  53.638  1.00  0.00     0.077 A 
HETATM   13  N1  UNL     1      27.579   2.657  54.099  1.00  0.00    -0.276 N 
HETATM   14  N2  UNL     1      28.925   2.412  54.280  1.00  0.00    -0.177 NA
HETATM   15  H4  UNL     1      27.199   3.586  54.325  1.00  0.00     0.189 HD
HETATM   16  C6  UNL     1      28.782   1.188  53.860  1.00  0.00     0.079 A 
HETATM   17  C7  UNL     1      29.609  -0.015  53.628  1.00  0.00     0.075 C 
ENDBRANCH   9  12
ENDBRANCH   7   8
ENDBRANCH   1   7
BRANCH   6  18
HETATM   18  C14 UNL     1      20.706   2.011  52.465  1.00  0.00     0.252 C 
HETATM   19  O1  UNL     1      20.273   3.135  52.865  1.00  0.00    -0.268 OA
HETATM   20  N3  UNL     1      20.379   1.846  51.089  1.00  0.00    -0.361 N 
HETATM   21  C15 UNL     1      19.698   2.621  50.075  1.00  0.00     0.149 C 
HETATM   22  H12 UNL     1      20.665   0.953  50.599  1.00  0.00     0.162 HD
ENDBRANCH   6  18
TORSDOF 5
ENDMDL
MODEL 2
REMARK VINA RESULT:      -7.5      1.852      3.071
REMARK  5 active torsions:
REMARK  status: ('A' for Active; 'I' for Inactive)
REMARK    1  A    between atoms: C2_2  and  C3_3 
REMARK    2  A    between atoms: C3_3  and  S1_10 
REMARK    3  A    between atoms: C4_4  and  C5_5 
REMARK    4  A    between atoms: S1_10  and  C8_11 
REMARK    5  A    between atoms: C13_16  and  C14_17 
REMARK       I    between atoms: C14_17  and  N3_19 
ROOT
HETATM    1  C8  UNL     1      23.304   0.990  52.481  1.00  0.00     0.021 A 
HETATM    2  C9  UNL     1      23.835   1.827  51.549  1.00  0.00     0.020 A 
HETATM    3  C10 UNL     1      23.206   2.786  50.789  1.00  0.00     0.001 A 
HETATM    4  C11 UNL     1      21.840   2.876  51.045  1.00  0.00     0.001 A 
HETATM    5  C12 UNL     1      21.198   2.074  51.967  1.00  0.00     0.018 A 
HETATM    6  C13 UNL     1      21.925   1.122  52.695  1.00  0.00     0.049 A 
ENDROOT
BRANCH   1   7
HETATM    7  S1  UNL     1      23.976  -0.272  53.506  1.00  0.00    -0.089 SA
BRANCH   7   8
HETATM    8  C3  UNL     1      25.685  -0.388  53.588  1.00  0.00     0.018 C 
HETATM    9  C4  UNL     1      26.432   0.314  54.609  1.00  0.00     0.053 C 
BRANCH   8  10
HETATM   10  C2  UNL     1      26.472  -1.115  52.787  1.00  0.00    -0.018 C 
HETATM   11  C1  UNL     1      26.952  -2.293  52.358  1.00  0.00     0.025 C 
ENDBRANCH   8  10
BRANCH   9  12
HETATM   12  C5  UNL     1      27.404   1.097  54.127  1.00  0.00     0.077 A 
HETATM   13  N1  UNL     1      27.396   2.457  53.811  1.00  0.00    -0.276 N 
HETATM   14  N2  UNL     1      28.711   2.431  53.395  1.00  0.00    -0.177 NA
HETATM   15  H4  UNL     1      26.871   3.341  53.774  1.00  0.00     0.189 HD
HETATM   16  C6  UNL     1      28.796   1.160  53.665  1.00  0.00     0.079 A 
HETATM   17  C7  UNL     1      29.789   0.068  53.595  1.00  0.00     0.075 C 
ENDBRANCH   9  12
ENDBRANCH   7   8
ENDBRANCH   1   7
BRANCH   6  18
HETATM   18  C14 UNL     1      20.976   0.432  53.581  1.00  0.00     0.252 C 
HETATM   19  O1  UNL     1      20.871   0.306  54.840  1.00  0.00    -0.268 OA
HETATM   20  N3  UNL     1      19.912  -0.273  52.951  1.00  0.00    -0.361 N 
HETATM   21  C15 UNL     1      18.783  -1.069  53.381  1.00  0.00     0.149 C 
HETATM   22  H12 UNL     1      19.855  -0.275  51.894  1.00  0.00     0.162 HD
ENDBRANCH   6  18
TORSDOF 5
ENDMDL
MODEL 3
REMARK VINA RESULT:      -7.5      1.679      2.984
REMARK  5 active torsions:
REMARK  status: ('A' for Active; 'I' for Inactive)
REMARK    1  A    between atoms: C2_2  and  C3_3 
REMARK    2  A    between atoms: C3_3  and  S1_10 
REMARK    3  A    between atoms: C4_4  and  C5_5 
REMARK    4  A    between atoms: S1_10  and  C8_11 
REMARK    5  A    between atoms: C13_16  and  C14_17 
REMARK       I    between atoms: C14_17  and  N3_19 
ROOT
HETATM    1  C8  UNL     1      22.836   1.731  51.082  1.00  0.00     0.021 A 
HETATM    2  C9  UNL     1      22.857   2.059  49.760  1.00  0.00     0.020 A 
HETATM    3  C10 UNL     1      21.925   1.784  48.786  1.00  0.00     0.001 A 
HETATM    4  C11 UNL     1      20.828   1.074  49.264  1.00  0.00     0.001 A 
HETATM    5  C12 UNL     1      20.705   0.687  50.585  1.00  0.00     0.018 A 
HETATM    6  C13 UNL     1      21.710   1.013  51.507  1.00  0.00     0.049 A 
ENDROOT
BRANCH   1   7
HETATM    7  S1  UNL     1      23.945   2.002  52.420  1.00  0.00    -0.089 SA
BRANCH   7   8
HETATM    8  C3  UNL     1      25.609   1.709  52.131  1.00  0.00     0.018 C 
HETATM    9  C4  UNL     1      26.371   0.824  52.984  1.00  0.00     0.053 C 
BRANCH   8  10
HETATM   10  C2  UNL     1      26.342   2.211  51.130  1.00  0.00    -0.018 C 
HETATM   11  C1  UNL     1      26.561   3.125  50.171  1.00  0.00     0.025 C 
ENDBRANCH   8  10
BRANCH   9  12
HETATM   12  C5  UNL     1      27.477   1.380  53.492  1.00  0.00     0.077 A 
HETATM   13  N1  UNL     1      27.687   2.657  54.017  1.00  0.00    -0.276 N 
HETATM   14  N2  UNL     1      29.019   2.400  54.271  1.00  0.00    -0.177 NA
HETATM   15  H4  UNL     1      27.296   3.579  54.255  1.00  0.00     0.189 HD
HETATM   16  C6  UNL     1      28.900   1.193  53.796  1.00  0.00     0.079 A 
HETATM   17  C7  UNL     1      29.737  -0.003  53.568  1.00  0.00     0.075 C 
ENDBRANCH   9  12
ENDBRANCH   7   8
ENDBRANCH   1   7
BRANCH   6  18
HETATM   18  C14 UNL     1      21.299   0.469  52.810  1.00  0.00     0.252 C 
HETATM   19  O1  UNL     1      20.550   0.885  53.746  1.00  0.00    -0.268 OA
HETATM   20  N3  UNL     1      21.823  -0.807  53.162  1.00  0.00    -0.361 N 
HETATM   21  C15 UNL     1      21.713  -1.710  54.287  1.00  0.00     0.149 C 
HETATM   22  H12 UNL     1      22.477  -1.295  52.488  1.00  0.00     0.162 HD
ENDBRANCH   6  18
TORSDOF 5
ENDMDL
MODEL 4
REMARK VINA RESULT:      -7.3      3.048      6.137
REMARK  5 active torsions:
REMARK  status: ('A' for Active; 'I' for Inactive)
REMARK    1  A    between atoms: C2_2  and  C3_3 
REMARK    2  A    between atoms: C3_3  and  S1_10 
REMARK    3  A    between atoms: C4_4  and  C5_5 
REMARK    4  A    between atoms: S1_10  and  C8_11 
REMARK    5  A    between atoms: C13_16  and  C14_17 
REMARK       I    between atoms: C14_17  and  N3_19 
ROOT
HETATM    1  C8  UNL     1      25.390   1.124  52.605  1.00  0.00     0.021 A 
HETATM    2  C9  UNL     1      24.047   0.965  52.450  1.00  0.00     0.020 A 
HETATM    3  C10 UNL     1      23.195   0.111  53.113  1.00  0.00     0.001 A 
HETATM    4  C11 UNL     1      23.840  -0.677  54.062  1.00  0.00     0.001 A 
HETATM    5  C12 UNL     1      25.199  -0.599  54.299  1.00  0.00     0.018 A 
HETATM    6  C13 UNL     1      25.987   0.304  53.572  1.00  0.00     0.049 A 
ENDROOT
BRANCH   1   7
HETATM    7  S1  UNL     1      26.589   2.154  51.833  1.00  0.00    -0.089 SA
BRANCH   7   8
HETATM    8  C3  UNL     1      26.022   3.288  50.680  1.00  0.00     0.018 C 
HETATM    9  C4  UNL     1      24.759   3.970  50.861  1.00  0.00     0.053 C 
BRANCH   8  10
HETATM   10  C2  UNL     1      26.655   3.671  49.564  1.00  0.00    -0.018 C 
HETATM   11  C1  UNL     1      27.358   4.568  48.856  1.00  0.00     0.025 C 
ENDBRANCH   8  10
BRANCH   9  12
HETATM   12  C5  UNL     1      23.924   3.846  49.824  1.00  0.00     0.077 A 
HETATM   13  N1  UNL     1      23.189   2.745  49.381  1.00  0.00    -0.276 N 
HETATM   14  N2  UNL     1      22.656   3.449  48.320  1.00  0.00    -0.177 NA
HETATM   15  H4  UNL     1      22.926   1.759  49.516  1.00  0.00     0.189 HD
HETATM   16  C6  UNL     1      23.311   4.518  48.672  1.00  0.00     0.079 A 
HETATM   17  C7  UNL     1      23.493   5.914  48.220  1.00  0.00     0.075 C 
ENDBRANCH   9  12
ENDBRANCH   7   8
ENDBRANCH   1   7
BRANCH   6  18
HETATM   18  C14 UNL     1      27.372   0.151  54.041  1.00  0.00     0.252 C 
HETATM   19  O1  UNL     1      28.080   0.737  54.917  1.00  0.00    -0.268 OA
HETATM   20  N3  UNL     1      28.149  -0.866  53.416  1.00  0.00    -0.361 N 
HETATM   21  C15 UNL     1      29.499  -1.372  53.532  1.00  0.00     0.149 C 
HETATM   22  H12 UNL     1      27.707  -1.450  52.652  1.00  0.00     0.162 HD
ENDBRANCH   6  18
TORSDOF 5
ENDMDL
MODEL 5
REMARK VINA RESULT:      -7.2      2.815      5.697
REMARK  5 active torsions:
REMARK  status: ('A' for Active; 'I' for Inactive)
REMARK    1  A    between atoms: C2_2  and  C3_3 
REMARK    2  A    between atoms: C3_3  and  S1_10 
REMARK    3  A    between atoms: C4_4  and  C5_5 
REMARK    4  A    between atoms: S1_10  and  C8_11 
REMARK    5  A    between atoms: C13_16  and  C14_17 
REMARK       I    between atoms: C14_17  and  N3_19 
ROOT
HETATM    1  C8  UNL     1      24.585   0.185  53.213  1.00  0.00     0.021 A 
HETATM    2  C9  UNL     1      23.292  -0.203  53.393  1.00  0.00     0.020 A 
HETATM    3  C10 UNL     1      22.744  -0.931  54.424  1.00  0.00     0.001 A 
HETATM    4  C11 UNL     1      23.676  -1.297  55.391  1.00  0.00     0.001 A 
HETATM    5  C12 UNL     1      25.013  -0.959  55.307  1.00  0.00     0.018 A 
HETATM    6  C13 UNL     1      25.480  -0.214  54.216  1.00  0.00     0.049 A 
ENDROOT
BRANCH   1   7
HETATM    7  S1  UNL     1      25.418   1.094  51.959  1.00  0.00    -0.089 SA
BRANCH   7   8
HETATM    8  C3  UNL     1      24.979   2.740  51.761  1.00  0.00     0.018 C 
HETATM    9  C4  UNL     1      24.218   3.436  52.775  1.00  0.00     0.053 C 
BRANCH   8  10
HETATM   10  C2  UNL     1      25.293   3.527  50.726  1.00  0.00    -0.018 C 
HETATM   11  C1  UNL     1      26.060   3.836  49.669  1.00  0.00     0.025 C 
ENDBRANCH   8  10
BRANCH   9  12
HETATM   12  C5  UNL     1      23.102   4.014  52.315  1.00  0.00     0.077 A 
HETATM   13  N1  UNL     1      22.703   5.351  52.333  1.00  0.00    -0.276 N 
HETATM   14  N2  UNL     1      21.505   5.066  51.711  1.00  0.00    -0.177 NA
HETATM   15  H4  UNL     1      22.920   6.324  52.590  1.00  0.00     0.189 HD
HETATM   16  C6  UNL     1      21.807   3.801  51.657  1.00  0.00     0.079 A 
HETATM   17  C7  UNL     1      21.218   2.532  51.180  1.00  0.00     0.075 C 
ENDBRANCH   9  12
ENDBRANCH   7   8
ENDBRANCH   1   7
BRANCH   6  18
HETATM   18  C14 UNL     1      26.925  -0.020  54.406  1.00  0.00     0.252 C 
HETATM   19  O1  UNL     1      27.628   0.818  55.051  1.00  0.00    -0.268 OA
HETATM   20  N3  UNL     1      27.785  -0.943  53.747  1.00  0.00    -0.361 N 
HETATM   21  C15 UNL     1      29.212  -1.151  53.638  1.00  0.00     0.149 C 
HETATM   22  H12 UNL     1      27.356  -1.709  53.156  1.00  0.00     0.162 HD
ENDBRANCH   6  18
TORSDOF 5
ENDMDL
MODEL 6
REMARK VINA RESULT:      -7.0      3.262      5.528
REMARK  5 active torsions:
REMARK  status: ('A' for Active; 'I' for Inactive)
REMARK    1  A    between atoms: C2_2  and  C3_3 
REMARK    2  A    between atoms: C3_3  and  S1_10 
REMARK    3  A    between atoms: C4_4  and  C5_5 
REMARK    4  A    between atoms: S1_10  and  C8_11 
REMARK    5  A    between atoms: C13_16  and  C14_17 
REMARK       I    between atoms: C14_17  and  N3_19 
ROOT
HETATM    1  C8  UNL     1      23.916   0.701  52.945  1.00  0.00     0.021 A 
HETATM    2  C9  UNL     1      22.574   0.794  53.152  1.00  0.00     0.020 A 
HETATM    3  C10 UNL     1      21.782   0.081  54.023  1.00  0.00     0.001 A 
HETATM    4  C11 UNL     1      22.496  -0.849  54.774  1.00  0.00     0.001 A 
HETATM    5  C12 UNL     1      23.859  -1.029  54.642  1.00  0.00     0.018 A 
HETATM    6  C13 UNL     1      24.582  -0.254  53.725  1.00  0.00     0.049 A 
ENDROOT
BRANCH   1   7
HETATM    7  S1  UNL     1      25.041   1.528  51.874  1.00  0.00    -0.089 SA
BRANCH   7   8
HETATM    8  C3  UNL     1      24.520   3.006  51.180  1.00  0.00     0.018 C 
HETATM    9  C4  UNL     1      24.650   3.252  49.761  1.00  0.00     0.053 C 
BRANCH   8  10
HETATM   10  C2  UNL     1      23.944   4.027  51.825  1.00  0.00    -0.018 C 
HETATM   11  C1  UNL     1      22.858   4.701  52.235  1.00  0.00     0.025 C 
ENDBRANCH   8  10
BRANCH   9  12
HETATM   12  C5  UNL     1      25.307   4.379  49.464  1.00  0.00     0.077 A 
HETATM   13  N1  UNL     1      26.659   4.700  49.599  1.00  0.00    -0.276 N 
HETATM   14  N2  UNL     1      26.469   5.974  49.106  1.00  0.00    -0.177 NA
HETATM   15  H4  UNL     1      27.603   4.401  49.879  1.00  0.00     0.189 HD
HETATM   16  C6  UNL     1      25.196   5.750  48.952  1.00  0.00     0.079 A 
HETATM   17  C7  UNL     1      23.987   6.457  48.480  1.00  0.00     0.075 C 
ENDBRANCH   9  12
ENDBRANCH   7   8
ENDBRANCH   1   7
BRANCH   6  18
HETATM   18  C14 UNL     1      25.989  -0.674  53.812  1.00  0.00     0.252 C 
HETATM   19  O1  UNL     1      26.657  -1.637  53.323  1.00  0.00    -0.268 OA
HETATM   20  N3  UNL     1      26.849   0.136  54.606  1.00  0.00    -0.361 N 
HETATM   21  C15 UNL     1      28.247   0.128  54.977  1.00  0.00     0.149 C 
HETATM   22  H12 UNL     1      26.446   0.984  55.094  1.00  0.00     0.162 HD
ENDBRANCH   6  18
TORSDOF 5
ENDMDL
MODEL 7
REMARK VINA RESULT:      -7.0      2.656      5.246
REMARK  5 active torsions:
REMARK  status: ('A' for Active; 'I' for Inactive)
REMARK    1  A    between atoms: C2_2  and  C3_3 
REMARK    2  A    between atoms: C3_3  and  S1_10 
REMARK    3  A    between atoms: C4_4  and  C5_5 
REMARK    4  A    between atoms: S1_10  and  C8_11 
REMARK    5  A    between atoms: C13_16  and  C14_17 
REMARK       I    between atoms: C14_17  and  N3_19 
ROOT
HETATM    1  C8  UNL     1      25.185   3.427  49.930  1.00  0.00     0.021 A 
HETATM    2  C9  UNL     1      26.521   3.398  49.668  1.00  0.00     0.020 A 
HETATM    3  C10 UNL     1      27.306   4.356  49.069  1.00  0.00     0.001 A 
HETATM    4  C11 UNL     1      26.594   5.493  48.699  1.00  0.00     0.001 A 
HETATM    5  C12 UNL     1      25.236   5.628  48.915  1.00  0.00     0.018 A 
HETATM    6  C13 UNL     1      24.519   4.595  49.533  1.00  0.00     0.049 A 
ENDROOT
BRANCH   1   7
HETATM    7  S1  UNL     1      24.065   2.289  50.668  1.00  0.00    -0.089 SA
BRANCH   7   8
HETATM    8  C3  UNL     1      24.300   1.923  52.327  1.00  0.00     0.018 C 
HETATM    9  C4  UNL     1      25.516   2.304  53.011  1.00  0.00     0.053 C 
BRANCH   8  10
HETATM   10  C2  UNL     1      23.430   1.307  53.135  1.00  0.00    -0.018 C 
HETATM   11  C1  UNL     1      22.512   0.357  53.376  1.00  0.00     0.025 C 
ENDBRANCH   8  10
BRANCH   9  12
HETATM   12  C5  UNL     1      26.136   1.287  53.621  1.00  0.00     0.077 A 
HETATM   13  N1  UNL     1      26.600   1.168  54.932  1.00  0.00    -0.276 N 
HETATM   14  N2  UNL     1      27.084  -0.105  54.711  1.00  0.00    -0.177 NA
HETATM   15  H4  UNL     1      26.706   1.595  55.863  1.00  0.00     0.189 HD
HETATM   16  C6  UNL     1      26.679  -0.068  53.474  1.00  0.00     0.079 A 
HETATM   17  C7  UNL     1      26.683  -0.929  52.273  1.00  0.00     0.075 C 
ENDBRANCH   9  12
ENDBRANCH   7   8
ENDBRANCH   1   7
BRANCH   6  18
HETATM   18  C14 UNL     1      23.115   5.027  49.618  1.00  0.00     0.252 C 
HETATM   19  O1  UNL     1      22.046   4.680  49.028  1.00  0.00    -0.268 OA
HETATM   20  N3  UNL     1      22.822   6.062  50.549  1.00  0.00    -0.361 N 
HETATM   21  C15 UNL     1      21.644   6.789  50.971  1.00  0.00     0.149 C 
HETATM   22  H12 UNL     1      23.611   6.472  51.124  1.00  0.00     0.162 HD
ENDBRANCH   6  18
TORSDOF 5
ENDMDL
MODEL 8
REMARK VINA RESULT:      -6.8      2.873      5.817
REMARK  5 active torsions:
REMARK  status: ('A' for Active; 'I' for Inactive)
REMARK    1  A    between atoms: C2_2  and  C3_3 
REMARK    2  A    between atoms: C3_3  and  S1_10 
REMARK    3  A    between atoms: C4_4  and  C5_5 
REMARK    4  A    between atoms: S1_10  and  C8_11 
REMARK    5  A    between atoms: C13_16  and  C14_17 
REMARK       I    between atoms: C14_17  and  N3_19 
ROOT
HETATM    1  C8  UNL     1      26.391   3.753  49.643  1.00  0.00     0.021 A 
HETATM    2  C9  UNL     1      27.531   4.066  48.967  1.00  0.00     0.020 A 
HETATM    3  C10 UNL     1      27.933   5.284  48.469  1.00  0.00     0.001 A 
HETATM    4  C11 UNL     1      27.020   6.305  48.716  1.00  0.00     0.001 A 
HETATM    5  C12 UNL     1      25.832   6.098  49.391  1.00  0.00     0.018 A 
HETATM    6  C13 UNL     1      25.507   4.818  49.861  1.00  0.00     0.049 A 
ENDROOT
BRANCH   1   7
HETATM    7  S1  UNL     1      25.750   2.261  50.320  1.00  0.00    -0.089 SA
BRANCH   7   8
HETATM    8  C3  UNL     1      26.583   1.585  51.657  1.00  0.00     0.018 C 
HETATM    9  C4  UNL     1      26.627   0.154  51.864  1.00  0.00     0.053 C 
BRANCH   8  10
HETATM   10  C2  UNL     1      27.269   2.257  52.588  1.00  0.00    -0.018 C 
HETATM   11  C1  UNL     1      28.394   2.501  53.279  1.00  0.00     0.025 C 
ENDBRANCH   8  10
BRANCH   9  12
HETATM   12  C5  UNL     1      26.208  -0.232  53.074  1.00  0.00     0.077 A 
HETATM   13  N1  UNL     1      26.933  -0.669  54.184  1.00  0.00    -0.276 N 
HETATM   14  N2  UNL     1      25.789  -0.859  54.933  1.00  0.00    -0.177 NA
HETATM   15  H4  UNL     1      27.851  -0.875  54.602  1.00  0.00     0.189 HD
HETATM   16  C6  UNL     1      25.046  -0.462  53.940  1.00  0.00     0.079 A 
HETATM   17  C7  UNL     1      23.615  -0.265  53.627  1.00  0.00     0.075 C 
ENDBRANCH   9  12
ENDBRANCH   7   8
ENDBRANCH   1   7
BRANCH   6  18
HETATM   18  C14 UNL     1      24.198   4.917  50.524  1.00  0.00     0.252 C 
HETATM   19  O1  UNL     1      23.007   5.072  50.112  1.00  0.00    -0.268 OA
HETATM   20  N3  UNL     1      24.194   4.824  51.944  1.00  0.00    -0.361 N 
HETATM   21  C15 UNL     1      23.198   4.863  52.994  1.00  0.00     0.149 C 
HETATM   22  H12 UNL     1      25.114   4.698  52.452  1.00  0.00     0.162 HD
ENDBRANCH   6  18
TORSDOF 5
ENDMDL
MODEL 9
REMARK VINA RESULT:      -6.8      3.099      5.846
REMARK  5 active torsions:
REMARK  status: ('A' for Active; 'I' for Inactive)
REMARK    1  A    between atoms: C2_2  and  C3_3 
REMARK    2  A    between atoms: C3_3  and  S1_10 
REMARK    3  A    between atoms: C4_4  and  C5_5 
REMARK    4  A    between atoms: S1_10  and  C8_11 
REMARK    5  A    between atoms: C13_16  and  C14_17 
REMARK       I    between atoms: C14_17  and  N3_19 
ROOT
HETATM    1  C8  UNL     1      23.598   0.586  53.132  1.00  0.00     0.021 A 
HETATM    2  C9  UNL     1      22.270   0.598  53.432  1.00  0.00     0.020 A 
HETATM    3  C10 UNL     1      21.584  -0.166  54.348  1.00  0.00     0.001 A 
HETATM    4  C11 UNL     1      22.401  -1.057  55.038  1.00  0.00     0.001 A 
HETATM    5  C12 UNL     1      23.760  -1.154  54.811  1.00  0.00     0.018 A 
HETATM    6  C13 UNL     1      24.372  -0.332  53.855  1.00  0.00     0.049 A 
ENDROOT
BRANCH   1   7
HETATM    7  S1  UNL     1      24.595   1.485  51.995  1.00  0.00    -0.089 SA
BRANCH   7   8
HETATM    8  C3  UNL     1      23.788   2.519  50.891  1.00  0.00     0.018 C 
HETATM    9  C4  UNL     1      24.184   3.902  50.737  1.00  0.00     0.053 C 
BRANCH   8  10
HETATM   10  C2  UNL     1      22.782   2.181  50.077  1.00  0.00    -0.018 C 
HETATM   11  C1  UNL     1      21.846   1.317  49.654  1.00  0.00     0.025 C 
ENDBRANCH   8  10
BRANCH   9  12
HETATM   12  C5  UNL     1      23.183   4.774  50.899  1.00  0.00     0.077 A 
HETATM   13  N1  UNL     1      22.616   5.292  52.064  1.00  0.00    -0.276 N 
HETATM   14  N2  UNL     1      21.701   6.046  51.358  1.00  0.00    -0.177 NA
HETATM   15  H4  UNL     1      22.614   5.328  53.093  1.00  0.00     0.189 HD
HETATM   16  C6  UNL     1      22.177   5.606  50.228  1.00  0.00     0.079 A 
HETATM   17  C7  UNL     1      21.932   5.760  48.779  1.00  0.00     0.075 C 
ENDBRANCH   9  12
ENDBRANCH   7   8
ENDBRANCH   1   7
BRANCH   6  18
HETATM   18  C14 UNL     1      25.803  -0.668  53.841  1.00  0.00     0.252 C 
HETATM   19  O1  UNL     1      26.495  -1.570  53.276  1.00  0.00    -0.268 OA
HETATM   20  N3  UNL     1      26.662   0.165  54.612  1.00  0.00    -0.361 N 
HETATM   21  C15 UNL     1      28.078   0.230  54.899  1.00  0.00     0.149 C 
HETATM   22  H12 UNL     1      26.240   0.969  55.157  1.00  0.00     0.162 HD
ENDBRANCH   6  18
TORSDOF 5
ENDMDL
