MODEL 1
REMARK VINA RESULT:      -9.4      0.000      0.000
REMARK  1 active torsions:
REMARK  status: ('A' for Active; 'I' for Inactive)
REMARK    1  A    between atoms: C2_2  and  C3_3 
ROOT
HETATM    1  C3  UNL     1      22.631  -0.671  53.113  1.00  0.00     0.126 C 
HETATM    2  C4  UNL     1      23.980  -0.145  53.413  1.00  0.00    -0.001 C 
HETATM    3  C5  UNL     1      25.210  -0.691  53.381  1.00  0.00    -0.012 C 
HETATM    4  C6  UNL     1      26.664  -0.824  53.496  1.00  0.00     0.147 C 
HETATM    5  N1  UNL     1      27.327   0.373  53.918  1.00  0.00    -0.198 NA
HETATM    6  C7  UNL     1      28.742   0.033  54.033  1.00  0.00     0.144 C 
HETATM    7  O1  UNL     1      27.132   1.454  53.180  1.00  0.00    -0.304 OA
HETATM    8  C8  UNL     1      26.880   1.298  51.853  1.00  0.00     0.194 C 
HETATM    9  C9  UNL     1      26.695   2.613  51.093  1.00  0.00     0.030 C 
HETATM   10  O2  UNL     1      25.627   3.352  51.636  1.00  0.00     0.000 OA
HETATM   11  C10 UNL     1      24.264   3.114  51.221  1.00  0.00    -0.002 A 
HETATM   12  C11 UNL     1      23.266   2.654  52.117  1.00  0.00     0.005 A 
HETATM   13  C12 UNL     1      21.912   2.211  52.293  1.00  0.00     0.009 C 
HETATM   14  C13 UNL     1      21.255   1.167  51.822  1.00  0.00     0.003 C 
HETATM   15  C14 UNL     1      19.926   1.166  51.194  1.00  0.00     0.069 C 
HETATM   16  C15 UNL     1      19.820   1.717  49.825  1.00  0.00     0.040 C 
HETATM   17  C16 UNL     1      20.896   1.141  48.977  1.00  0.00    -0.001 C 
HETATM   18  C17 UNL     1      22.095   1.637  49.236  1.00  0.00     0.089 C 
HETATM   19  N2  UNL     1      22.260   2.944  49.771  1.00  0.00    -0.336 N 
HETATM   20  C18 UNL     1      21.102   3.721  50.024  1.00  0.00     0.113 C 
HETATM   21  C19 UNL     1      21.196   5.046  50.562  1.00  0.00     0.117 C 
HETATM   22  N3  UNL     1      21.265   6.113  51.001  1.00  0.00    -0.190 NA
HETATM   23  C20 UNL     1      19.912   3.211  49.755  1.00  0.00     0.023 C 
HETATM   24  C21 UNL     1      23.626   3.251  49.971  1.00  0.00     0.075 A 
HETATM   25  C22 UNL     1      24.204   3.096  51.233  1.00  0.00     0.077 A 
HETATM   26  N4  UNL     1      21.965  -0.084  51.997  1.00  0.00    -0.382 N 
HETATM   27  H24 UNL     1      21.908  -0.567  51.051  1.00  0.00     0.160 HD
ENDROOT
BRANCH   1  28
HETATM   28  C2  UNL     1      21.787  -0.810  54.322  1.00  0.00    -0.008 C 
HETATM   29  C1  UNL     1      20.691  -1.556  54.346  1.00  0.00     0.009 C 
ENDBRANCH   1  28
TORSDOF 1
ENDMDL
MODEL 2
REMARK VINA RESULT:      -8.9      1.885      4.545
REMARK  1 active torsions:
REMARK  status: ('A' for Active; 'I' for Inactive)
REMARK    1  A    between atoms: C2_2  and  C3_3 
ROOT
HETATM    1  C3  UNL     1      26.276   4.016  50.323  1.00  0.00     0.126 C 
HETATM    2  C4  UNL     1      26.352   2.636  50.848  1.00  0.00    -0.001 C 
HETATM    3  C5  UNL     1      27.051   2.068  51.850  1.00  0.00    -0.012 C 
HETATM    4  C6  UNL     1      27.562   1.052  52.773  1.00  0.00     0.147 C 
HETATM    5  N1  UNL     1      27.020  -0.255  52.557  1.00  0.00    -0.198 NA
HETATM    6  C7  UNL     1      27.685  -1.132  53.518  1.00  0.00     0.144 C 
HETATM    7  O1  UNL     1      25.703  -0.370  52.606  1.00  0.00    -0.304 OA
HETATM    8  C8  UNL     1      25.005   0.487  53.397  1.00  0.00     0.194 C 
HETATM    9  C9  UNL     1      23.493   0.249  53.396  1.00  0.00     0.030 C 
HETATM   10  O2  UNL     1      22.975   0.368  52.093  1.00  0.00     0.000 OA
HETATM   11  C10 UNL     1      22.603   1.654  51.548  1.00  0.00    -0.002 A 
HETATM   12  C11 UNL     1      23.245   2.212  50.414  1.00  0.00     0.005 A 
HETATM   13  C12 UNL     1      23.376   3.338  49.533  1.00  0.00     0.009 C 
HETATM   14  C13 UNL     1      23.771   4.581  49.739  1.00  0.00     0.003 C 
HETATM   15  C14 UNL     1      23.099   5.809  49.291  1.00  0.00     0.069 C 
HETATM   16  C15 UNL     1      21.857   6.199  49.993  1.00  0.00     0.040 C 
HETATM   17  C16 UNL     1      22.074   6.123  51.460  1.00  0.00    -0.001 C 
HETATM   18  C17 UNL     1      22.115   4.885  51.925  1.00  0.00     0.089 C 
HETATM   19  N2  UNL     1      21.434   3.822  51.270  1.00  0.00    -0.336 N 
HETATM   20  C18 UNL     1      20.699   4.115  50.094  1.00  0.00     0.113 C 
HETATM   21  C19 UNL     1      19.990   3.090  49.384  1.00  0.00     0.117 C 
HETATM   22  N3  UNL     1      19.422   2.268  48.805  1.00  0.00    -0.190 NA
HETATM   23  C20 UNL     1      20.666   5.358  49.647  1.00  0.00     0.023 C 
HETATM   24  C21 UNL     1      21.629   2.593  51.943  1.00  0.00     0.075 A 
HETATM   25  C22 UNL     1      22.611   1.700  51.506  1.00  0.00     0.077 A 
HETATM   26  N4  UNL     1      25.019   4.672  50.469  1.00  0.00    -0.382 N 
HETATM   27  H24 UNL     1      24.842   5.397  51.227  1.00  0.00     0.160 HD
ENDROOT
BRANCH   1  28
HETATM   28  C2  UNL     1      26.881   4.152  48.978  1.00  0.00    -0.008 C 
HETATM   29  C1  UNL     1      27.611   5.202  48.626  1.00  0.00     0.009 C 
ENDBRANCH   1  28
TORSDOF 1
ENDMDL
MODEL 3
REMARK VINA RESULT:      -8.8      2.549      5.081
REMARK  1 active torsions:
REMARK  status: ('A' for Active; 'I' for Inactive)
REMARK    1  A    between atoms: C2_2  and  C3_3 
ROOT
HETATM    1  C3  UNL     1      25.364   1.953  52.172  1.00  0.00     0.126 C 
HETATM    2  C4  UNL     1      24.142   1.128  52.273  1.00  0.00    -0.001 C 
HETATM    3  C5  UNL     1      23.466   0.606  53.314  1.00  0.00    -0.012 C 
HETATM    4  C6  UNL     1      22.447  -0.125  54.071  1.00  0.00     0.147 C 
HETATM    5  N1  UNL     1      21.443  -0.738  53.254  1.00  0.00    -0.198 NA
HETATM    6  C7  UNL     1      20.565  -1.462  54.168  1.00  0.00     0.144 C 
HETATM    7  O1  UNL     1      20.770   0.059  52.441  1.00  0.00    -0.304 OA
HETATM    8  C8  UNL     1      20.593   1.358  52.802  1.00  0.00     0.194 C 
HETATM    9  C9  UNL     1      19.780   2.181  51.800  1.00  0.00     0.030 C 
HETATM   10  O2  UNL     1      20.403   2.179  50.538  1.00  0.00     0.000 OA
HETATM   11  C10 UNL     1      21.445   3.127  50.216  1.00  0.00    -0.002 A 
HETATM   12  C11 UNL     1      22.769   2.725  49.909  1.00  0.00     0.005 A 
HETATM   13  C12 UNL     1      24.115   3.127  49.612  1.00  0.00     0.009 C 
HETATM   14  C13 UNL     1      25.016   3.787  50.314  1.00  0.00     0.003 C 
HETATM   15  C14 UNL     1      25.833   4.923  49.862  1.00  0.00     0.069 C 
HETATM   16  C15 UNL     1      25.155   6.228  49.703  1.00  0.00     0.040 C 
HETATM   17  C16 UNL     1      24.335   6.508  50.910  1.00  0.00    -0.001 C 
HETATM   18  C17 UNL     1      23.231   5.782  50.979  1.00  0.00     0.089 C 
HETATM   19  N2  UNL     1      22.593   5.286  49.808  1.00  0.00    -0.336 N 
HETATM   20  C18 UNL     1      23.167   5.587  48.548  1.00  0.00     0.113 C 
HETATM   21  C19 UNL     1      22.576   5.118  47.329  1.00  0.00     0.117 C 
HETATM   22  N3  UNL     1      22.107   4.739  46.344  1.00  0.00    -0.190 NA
HETATM   23  C20 UNL     1      24.268   6.317  48.498  1.00  0.00     0.023 C 
HETATM   24  C21 UNL     1      21.439   4.534  50.130  1.00  0.00     0.075 A 
HETATM   25  C22 UNL     1      21.505   3.141  50.200  1.00  0.00     0.077 A 
HETATM   26  N4  UNL     1      25.188   3.271  51.657  1.00  0.00    -0.382 N 
HETATM   27  H24 UNL     1      25.165   4.128  52.286  1.00  0.00     0.160 HD
ENDROOT
BRANCH   1  28
HETATM   28  C2  UNL     1      26.507   1.217  51.584  1.00  0.00    -0.008 C 
HETATM   29  C1  UNL     1      26.805  -0.030  51.924  1.00  0.00     0.009 C 
ENDBRANCH   1  28
TORSDOF 1
ENDMDL
MODEL 4
REMARK VINA RESULT:      -8.0     10.660     13.326
REMARK  1 active torsions:
REMARK  status: ('A' for Active; 'I' for Inactive)
REMARK    1  A    between atoms: C2_2  and  C3_3 
ROOT
HETATM    1  C3  UNL     1      32.064   7.209  43.865  1.00  0.00     0.126 C 
HETATM    2  C4  UNL     1      31.527   8.314  44.687  1.00  0.00    -0.001 C 
HETATM    3  C5  UNL     1      30.324   8.914  44.754  1.00  0.00    -0.012 C 
HETATM    4  C6  UNL     1      29.257   9.826  45.174  1.00  0.00     0.147 C 
HETATM    5  N1  UNL     1      29.646  10.740  46.205  1.00  0.00    -0.198 NA
HETATM    6  C7  UNL     1      28.488  11.597  46.444  1.00  0.00     0.144 C 
HETATM    7  O1  UNL     1      30.114  10.211  47.324  1.00  0.00    -0.304 OA
HETATM    8  C8  UNL     1      29.673   8.979  47.695  1.00  0.00     0.194 C 
HETATM    9  C9  UNL     1      30.261   8.476  49.015  1.00  0.00     0.030 C 
HETATM   10  O2  UNL     1      31.665   8.411  48.938  1.00  0.00     0.000 OA
HETATM   11  C10 UNL     1      32.332   7.251  48.393  1.00  0.00    -0.002 A 
HETATM   12  C11 UNL     1      33.134   7.316  47.226  1.00  0.00     0.005 A 
HETATM   13  C12 UNL     1      33.912   6.600  46.254  1.00  0.00     0.009 C 
HETATM   14  C13 UNL     1      33.589   5.676  45.369  1.00  0.00     0.003 C 
HETATM   15  C14 UNL     1      34.284   4.404  45.122  1.00  0.00     0.069 C 
HETATM   16  C15 UNL     1      34.130   3.338  46.136  1.00  0.00     0.040 C 
HETATM   17  C16 UNL     1      32.694   3.190  46.483  1.00  0.00    -0.001 C 
HETATM   18  C17 UNL     1      32.229   4.172  47.240  1.00  0.00     0.089 C 
HETATM   19  N2  UNL     1      33.081   4.904  48.112  1.00  0.00    -0.336 N 
HETATM   20  C18 UNL     1      34.455   4.561  48.159  1.00  0.00     0.113 C 
HETATM   21  C19 UNL     1      35.369   5.259  49.015  1.00  0.00     0.117 C 
HETATM   22  N3  UNL     1      36.111   5.822  49.699  1.00  0.00    -0.190 NA
HETATM   23  C20 UNL     1      34.900   3.575  47.399  1.00  0.00     0.023 C 
HETATM   24  C21 UNL     1      32.365   5.905  48.810  1.00  0.00     0.075 A 
HETATM   25  C22 UNL     1      32.369   7.223  48.349  1.00  0.00     0.077 A 
HETATM   26  N4  UNL     1      32.431   6.026  44.572  1.00  0.00    -0.382 N 
HETATM   27  H24 UNL     1      31.814   5.159  44.587  1.00  0.00     0.160 HD
ENDROOT
BRANCH   1  28
HETATM   28  C2  UNL     1      33.067   7.663  42.875  1.00  0.00    -0.008 C 
HETATM   29  C1  UNL     1      33.893   8.675  43.108  1.00  0.00     0.009 C 
ENDBRANCH   1  28
TORSDOF 1
ENDMDL
MODEL 5
REMARK VINA RESULT:      -7.6      2.637      5.479
REMARK  1 active torsions:
REMARK  status: ('A' for Active; 'I' for Inactive)
REMARK    1  A    between atoms: C2_2  and  C3_3 
ROOT
HETATM    1  C3  UNL     1      25.342   3.647  50.694  1.00  0.00     0.126 C 
HETATM    2  C4  UNL     1      24.444   2.525  51.043  1.00  0.00    -0.001 C 
HETATM    3  C5  UNL     1      24.284   1.784  52.155  1.00  0.00    -0.012 C 
HETATM    4  C6  UNL     1      23.765   0.767  53.073  1.00  0.00     0.147 C 
HETATM    5  N1  UNL     1      22.719  -0.038  52.519  1.00  0.00    -0.198 NA
HETATM    6  C7  UNL     1      22.378  -1.021  53.545  1.00  0.00     0.144 C 
HETATM    7  O1  UNL     1      21.653   0.600  52.066  1.00  0.00    -0.304 OA
HETATM    8  C8  UNL     1      21.310   1.784  52.642  1.00  0.00     0.194 C 
HETATM    9  C9  UNL     1      20.048   2.422  52.057  1.00  0.00     0.030 C 
HETATM   10  O2  UNL     1      20.207   2.659  50.679  1.00  0.00     0.000 OA
HETATM   11  C10 UNL     1      20.839   3.865  50.194  1.00  0.00    -0.002 A 
HETATM   12  C11 UNL     1      22.046   3.842  49.450  1.00  0.00     0.005 A 
HETATM   13  C12 UNL     1      23.090   4.600  48.820  1.00  0.00     0.009 C 
HETATM   14  C13 UNL     1      23.995   5.431  49.304  1.00  0.00     0.003 C 
HETATM   15  C14 UNL     1      24.335   6.766  48.790  1.00  0.00     0.069 C 
HETATM   16  C15 UNL     1      23.361   7.855  49.027  1.00  0.00     0.040 C 
HETATM   17  C16 UNL     1      22.940   7.838  50.451  1.00  0.00    -0.001 C 
HETATM   18  C17 UNL     1      22.116   6.845  50.747  1.00  0.00     0.089 C 
HETATM   19  N2  UNL     1      21.263   6.269  49.766  1.00  0.00    -0.336 N 
HETATM   20  C18 UNL     1      21.308   6.785  48.446  1.00  0.00     0.113 C 
HETATM   21  C19 UNL     1      20.476   6.250  47.409  1.00  0.00     0.117 C 
HETATM   22  N3  UNL     1      19.812   5.819  46.567  1.00  0.00    -0.190 NA
HETATM   23  C20 UNL     1      22.134   7.779  48.170  1.00  0.00     0.023 C 
HETATM   24  C21 UNL     1      20.483   5.223  50.312  1.00  0.00     0.075 A 
HETATM   25  C22 UNL     1      20.886   3.894  50.163  1.00  0.00     0.077 A 
HETATM   26  N4  UNL     1      24.709   4.900  50.446  1.00  0.00    -0.382 N 
HETATM   27  H24 UNL     1      24.697   5.682  51.167  1.00  0.00     0.160 HD
ENDROOT
BRANCH   1  28
HETATM   28  C2  UNL     1      26.366   3.272  49.693  1.00  0.00    -0.008 C 
HETATM   29  C1  UNL     1      27.130   4.169  49.082  1.00  0.00     0.009 C 
ENDBRANCH   1  28
TORSDOF 1
ENDMDL
MODEL 6
REMARK VINA RESULT:      -7.5      3.187      6.741
REMARK  1 active torsions:
REMARK  status: ('A' for Active; 'I' for Inactive)
REMARK    1  A    between atoms: C2_2  and  C3_3 
ROOT
HETATM    1  C3  UNL     1      21.564   4.383  47.187  1.00  0.00     0.126 C 
HETATM    2  C4  UNL     1      22.432   5.573  47.310  1.00  0.00    -0.001 C 
HETATM    3  C5  UNL     1      22.196   6.897  47.237  1.00  0.00    -0.012 C 
HETATM    4  C6  UNL     1      22.430   8.343  47.243  1.00  0.00     0.147 C 
HETATM    5  N1  UNL     1      23.794   8.710  47.478  1.00  0.00    -0.198 NA
HETATM    6  C7  UNL     1      23.842  10.167  47.387  1.00  0.00     0.144 C 
HETATM    7  O1  UNL     1      24.349   8.261  48.591  1.00  0.00    -0.304 OA
HETATM    8  C8  UNL     1      23.552   8.041  49.672  1.00  0.00     0.194 C 
HETATM    9  C9  UNL     1      24.302   7.547  50.911  1.00  0.00     0.030 C 
HETATM   10  O2  UNL     1      24.972   6.340  50.635  1.00  0.00     0.000 OA
HETATM   11  C10 UNL     1      24.298   5.067  50.740  1.00  0.00    -0.002 A 
HETATM   12  C11 UNL     1      24.109   4.213  49.624  1.00  0.00     0.005 A 
HETATM   13  C12 UNL     1      23.530   3.002  49.115  1.00  0.00     0.009 C 
HETATM   14  C13 UNL     1      22.278   2.603  48.992  1.00  0.00     0.003 C 
HETATM   15  C14 UNL     1      21.718   1.306  49.396  1.00  0.00     0.069 C 
HETATM   16  C15 UNL     1      21.543   1.062  50.845  1.00  0.00     0.040 C 
HETATM   17  C16 UNL     1      20.874   2.234  51.465  1.00  0.00    -0.001 C 
HETATM   18  C17 UNL     1      21.666   3.287  51.594  1.00  0.00     0.089 C 
HETATM   19  N2  UNL     1      23.076   3.146  51.721  1.00  0.00    -0.336 N 
HETATM   20  C18 UNL     1      23.627   1.840  51.709  1.00  0.00     0.113 C 
HETATM   21  C19 UNL     1      25.040   1.626  51.831  1.00  0.00     0.117 C 
HETATM   22  N3  UNL     1      26.177   1.448  51.924  1.00  0.00    -0.190 NA
HETATM   23  C20 UNL     1      22.820   0.800  51.583  1.00  0.00     0.023 C 
HETATM   24  C21 UNL     1      23.711   4.404  51.837  1.00  0.00     0.075 A 
HETATM   25  C22 UNL     1      24.276   5.013  50.714  1.00  0.00     0.077 A 
HETATM   26  N4  UNL     1      21.422   3.588  48.362  1.00  0.00    -0.382 N 
HETATM   27  H24 UNL     1      20.558   3.637  48.980  1.00  0.00     0.160 HD
ENDROOT
BRANCH   1  28
HETATM   28  C2  UNL     1      21.827   3.605  45.954  1.00  0.00    -0.008 C 
HETATM   29  C1  UNL     1      21.303   3.929  44.779  1.00  0.00     0.009 C 
ENDBRANCH   1  28
TORSDOF 1
ENDMDL
MODEL 7
REMARK VINA RESULT:      -7.5      9.348     12.654
REMARK  1 active torsions:
REMARK  status: ('A' for Active; 'I' for Inactive)
REMARK    1  A    between atoms: C2_2  and  C3_3 
ROOT
HETATM    1  C3  UNL     1      29.464   7.103  48.499  1.00  0.00     0.126 C 
HETATM    2  C4  UNL     1      29.465   8.501  48.017  1.00  0.00    -0.001 C 
HETATM    3  C5  UNL     1      29.301   9.688  48.631  1.00  0.00    -0.012 C 
HETATM    4  C6  UNL     1      29.190  11.135  48.830  1.00  0.00     0.147 C 
HETATM    5  N1  UNL     1      29.344  11.901  47.631  1.00  0.00    -0.198 NA
HETATM    6  C7  UNL     1      29.143  13.296  48.013  1.00  0.00     0.144 C 
HETATM    7  O1  UNL     1      30.466  11.727  46.952  1.00  0.00    -0.304 OA
HETATM    8  C8  UNL     1      31.590  11.375  47.633  1.00  0.00     0.194 C 
HETATM    9  C9  UNL     1      32.833  11.224  46.753  1.00  0.00     0.030 C 
HETATM   10  O2  UNL     1      32.622  10.247  45.763  1.00  0.00     0.000 OA
HETATM   11  C10 UNL     1      32.849   8.845  46.033  1.00  0.00    -0.002 A 
HETATM   12  C11 UNL     1      31.808   7.884  45.980  1.00  0.00     0.005 A 
HETATM   13  C12 UNL     1      31.414   6.519  46.186  1.00  0.00     0.009 C 
HETATM   14  C13 UNL     1      31.370   5.765  47.268  1.00  0.00     0.003 C 
HETATM   15  C14 UNL     1      31.891   4.399  47.418  1.00  0.00     0.069 C 
HETATM   16  C15 UNL     1      33.359   4.235  47.492  1.00  0.00     0.040 C 
HETATM   17  C16 UNL     1      33.915   5.210  48.465  1.00  0.00    -0.001 C 
HETATM   18  C17 UNL     1      33.934   6.455  48.015  1.00  0.00     0.089 C 
HETATM   19  N2  UNL     1      34.017   6.740  46.624  1.00  0.00    -0.336 N 
HETATM   20  C18 UNL     1      34.082   5.655  45.715  1.00  0.00     0.113 C 
HETATM   21  C19 UNL     1      34.166   5.872  44.300  1.00  0.00     0.117 C 
HETATM   22  N3  UNL     1      34.228   6.041  43.159  1.00  0.00    -0.190 NA
HETATM   23  C20 UNL     1      34.065   4.419  46.183  1.00  0.00     0.023 C 
HETATM   24  C21 UNL     1      34.014   8.134  46.384  1.00  0.00     0.075 A 
HETATM   25  C22 UNL     1      32.828   8.786  46.039  1.00  0.00     0.077 A 
HETATM   26  N4  UNL     1      30.701   6.402  48.384  1.00  0.00    -0.382 N 
HETATM   27  H24 UNL     1      31.346   6.249  49.216  1.00  0.00     0.160 HD
ENDROOT
BRANCH   1  28
HETATM   28  C2  UNL     1      28.284   6.337  48.038  1.00  0.00    -0.008 C 
HETATM   29  C1  UNL     1      27.971   5.144  48.527  1.00  0.00     0.009 C 
ENDBRANCH   1  28
TORSDOF 1
ENDMDL
MODEL 8
REMARK VINA RESULT:      -7.4      8.696     10.877
REMARK  1 active torsions:
REMARK  status: ('A' for Active; 'I' for Inactive)
REMARK    1  A    between atoms: C2_2  and  C3_3 
ROOT
HETATM    1  C3  UNL     1      28.885   6.029  47.686  1.00  0.00     0.126 C 
HETATM    2  C4  UNL     1      30.298   5.718  47.991  1.00  0.00    -0.001 C 
HETATM    3  C5  UNL     1      31.168   4.814  47.503  1.00  0.00    -0.012 C 
HETATM    4  C6  UNL     1      32.407   4.056  47.309  1.00  0.00     0.147 C 
HETATM    5  N1  UNL     1      33.484   4.473  48.154  1.00  0.00    -0.198 NA
HETATM    6  C7  UNL     1      34.597   3.574  47.864  1.00  0.00     0.144 C 
HETATM    7  O1  UNL     1      33.838   5.746  48.083  1.00  0.00    -0.304 OA
HETATM    8  C8  UNL     1      33.656   6.406  46.908  1.00  0.00     0.194 C 
HETATM    9  C9  UNL     1      34.123   7.864  46.931  1.00  0.00     0.030 C 
HETATM   10  O2  UNL     1      33.439   8.586  47.926  1.00  0.00     0.000 OA
HETATM   11  C10 UNL     1      32.147   9.179  47.667  1.00  0.00    -0.002 A 
HETATM   12  C11 UNL     1      30.978   8.787  48.365  1.00  0.00     0.005 A 
HETATM   13  C12 UNL     1      29.555   8.921  48.510  1.00  0.00     0.009 C 
HETATM   14  C13 UNL     1      28.554   8.641  47.697  1.00  0.00     0.003 C 
HETATM   15  C14 UNL     1      27.413   9.508  47.367  1.00  0.00     0.069 C 
HETATM   16  C15 UNL     1      27.671  10.664  46.480  1.00  0.00     0.040 C 
HETATM   17  C16 UNL     1      28.459  10.216  45.303  1.00  0.00    -0.001 C 
HETATM   18  C17 UNL     1      29.728   9.965  45.580  1.00  0.00     0.089 C 
HETATM   19  N2  UNL     1      30.397  10.614  46.654  1.00  0.00    -0.336 N 
HETATM   20  C18 UNL     1      29.672  11.550  47.433  1.00  0.00     0.113 C 
HETATM   21  C19 UNL     1      30.285  12.239  48.531  1.00  0.00     0.117 C 
HETATM   22  N3  UNL     1      30.772  12.794  49.420  1.00  0.00    -0.190 NA
HETATM   23  C20 UNL     1      28.406  11.792  47.139  1.00  0.00     0.023 C 
HETATM   24  C21 UNL     1      31.739  10.181  46.762  1.00  0.00     0.075 A 
HETATM   25  C22 UNL     1      32.085   9.184  47.678  1.00  0.00     0.077 A 
HETATM   26  N4  UNL     1      28.635   7.314  47.122  1.00  0.00    -0.382 N 
HETATM   27  H24 UNL     1      28.454   7.453  46.083  1.00  0.00     0.160 HD
ENDROOT
BRANCH   1  28
HETATM   28  C2  UNL     1      27.965   5.657  48.786  1.00  0.00    -0.008 C 
HETATM   29  C1  UNL     1      27.305   4.506  48.808  1.00  0.00     0.009 C 
ENDBRANCH   1  28
TORSDOF 1
ENDMDL
MODEL 9
REMARK VINA RESULT:      -7.4      2.317      4.373
REMARK  1 active torsions:
REMARK  status: ('A' for Active; 'I' for Inactive)
REMARK    1  A    between atoms: C2_2  and  C3_3 
ROOT
HETATM    1  C3  UNL     1      19.332   2.826  50.971  1.00  0.00     0.126 C 
HETATM    2  C4  UNL     1      20.090   2.136  52.037  1.00  0.00    -0.001 C 
HETATM    3  C5  UNL     1      20.138   0.856  52.452  1.00  0.00    -0.012 C 
HETATM    4  C6  UNL     1      20.516  -0.332  53.221  1.00  0.00     0.147 C 
HETATM    5  N1  UNL     1      21.479  -0.078  54.249  1.00  0.00    -0.198 NA
HETATM    6  C7  UNL     1      21.681  -1.350  54.937  1.00  0.00     0.144 C 
HETATM    7  O1  UNL     1      22.621   0.472  53.872  1.00  0.00    -0.304 OA
HETATM    8  C8  UNL     1      23.079   0.224  52.616  1.00  0.00     0.194 C 
HETATM    9  C9  UNL     1      24.419   0.891  52.296  1.00  0.00     0.030 C 
HETATM   10  O2  UNL     1      24.322   2.288  52.437  1.00  0.00     0.000 OA
HETATM   11  C10 UNL     1      23.842   3.118  51.356  1.00  0.00    -0.002 A 
HETATM   12  C11 UNL     1      22.660   3.893  51.462  1.00  0.00     0.005 A 
HETATM   13  C12 UNL     1      21.723   4.763  50.808  1.00  0.00     0.009 C 
HETATM   14  C13 UNL     1      20.906   4.576  49.788  1.00  0.00     0.003 C 
HETATM   15  C14 UNL     1      20.730   5.452  48.621  1.00  0.00     0.069 C 
HETATM   16  C15 UNL     1      21.813   5.469  47.614  1.00  0.00     0.040 C 
HETATM   17  C16 UNL     1      22.194   4.073  47.277  1.00  0.00    -0.001 C 
HETATM   18  C17 UNL     1      22.894   3.472  48.226  1.00  0.00     0.089 C 
HETATM   19  N2  UNL     1      23.701   4.210  49.135  1.00  0.00    -0.336 N 
HETATM   20  C18 UNL     1      23.747   5.620  49.004  1.00  0.00     0.113 C 
HETATM   21  C19 UNL     1      24.541   6.424  49.888  1.00  0.00     0.117 C 
HETATM   22  N3  UNL     1      25.173   7.078  50.599  1.00  0.00    -0.190 NA
HETATM   23  C20 UNL     1      23.045   6.203  48.048  1.00  0.00     0.023 C 
HETATM   24  C21 UNL     1      24.345   3.357  50.061  1.00  0.00     0.075 A 
HETATM   25  C22 UNL     1      23.799   3.159  51.331  1.00  0.00     0.077 A 
HETATM   26  N4  UNL     1      20.107   3.373  49.906  1.00  0.00    -0.382 N 
HETATM   27  H24 UNL     1      20.190   2.894  48.960  1.00  0.00     0.160 HD
ENDROOT
BRANCH   1  28
HETATM   28  C2  UNL     1      18.298   3.743  51.504  1.00  0.00    -0.008 C 
HETATM   29  C1  UNL     1      17.309   4.216  50.757  1.00  0.00     0.009 C 
ENDBRANCH   1  28
TORSDOF 1
ENDMDL
