MODEL 1
REMARK VINA RESULT:      -7.9      0.000      0.000
REMARK  4 active torsions:
REMARK  status: ('A' for Active; 'I' for Inactive)
REMARK    1  A    between atoms: C6_8  and  C7_9 
REMARK    2  A    between atoms: C7_9  and  C8_10 
REMARK    3  A    between atoms: C8_10  and  N3_11 
REMARK    4  A    between atoms: N3_11  and  C9_12 
ROOT
HETATM    1  N1  UNL     1      25.647  -0.899  55.557  1.00  0.00    -0.191 NA
HETATM    2  C1  UNL     1      24.589  -0.848  55.126  1.00  0.00     0.101 C 
HETATM    3  C2  UNL     1      23.251  -0.788  54.595  1.00  0.00     0.069 A 
HETATM    4  C3  UNL     1      22.313  -1.733  55.022  1.00  0.00     0.140 A 
HETATM    5  N2  UNL     1      21.058  -1.697  54.540  1.00  0.00    -0.259 NA
HETATM    6  C4  UNL     1      20.726  -0.741  53.646  1.00  0.00     0.067 A 
HETATM    7  C5  UNL     1      21.618   0.211  53.196  1.00  0.00     0.001 A 
HETATM    8  C6  UNL     1      22.916   0.189  53.682  1.00  0.00    -0.022 A 
HETATM    9  C15 UNL     1      20.585   0.802  52.346  1.00  0.00     0.017 A 
HETATM   10  C16 UNL     1      19.744  -0.107  52.778  1.00  0.00     0.033 A 
ENDROOT
BRANCH   8  11
HETATM   11  C7  UNL     1      23.902   1.184  53.231  1.00  0.00     0.060 C 
BRANCH  11  12
HETATM   12  C8  UNL     1      24.152   1.203  51.757  1.00  0.00     0.124 C 
BRANCH  12  13
HETATM   13  N3  UNL     1      25.519   1.693  51.577  1.00  0.00    -0.390 N 
HETATM   14  H6  UNL     1      25.770   2.510  50.965  1.00  0.00     0.159 HD
BRANCH  13  15
HETATM   15  C9  UNL     1      26.597   1.052  52.252  1.00  0.00     0.029 A 
HETATM   16  C10 UNL     1      27.539   1.763  52.997  1.00  0.00     0.032 A 
HETATM   17  C11 UNL     1      28.572   1.107  53.638  1.00  0.00     0.046 A 
HETATM   18  C12 UNL     1      28.710  -0.265  53.565  1.00  0.00     0.138 A 
HETATM   19  F1  UNL     1      29.770  -0.771  54.243  1.00  0.00    -0.204 F 
HETATM   20  C13 UNL     1      27.784  -0.978  52.829  1.00  0.00     0.074 A 
HETATM   21 CL1  UNL     1      28.021  -2.714  52.782  1.00  0.00    -0.081 Cl
HETATM   22  C14 UNL     1      26.747  -0.326  52.186  1.00  0.00     0.056 A 
ENDBRANCH  13  15
ENDBRANCH  12  13
ENDBRANCH  11  12
ENDBRANCH   8  11
TORSDOF 4
ENDMDL
MODEL 2
REMARK VINA RESULT:      -7.9      1.751      3.070
REMARK  4 active torsions:
REMARK  status: ('A' for Active; 'I' for Inactive)
REMARK    1  A    between atoms: C6_8  and  C7_9 
REMARK    2  A    between atoms: C7_9  and  C8_10 
REMARK    3  A    between atoms: C8_10  and  N3_11 
REMARK    4  A    between atoms: N3_11  and  C9_12 
ROOT
HETATM    1  N1  UNL     1      21.592   4.907  51.451  1.00  0.00    -0.191 NA
HETATM    2  C1  UNL     1      21.638   3.837  51.850  1.00  0.00     0.101 C 
HETATM    3  C2  UNL     1      21.685   2.485  52.345  1.00  0.00     0.069 A 
HETATM    4  C3  UNL     1      20.501   1.742  52.393  1.00  0.00     0.140 A 
HETATM    5  N2  UNL     1      20.521   0.477  52.851  1.00  0.00    -0.259 NA
HETATM    6  C4  UNL     1      21.694  -0.054  53.258  1.00  0.00     0.067 A 
HETATM    7  C5  UNL     1      22.886   0.641  53.229  1.00  0.00     0.001 A 
HETATM    8  C6  UNL     1      22.884   1.945  52.760  1.00  0.00    -0.022 A 
HETATM    9  C15 UNL     1      23.594  -0.517  53.775  1.00  0.00     0.017 A 
HETATM   10  C16 UNL     1      22.457  -1.170  53.800  1.00  0.00     0.033 A 
ENDROOT
BRANCH   8  11
HETATM   11  C7  UNL     1      24.131   2.725  52.711  1.00  0.00     0.060 C 
BRANCH  11  12
HETATM   12  C8  UNL     1      24.889   2.623  51.426  1.00  0.00     0.124 C 
BRANCH  12  13
HETATM   13  N3  UNL     1      26.291   2.889  51.753  1.00  0.00    -0.390 N 
HETATM   14  H6  UNL     1      26.776   3.797  51.544  1.00  0.00     0.159 HD
BRANCH  13  15
HETATM   15  C9  UNL     1      27.074   1.885  52.391  1.00  0.00     0.029 A 
HETATM   16  C10 UNL     1      28.159   2.194  53.212  1.00  0.00     0.032 A 
HETATM   17  C11 UNL     1      28.896   1.193  53.813  1.00  0.00     0.046 A 
HETATM   18  C12 UNL     1      28.589  -0.141  53.626  1.00  0.00     0.138 A 
HETATM   19  F1  UNL     1      29.398  -1.012  54.279  1.00  0.00    -0.204 F 
HETATM   20  C13 UNL     1      27.517  -0.458  52.815  1.00  0.00     0.074 A 
HETATM   21 CL1  UNL     1      27.185  -2.168  52.623  1.00  0.00    -0.081 Cl
HETATM   22  C14 UNL     1      26.775   0.542  52.211  1.00  0.00     0.056 A 
ENDBRANCH  13  15
ENDBRANCH  12  13
ENDBRANCH  11  12
ENDBRANCH   8  11
TORSDOF 4
ENDMDL
MODEL 3
REMARK VINA RESULT:      -7.5      4.336      5.467
REMARK  4 active torsions:
REMARK  status: ('A' for Active; 'I' for Inactive)
REMARK    1  A    between atoms: C6_8  and  C7_9 
REMARK    2  A    between atoms: C7_9  and  C8_10 
REMARK    3  A    between atoms: C8_10  and  N3_11 
REMARK    4  A    between atoms: N3_11  and  C9_12 
ROOT
HETATM    1  N1  UNL     1      28.368   2.519  52.745  1.00  0.00    -0.191 NA
HETATM    2  C1  UNL     1      27.473   1.850  52.988  1.00  0.00     0.101 C 
HETATM    3  C2  UNL     1      26.354   1.000  53.305  1.00  0.00     0.069 A 
HETATM    4  C3  UNL     1      26.601  -0.282  53.806  1.00  0.00     0.140 A 
HETATM    5  N2  UNL     1      25.572  -1.093  54.109  1.00  0.00    -0.259 NA
HETATM    6  C4  UNL     1      24.310  -0.649  53.922  1.00  0.00     0.067 A 
HETATM    7  C5  UNL     1      24.019   0.607  53.430  1.00  0.00     0.001 A 
HETATM    8  C6  UNL     1      25.067   1.456  53.112  1.00  0.00    -0.022 A 
HETATM    9  C15 UNL     1      22.586   0.330  53.521  1.00  0.00     0.017 A 
HETATM   10  C16 UNL     1      22.871  -0.862  53.987  1.00  0.00     0.033 A 
ENDROOT
BRANCH   8  11
HETATM   11  C7  UNL     1      24.806   2.805  52.584  1.00  0.00     0.060 C 
BRANCH  11  12
HETATM   12  C8  UNL     1      24.068   2.843  51.285  1.00  0.00     0.124 C 
BRANCH  12  13
HETATM   13  N3  UNL     1      25.081   2.758  50.232  1.00  0.00    -0.390 N 
HETATM   14  H6  UNL     1      25.486   1.853  49.884  1.00  0.00     0.159 HD
BRANCH  13  15
HETATM   15  C9  UNL     1      25.570   3.947  49.619  1.00  0.00     0.029 A 
HETATM   16  C10 UNL     1      24.744   5.035  49.336  1.00  0.00     0.032 A 
HETATM   17  C11 UNL     1      25.254   6.172  48.740  1.00  0.00     0.046 A 
HETATM   18  C12 UNL     1      26.590   6.273  48.405  1.00  0.00     0.138 A 
HETATM   19  F1  UNL     1      26.948   7.446  47.827  1.00  0.00    -0.204 F 
HETATM   20  C13 UNL     1      27.416   5.201  48.681  1.00  0.00     0.074 A 
HETATM   21 CL1  UNL     1      29.098   5.400  48.230  1.00  0.00    -0.081 Cl
HETATM   22  C14 UNL     1      26.910   4.061  49.278  1.00  0.00     0.056 A 
ENDBRANCH  13  15
ENDBRANCH  12  13
ENDBRANCH  11  12
ENDBRANCH   8  11
TORSDOF 4
ENDMDL
MODEL 4
REMARK VINA RESULT:      -7.3      2.053      3.574
REMARK  4 active torsions:
REMARK  status: ('A' for Active; 'I' for Inactive)
REMARK    1  A    between atoms: C6_8  and  C7_9 
REMARK    2  A    between atoms: C7_9  and  C8_10 
REMARK    3  A    between atoms: C8_10  and  N3_11 
REMARK    4  A    between atoms: N3_11  and  C9_12 
ROOT
HETATM    1  N1  UNL     1      23.549   4.953  49.417  1.00  0.00    -0.191 NA
HETATM    2  C1  UNL     1      23.192   3.988  49.917  1.00  0.00     0.101 C 
HETATM    3  C2  UNL     1      22.745   2.765  50.533  1.00  0.00     0.069 A 
HETATM    4  C3  UNL     1      22.105   1.806  49.743  1.00  0.00     0.140 A 
HETATM    5  N2  UNL     1      21.679   0.656  50.296  1.00  0.00    -0.259 NA
HETATM    6  C4  UNL     1      21.879   0.451  51.616  1.00  0.00     0.067 A 
HETATM    7  C5  UNL     1      22.505   1.369  52.435  1.00  0.00     0.001 A 
HETATM    8  C6  UNL     1      22.950   2.559  51.881  1.00  0.00    -0.022 A 
HETATM    9  C15 UNL     1      22.340   0.482  53.585  1.00  0.00     0.017 A 
HETATM   10  C16 UNL     1      21.746  -0.385  52.801  1.00  0.00     0.033 A 
ENDROOT
BRANCH   8  11
HETATM   11  C7  UNL     1      23.623   3.568  52.714  1.00  0.00     0.060 C 
BRANCH  11  12
HETATM   12  C8  UNL     1      24.822   3.076  53.458  1.00  0.00     0.124 C 
BRANCH  12  13
HETATM   13  N3  UNL     1      25.796   2.667  52.446  1.00  0.00    -0.390 N 
HETATM   14  H6  UNL     1      25.844   3.081  51.481  1.00  0.00     0.159 HD
BRANCH  13  15
HETATM   15  C9  UNL     1      26.752   1.654  52.748  1.00  0.00     0.029 A 
HETATM   16  C10 UNL     1      27.992   1.944  53.319  1.00  0.00     0.032 A 
HETATM   17  C11 UNL     1      28.893   0.935  53.597  1.00  0.00     0.046 A 
HETATM   18  C12 UNL     1      28.603  -0.387  53.322  1.00  0.00     0.138 A 
HETATM   19  F1  UNL     1      29.582  -1.268  53.648  1.00  0.00    -0.204 F 
HETATM   20  C13 UNL     1      27.379  -0.685  52.757  1.00  0.00     0.074 A 
HETATM   21 CL1  UNL     1      27.079  -2.381  52.436  1.00  0.00    -0.081 Cl
HETATM   22  C14 UNL     1      26.472   0.322  52.477  1.00  0.00     0.056 A 
ENDBRANCH  13  15
ENDBRANCH  12  13
ENDBRANCH  11  12
ENDBRANCH   8  11
TORSDOF 4
ENDMDL
MODEL 5
REMARK VINA RESULT:      -7.3      4.475      6.969
REMARK  4 active torsions:
REMARK  status: ('A' for Active; 'I' for Inactive)
REMARK    1  A    between atoms: C6_8  and  C7_9 
REMARK    2  A    between atoms: C7_9  and  C8_10 
REMARK    3  A    between atoms: C8_10  and  N3_11 
REMARK    4  A    between atoms: N3_11  and  C9_12 
ROOT
HETATM    1  N1  UNL     1      22.574   4.711  51.617  1.00  0.00    -0.191 NA
HETATM    2  C1  UNL     1      23.412   5.311  51.122  1.00  0.00     0.101 C 
HETATM    3  C2  UNL     1      24.468   6.076  50.511  1.00  0.00     0.069 A 
HETATM    4  C3  UNL     1      24.551   7.446  50.777  1.00  0.00     0.140 A 
HETATM    5  N2  UNL     1      25.529   8.181  50.217  1.00  0.00    -0.259 NA
HETATM    6  C4  UNL     1      26.420   7.574  49.403  1.00  0.00     0.067 A 
HETATM    7  C5  UNL     1      26.377   6.226  49.112  1.00  0.00     0.001 A 
HETATM    8  C6  UNL     1      25.376   5.454  49.679  1.00  0.00    -0.022 A 
HETATM    9  C15 UNL     1      27.557   6.356  48.257  1.00  0.00     0.017 A 
HETATM   10  C16 UNL     1      27.589   7.636  48.538  1.00  0.00     0.033 A 
ENDROOT
BRANCH   8  11
HETATM   11  C7  UNL     1      25.291   4.012  49.398  1.00  0.00     0.060 C 
BRANCH  11  12
HETATM   12  C8  UNL     1      26.538   3.239  49.680  1.00  0.00     0.124 C 
BRANCH  12  13
HETATM   13  N3  UNL     1      26.678   3.198  51.136  1.00  0.00    -0.390 N 
HETATM   14  H6  UNL     1      27.191   3.926  51.694  1.00  0.00     0.159 HD
BRANCH  13  15
HETATM   15  C9  UNL     1      26.100   2.127  51.876  1.00  0.00     0.029 A 
HETATM   16  C10 UNL     1      24.955   2.290  52.657  1.00  0.00     0.032 A 
HETATM   17  C11 UNL     1      24.423   1.228  53.361  1.00  0.00     0.046 A 
HETATM   18  C12 UNL     1      25.000  -0.026  53.318  1.00  0.00     0.138 A 
HETATM   19  F1  UNL     1      24.369  -0.972  54.058  1.00  0.00    -0.204 F 
HETATM   20  C13 UNL     1      26.133  -0.200  52.548  1.00  0.00     0.074 A 
HETATM   21 CL1  UNL     1      26.809  -1.816  52.540  1.00  0.00    -0.081 Cl
HETATM   22  C14 UNL     1      26.669   0.862  51.841  1.00  0.00     0.056 A 
ENDBRANCH  13  15
ENDBRANCH  12  13
ENDBRANCH  11  12
ENDBRANCH   8  11
TORSDOF 4
ENDMDL
MODEL 6
REMARK VINA RESULT:      -7.3      2.171      3.769
REMARK  4 active torsions:
REMARK  status: ('A' for Active; 'I' for Inactive)
REMARK    1  A    between atoms: C6_8  and  C7_9 
REMARK    2  A    between atoms: C7_9  and  C8_10 
REMARK    3  A    between atoms: C8_10  and  N3_11 
REMARK    4  A    between atoms: N3_11  and  C9_12 
ROOT
HETATM    1  N1  UNL     1      19.370  -0.884  53.451  1.00  0.00    -0.191 NA
HETATM    2  C1  UNL     1      20.031   0.009  53.179  1.00  0.00     0.101 C 
HETATM    3  C2  UNL     1      20.852   1.143  52.842  1.00  0.00     0.069 A 
HETATM    4  C3  UNL     1      20.233   2.357  52.529  1.00  0.00     0.140 A 
HETATM    5  N2  UNL     1      20.980   3.430  52.211  1.00  0.00    -0.259 NA
HETATM    6  C4  UNL     1      22.325   3.312  52.202  1.00  0.00     0.067 A 
HETATM    7  C5  UNL     1      22.980   2.135  52.504  1.00  0.00     0.001 A 
HETATM    8  C6  UNL     1      22.226   1.019  52.833  1.00  0.00    -0.022 A 
HETATM    9  C15 UNL     1      24.275   2.779  52.287  1.00  0.00     0.017 A 
HETATM   10  C16 UNL     1      23.645   3.893  52.001  1.00  0.00     0.033 A 
ENDROOT
BRANCH   8  11
HETATM   11  C7  UNL     1      22.880  -0.257  53.162  1.00  0.00     0.060 C 
BRANCH  11  12
HETATM   12  C8  UNL     1      24.196  -0.131  53.859  1.00  0.00     0.124 C 
BRANCH  12  13
HETATM   13  N3  UNL     1      25.148  -0.933  53.091  1.00  0.00    -0.390 N 
HETATM   14  H6  UNL     1      24.867  -1.712  52.443  1.00  0.00     0.159 HD
BRANCH  13  15
HETATM   15  C9  UNL     1      26.545  -0.675  53.198  1.00  0.00     0.029 A 
HETATM   16  C10 UNL     1      27.502  -1.686  53.100  1.00  0.00     0.032 A 
HETATM   17  C11 UNL     1      28.847  -1.397  53.210  1.00  0.00     0.046 A 
HETATM   18  C12 UNL     1      29.293  -0.107  53.421  1.00  0.00     0.138 A 
HETATM   19  F1  UNL     1      30.640   0.026  53.508  1.00  0.00    -0.204 F 
HETATM   20  C13 UNL     1      28.355   0.901  53.521  1.00  0.00     0.074 A 
HETATM   21 CL1  UNL     1      28.992   2.512  53.788  1.00  0.00    -0.081 Cl
HETATM   22  C14 UNL     1      27.005   0.617  53.411  1.00  0.00     0.056 A 
ENDBRANCH  13  15
ENDBRANCH  12  13
ENDBRANCH  11  12
ENDBRANCH   8  11
TORSDOF 4
ENDMDL
MODEL 7
REMARK VINA RESULT:      -7.2      3.203      5.709
REMARK  4 active torsions:
REMARK  status: ('A' for Active; 'I' for Inactive)
REMARK    1  A    between atoms: C6_8  and  C7_9 
REMARK    2  A    between atoms: C7_9  and  C8_10 
REMARK    3  A    between atoms: C8_10  and  N3_11 
REMARK    4  A    between atoms: N3_11  and  C9_12 
ROOT
HETATM    1  N1  UNL     1      20.284   3.688  50.191  1.00  0.00    -0.191 NA
HETATM    2  C1  UNL     1      21.397   3.853  49.986  1.00  0.00     0.101 C 
HETATM    3  C2  UNL     1      22.797   4.075  49.728  1.00  0.00     0.069 A 
HETATM    4  C3  UNL     1      23.181   5.224  49.030  1.00  0.00     0.140 A 
HETATM    5  N2  UNL     1      24.482   5.453  48.778  1.00  0.00    -0.259 NA
HETATM    6  C4  UNL     1      25.400   4.560  49.209  1.00  0.00     0.067 A 
HETATM    7  C5  UNL     1      25.067   3.413  49.900  1.00  0.00     0.001 A 
HETATM    8  C6  UNL     1      23.731   3.161  50.169  1.00  0.00    -0.022 A 
HETATM    9  C15 UNL     1      26.478   3.036  49.988  1.00  0.00     0.017 A 
HETATM   10  C16 UNL     1      26.785   4.128  49.330  1.00  0.00     0.033 A 
ENDROOT
BRANCH   8  11
HETATM   11  C7  UNL     1      23.329   1.951  50.903  1.00  0.00     0.060 C 
BRANCH  11  12
HETATM   12  C8  UNL     1      23.671   1.953  52.358  1.00  0.00     0.124 C 
BRANCH  12  13
HETATM   13  N3  UNL     1      24.162   0.609  52.668  1.00  0.00    -0.390 N 
HETATM   14  H6  UNL     1      23.540  -0.233  52.757  1.00  0.00     0.159 HD
BRANCH  13  15
HETATM   15  C9  UNL     1      25.556   0.390  52.864  1.00  0.00     0.029 A 
HETATM   16  C10 UNL     1      26.133  -0.877  52.773  1.00  0.00     0.032 A 
HETATM   17  C11 UNL     1      27.489  -1.050  52.970  1.00  0.00     0.046 A 
HETATM   18  C12 UNL     1      28.317   0.015  53.263  1.00  0.00     0.138 A 
HETATM   19  F1  UNL     1      29.624  -0.305  53.430  1.00  0.00    -0.204 F 
HETATM   20  C13 UNL     1      27.756   1.274  53.356  1.00  0.00     0.074 A 
HETATM   21 CL1  UNL     1      28.866   2.577  53.730  1.00  0.00    -0.081 Cl
HETATM   22  C14 UNL     1      26.398   1.453  53.159  1.00  0.00     0.056 A 
ENDBRANCH  13  15
ENDBRANCH  12  13
ENDBRANCH  11  12
ENDBRANCH   8  11
TORSDOF 4
ENDMDL
MODEL 8
REMARK VINA RESULT:      -7.1      4.624      5.792
REMARK  4 active torsions:
REMARK  status: ('A' for Active; 'I' for Inactive)
REMARK    1  A    between atoms: C6_8  and  C7_9 
REMARK    2  A    between atoms: C7_9  and  C8_10 
REMARK    3  A    between atoms: C8_10  and  N3_11 
REMARK    4  A    between atoms: N3_11  and  C9_12 
ROOT
HETATM    1  N1  UNL     1      27.660   2.188  52.294  1.00  0.00    -0.191 NA
HETATM    2  C1  UNL     1      26.841   1.536  52.756  1.00  0.00     0.101 C 
HETATM    3  C2  UNL     1      25.818   0.716  53.350  1.00  0.00     0.069 A 
HETATM    4  C3  UNL     1      26.153  -0.103  54.433  1.00  0.00     0.140 A 
HETATM    5  N2  UNL     1      25.213  -0.878  55.004  1.00  0.00    -0.259 NA
HETATM    6  C4  UNL     1      23.954  -0.848  54.516  1.00  0.00     0.067 A 
HETATM    7  C5  UNL     1      23.578  -0.057  53.450  1.00  0.00     0.001 A 
HETATM    8  C6  UNL     1      24.533   0.748  52.849  1.00  0.00    -0.022 A 
HETATM    9  C15 UNL     1      22.206  -0.555  53.542  1.00  0.00     0.017 A 
HETATM   10  C16 UNL     1      22.572  -1.305  54.554  1.00  0.00     0.033 A 
ENDROOT
BRANCH   8  11
HETATM   11  C7  UNL     1      24.179   1.609  51.710  1.00  0.00     0.060 C 
BRANCH  11  12
HETATM   12  C8  UNL     1      23.387   2.827  52.061  1.00  0.00     0.124 C 
BRANCH  12  13
HETATM   13  N3  UNL     1      24.347   3.926  52.168  1.00  0.00    -0.390 N 
HETATM   14  H6  UNL     1      24.857   4.172  53.054  1.00  0.00     0.159 HD
BRANCH  13  15
HETATM   15  C9  UNL     1      24.635   4.731  51.029  1.00  0.00     0.029 A 
HETATM   16  C10 UNL     1      25.638   4.403  50.116  1.00  0.00     0.032 A 
HETATM   17  C11 UNL     1      25.889   5.208  49.023  1.00  0.00     0.046 A 
HETATM   18  C12 UNL     1      25.163   6.360  48.794  1.00  0.00     0.138 A 
HETATM   19  F1  UNL     1      25.519   7.050  47.682  1.00  0.00    -0.204 F 
HETATM   20  C13 UNL     1      24.168   6.695  49.691  1.00  0.00     0.074 A 
HETATM   21 CL1  UNL     1      23.287   8.168  49.338  1.00  0.00    -0.081 Cl
HETATM   22  C14 UNL     1      23.912   5.891  50.788  1.00  0.00     0.056 A 
ENDBRANCH  13  15
ENDBRANCH  12  13
ENDBRANCH  11  12
ENDBRANCH   8  11
TORSDOF 4
ENDMDL
MODEL 9
REMARK VINA RESULT:      -6.9      2.220      3.386
REMARK  4 active torsions:
REMARK  status: ('A' for Active; 'I' for Inactive)
REMARK    1  A    between atoms: C6_8  and  C7_9 
REMARK    2  A    between atoms: C7_9  and  C8_10 
REMARK    3  A    between atoms: C8_10  and  N3_11 
REMARK    4  A    between atoms: N3_11  and  C9_12 
ROOT
HETATM    1  N1  UNL     1      22.385   0.124  53.862  1.00  0.00    -0.191 NA
HETATM    2  C1  UNL     1      22.345   0.553  52.802  1.00  0.00     0.101 C 
HETATM    3  C2  UNL     1      22.280   1.087  51.467  1.00  0.00     0.069 A 
HETATM    4  C3  UNL     1      21.464   0.453  50.525  1.00  0.00     0.140 A 
HETATM    5  N2  UNL     1      21.388   0.935  49.271  1.00  0.00    -0.259 NA
HETATM    6  C4  UNL     1      22.108   2.030  48.944  1.00  0.00     0.067 A 
HETATM    7  C5  UNL     1      22.927   2.687  49.840  1.00  0.00     0.001 A 
HETATM    8  C6  UNL     1      23.018   2.205  51.136  1.00  0.00    -0.022 A 
HETATM    9  C15 UNL     1      23.302   3.656  48.811  1.00  0.00     0.017 A 
HETATM   10  C16 UNL     1      22.523   3.026  47.966  1.00  0.00     0.033 A 
ENDROOT
BRANCH   8  11
HETATM   11  C7  UNL     1      23.878   2.872  52.126  1.00  0.00     0.060 C 
BRANCH  11  12
HETATM   12  C8  UNL     1      25.340   2.836  51.818  1.00  0.00     0.124 C 
BRANCH  12  13
HETATM   13  N3  UNL     1      25.679   1.431  51.588  1.00  0.00    -0.390 N 
HETATM   14  H6  UNL     1      25.147   0.802  50.935  1.00  0.00     0.159 HD
BRANCH  13  15
HETATM   15  C9  UNL     1      26.786   0.847  52.268  1.00  0.00     0.029 A 
HETATM   16  C10 UNL     1      27.736   1.612  52.944  1.00  0.00     0.032 A 
HETATM   17  C11 UNL     1      28.797   1.009  53.591  1.00  0.00     0.046 A 
HETATM   18  C12 UNL     1      28.955  -0.362  53.593  1.00  0.00     0.138 A 
HETATM   19  F1  UNL     1      30.041  -0.813  54.269  1.00  0.00    -0.204 F 
HETATM   20  C13 UNL     1      28.020  -1.130  52.926  1.00  0.00     0.074 A 
HETATM   21 CL1  UNL     1      28.283  -2.862  52.971  1.00  0.00    -0.081 Cl
HETATM   22  C14 UNL     1      26.955  -0.531  52.277  1.00  0.00     0.056 A 
ENDBRANCH  13  15
ENDBRANCH  12  13
ENDBRANCH  11  12
ENDBRANCH   8  11
TORSDOF 4
ENDMDL
