MODEL 1
REMARK VINA RESULT:      -9.3      0.000      0.000
REMARK  2 active torsions:
REMARK  status: ('A' for Active; 'I' for Inactive)
REMARK       I    between atoms: C1_2  and  N1_3 
REMARK    1  A    between atoms: C1_2  and  C16_22 
REMARK    2  A    between atoms: N1_3  and  C2_4 
ROOT
HETATM    1  C2  UNL     1      23.959   0.991  53.390  1.00  0.00     0.039 C 
HETATM    2  C3  UNL     1      23.038   0.160  53.821  1.00  0.00     0.027 C 
HETATM    3  C4  UNL     1      21.941  -0.722  54.235  1.00  0.00    -0.002 C 
HETATM    4  C5  UNL     1      20.674  -0.852  53.891  1.00  0.00    -0.020 C 
HETATM    5  C6  UNL     1      19.545  -0.352  53.005  1.00  0.00     0.098 C 
HETATM    6  C7  UNL     1      20.203   0.645  52.099  1.00  0.00     0.077 A 
HETATM    7  N2  UNL     1      20.619   1.690  52.888  1.00  0.00    -0.288 NA
HETATM    8  C8  UNL     1      21.356   2.641  52.298  1.00  0.00     0.271 A 
HETATM    9  C9  UNL     1      21.538   2.340  50.978  1.00  0.00    -0.003 A 
HETATM   10  C10 UNL     1      21.163   1.347  50.124  1.00  0.00     0.082 A 
HETATM   11  N3  UNL     1      20.414   0.408  50.783  1.00  0.00    -0.240 NA
HETATM   12  C11 UNL     1      21.327   1.009  48.750  1.00  0.00     0.148 C 
HETATM   13  N4  UNL     1      21.664   1.982  47.964  1.00  0.00    -0.271 NA
HETATM   14  C12 UNL     1      22.818   2.842  48.093  1.00  0.00     0.114 C 
HETATM   15  C13 UNL     1      22.966   3.449  49.277  1.00  0.00     0.020 C 
HETATM   16  C14 UNL     1      22.524   3.405  50.690  1.00  0.00     0.125 C 
HETATM   17  N5  UNL     1      23.728   2.940  51.464  1.00  0.00    -0.425 NA
HETATM   18  C15 UNL     1      23.611   1.991  52.338  1.00  0.00     0.347 C 
ENDROOT
BRANCH   1  19
HETATM   19  N1  UNL     1      25.355   1.061  53.812  1.00  0.00    -0.324 N 
HETATM   20  C1  UNL     1      25.941  -0.121  53.317  1.00  0.00     0.256 C 
HETATM   21  O1  UNL     1      25.039  -0.788  52.698  1.00  0.00    -0.267 OA
HETATM   22  H1  UNL     1      26.105   1.626  54.327  1.00  0.00     0.169 HD
BRANCH  20  23
HETATM   23  C16 UNL     1      27.250  -0.740  53.332  1.00  0.00     0.032 A 
HETATM   24  C17 UNL     1      28.318   0.037  53.778  1.00  0.00     0.017 A 
HETATM   25  C18 UNL     1      29.566  -0.533  53.769  1.00  0.00     0.001 A 
HETATM   26  C19 UNL     1      29.846  -1.798  53.359  1.00  0.00     0.000 A 
HETATM   27  C20 UNL     1      28.718  -2.513  52.926  1.00  0.00     0.001 A 
HETATM   28  C21 UNL     1      27.398  -2.025  52.895  1.00  0.00     0.017 A 
ENDBRANCH  20  23
ENDBRANCH   1  19
TORSDOF 2
ENDMDL
MODEL 2
REMARK VINA RESULT:      -9.2      3.030      5.730
REMARK  2 active torsions:
REMARK  status: ('A' for Active; 'I' for Inactive)
REMARK       I    between atoms: C1_2  and  N1_3 
REMARK    1  A    between atoms: C1_2  and  C16_22 
REMARK    2  A    between atoms: N1_3  and  C2_4 
ROOT
HETATM    1  C2  UNL     1      23.176   3.682  51.771  1.00  0.00     0.039 C 
HETATM    2  C3  UNL     1      21.939   4.072  51.566  1.00  0.00     0.027 C 
HETATM    3  C4  UNL     1      20.526   4.407  51.352  1.00  0.00    -0.002 C 
HETATM    4  C5  UNL     1      19.399   3.721  51.358  1.00  0.00    -0.020 C 
HETATM    5  C6  UNL     1      18.743   2.363  51.544  1.00  0.00     0.098 C 
HETATM    6  C7  UNL     1      19.864   1.474  51.992  1.00  0.00     0.077 A 
HETATM    7  N2  UNL     1      20.745   1.380  50.942  1.00  0.00    -0.288 NA
HETATM    8  C8  UNL     1      21.895   0.733  51.171  1.00  0.00     0.271 A 
HETATM    9  C9  UNL     1      21.936   0.292  52.463  1.00  0.00    -0.003 A 
HETATM   10  C10 UNL     1      21.120   0.333  53.553  1.00  0.00     0.082 A 
HETATM   11  N3  UNL     1      19.963   1.004  53.258  1.00  0.00    -0.240 NA
HETATM   12  C11 UNL     1      21.128  -0.119  54.903  1.00  0.00     0.148 C 
HETATM   13  N4  UNL     1      21.960  -1.074  55.176  1.00  0.00    -0.271 NA
HETATM   14  C12 UNL     1      23.389  -1.066  54.964  1.00  0.00     0.114 C 
HETATM   15  C13 UNL     1      23.795  -0.761  53.726  1.00  0.00     0.020 C 
HETATM   16  C14 UNL     1      23.348  -0.150  52.453  1.00  0.00     0.125 C 
HETATM   17  N5  UNL     1      24.090   1.157  52.362  1.00  0.00    -0.425 NA
HETATM   18  C15 UNL     1      23.453   2.244  52.065  1.00  0.00     0.347 C 
ENDROOT
BRANCH   1  19
HETATM   19  N1  UNL     1      24.378   4.511  51.765  1.00  0.00    -0.324 N 
HETATM   20  C1  UNL     1      24.790   4.537  50.417  1.00  0.00     0.256 C 
HETATM   21  O1  UNL     1      23.966   3.837  49.731  1.00  0.00    -0.267 OA
HETATM   22  H1  UNL     1      25.061   5.098  52.343  1.00  0.00     0.169 HD
BRANCH  20  23
HETATM   23  C16 UNL     1      25.864   5.133  49.650  1.00  0.00     0.032 A 
HETATM   24  C17 UNL     1      26.899   4.292  49.243  1.00  0.00     0.017 A 
HETATM   25  C18 UNL     1      27.935   4.854  48.540  1.00  0.00     0.001 A 
HETATM   26  C19 UNL     1      28.034   6.167  48.208  1.00  0.00     0.000 A 
HETATM   27  C20 UNL     1      26.954   6.946  48.655  1.00  0.00     0.001 A 
HETATM   28  C21 UNL     1      25.845   6.471  49.380  1.00  0.00     0.017 A 
ENDBRANCH  20  23
ENDBRANCH   1  19
TORSDOF 2
ENDMDL
MODEL 3
REMARK VINA RESULT:      -8.9      1.619      2.253
REMARK  2 active torsions:
REMARK  status: ('A' for Active; 'I' for Inactive)
REMARK       I    between atoms: C1_2  and  N1_3 
REMARK    1  A    between atoms: C1_2  and  C16_22 
REMARK    2  A    between atoms: N1_3  and  C2_4 
ROOT
HETATM    1  C2  UNL     1      23.756   1.595  53.079  1.00  0.00     0.039 C 
HETATM    2  C3  UNL     1      22.826   0.796  52.609  1.00  0.00     0.027 C 
HETATM    3  C4  UNL     1      21.746  -0.013  52.031  1.00  0.00    -0.002 C 
HETATM    4  C5  UNL     1      20.734   0.233  51.220  1.00  0.00    -0.020 C 
HETATM    5  C6  UNL     1      20.000   1.273  50.391  1.00  0.00     0.098 C 
HETATM    6  C7  UNL     1      20.861   2.496  50.491  1.00  0.00     0.077 A 
HETATM    7  N2  UNL     1      20.829   2.901  51.804  1.00  0.00    -0.288 NA
HETATM    8  C8  UNL     1      21.642   3.909  52.148  1.00  0.00     0.271 A 
HETATM    9  C9  UNL     1      22.355   4.328  51.061  1.00  0.00    -0.003 A 
HETATM   10  C10 UNL     1      22.444   3.995  49.743  1.00  0.00     0.082 A 
HETATM   11  N3  UNL     1      21.593   2.963  49.452  1.00  0.00    -0.240 NA
HETATM   12  C11 UNL     1      23.166   4.413  48.588  1.00  0.00     0.148 C 
HETATM   13  N4  UNL     1      23.687   5.598  48.645  1.00  0.00    -0.271 NA
HETATM   14  C12 UNL     1      24.608   6.094  49.641  1.00  0.00     0.114 C 
HETATM   15  C13 UNL     1      24.220   5.959  50.916  1.00  0.00     0.020 C 
HETATM   16  C14 UNL     1      23.266   5.238  51.789  1.00  0.00     0.125 C 
HETATM   17  N5  UNL     1      24.109   4.276  52.582  1.00  0.00    -0.425 NA
HETATM   18  C15 UNL     1      23.752   3.036  52.688  1.00  0.00     0.347 C 
ENDROOT
BRANCH   1  19
HETATM   19  N1  UNL     1      24.861   1.241  53.966  1.00  0.00    -0.324 N 
HETATM   20  C1  UNL     1      25.827   0.657  53.122  1.00  0.00     0.256 C 
HETATM   21  O1  UNL     1      25.372   0.663  51.925  1.00  0.00    -0.267 OA
HETATM   22  H1  UNL     1      25.237   1.243  54.968  1.00  0.00     0.169 HD
BRANCH  20  23
HETATM   23  C16 UNL     1      27.147   0.080  53.266  1.00  0.00     0.032 A 
HETATM   24  C17 UNL     1      28.164   0.919  53.719  1.00  0.00     0.017 A 
HETATM   25  C18 UNL     1      29.424   0.387  53.831  1.00  0.00     0.001 A 
HETATM   26  C19 UNL     1      29.762  -0.896  53.536  1.00  0.00     0.000 A 
HETATM   27  C20 UNL     1      28.682  -1.674  53.087  1.00  0.00     0.001 A 
HETATM   28  C21 UNL     1      27.356  -1.229  52.936  1.00  0.00     0.017 A 
ENDBRANCH  20  23
ENDBRANCH   1  19
TORSDOF 2
ENDMDL
MODEL 4
REMARK VINA RESULT:      -8.7      1.897      4.114
REMARK  2 active torsions:
REMARK  status: ('A' for Active; 'I' for Inactive)
REMARK       I    between atoms: C1_2  and  N1_3 
REMARK    1  A    between atoms: C1_2  and  C16_22 
REMARK    2  A    between atoms: N1_3  and  C2_4 
ROOT
HETATM    1  C2  UNL     1      24.823   2.951  51.772  1.00  0.00     0.039 C 
HETATM    2  C3  UNL     1      25.058   3.960  50.965  1.00  0.00     0.027 C 
HETATM    3  C4  UNL     1      25.229   5.063  50.012  1.00  0.00    -0.002 C 
HETATM    4  C5  UNL     1      24.534   5.522  48.989  1.00  0.00    -0.020 C 
HETATM    5  C6  UNL     1      23.288   5.368  48.133  1.00  0.00     0.098 C 
HETATM    6  C7  UNL     1      22.503   4.291  48.820  1.00  0.00     0.077 A 
HETATM    7  N2  UNL     1      23.235   3.133  48.715  1.00  0.00    -0.288 NA
HETATM    8  C8  UNL     1      22.778   2.064  49.380  1.00  0.00     0.271 A 
HETATM    9  C9  UNL     1      21.629   2.382  50.046  1.00  0.00    -0.003 A 
HETATM   10  C10 UNL     1      20.841   3.483  50.198  1.00  0.00     0.082 A 
HETATM   11  N3  UNL     1      21.358   4.540  49.498  1.00  0.00    -0.240 NA
HETATM   12  C11 UNL     1      19.641   3.845  50.874  1.00  0.00     0.148 C 
HETATM   13  N4  UNL     1      18.874   2.863  51.230  1.00  0.00    -0.271 NA
HETATM   14  C12 UNL     1      19.234   1.738  52.062  1.00  0.00     0.114 C 
HETATM   15  C13 UNL     1      20.316   1.049  51.677  1.00  0.00     0.020 C 
HETATM   16  C14 UNL     1      21.518   1.123  50.816  1.00  0.00     0.125 C 
HETATM   17  N5  UNL     1      22.678   1.231  51.769  1.00  0.00    -0.425 NA
HETATM   18  C15 UNL     1      23.591   2.129  51.580  1.00  0.00     0.347 C 
ENDROOT
BRANCH   1  19
HETATM   19  N1  UNL     1      25.638   2.513  52.901  1.00  0.00    -0.324 N 
HETATM   20  C1  UNL     1      26.504   1.539  52.364  1.00  0.00     0.256 C 
HETATM   21  O1  UNL     1      26.245   1.417  51.115  1.00  0.00    -0.267 OA
HETATM   22  H1  UNL     1      25.852   2.622  53.944  1.00  0.00     0.169 HD
BRANCH  20  23
HETATM   23  C16 UNL     1      27.564   0.682  52.850  1.00  0.00     0.032 A 
HETATM   24  C17 UNL     1      28.696   1.303  53.375  1.00  0.00     0.017 A 
HETATM   25  C18 UNL     1      29.718   0.498  53.813  1.00  0.00     0.001 A 
HETATM   26  C19 UNL     1      29.716  -0.860  53.774  1.00  0.00     0.000 A 
HETATM   27  C20 UNL     1      28.542  -1.407  53.231  1.00  0.00     0.001 A 
HETATM   28  C21 UNL     1      27.438  -0.675  52.756  1.00  0.00     0.017 A 
ENDBRANCH  20  23
ENDBRANCH   1  19
TORSDOF 2
ENDMDL
MODEL 5
REMARK VINA RESULT:      -8.5      2.280      2.820
REMARK  2 active torsions:
REMARK  status: ('A' for Active; 'I' for Inactive)
REMARK       I    between atoms: C1_2  and  N1_3 
REMARK    1  A    between atoms: C1_2  and  C16_22 
REMARK    2  A    between atoms: N1_3  and  C2_4 
ROOT
HETATM    1  C2  UNL     1      23.485   2.109  51.175  1.00  0.00     0.039 C 
HETATM    2  C3  UNL     1      22.564   1.178  51.274  1.00  0.00     0.027 C 
HETATM    3  C4  UNL     1      21.462   0.216  51.395  1.00  0.00    -0.002 C 
HETATM    4  C5  UNL     1      20.158   0.316  51.571  1.00  0.00    -0.020 C 
HETATM    5  C6  UNL     1      18.971   1.249  51.745  1.00  0.00     0.098 C 
HETATM    6  C7  UNL     1      19.548   2.618  51.542  1.00  0.00     0.077 A 
HETATM    7  N2  UNL     1      20.421   2.842  52.579  1.00  0.00    -0.288 NA
HETATM    8  C8  UNL     1      21.154   3.963  52.525  1.00  0.00     0.271 A 
HETATM    9  C9  UNL     1      20.853   4.664  51.392  1.00  0.00    -0.003 A 
HETATM   10  C10 UNL     1      20.011   4.523  50.330  1.00  0.00     0.082 A 
HETATM   11  N3  UNL     1      19.291   3.364  50.442  1.00  0.00    -0.240 NA
HETATM   12  C11 UNL     1      19.669   5.234  49.144  1.00  0.00     0.148 C 
HETATM   13  N4  UNL     1      19.980   6.492  49.129  1.00  0.00    -0.271 NA
HETATM   14  C12 UNL     1      21.291   7.065  49.328  1.00  0.00     0.114 C 
HETATM   15  C13 UNL     1      21.929   6.690  50.444  1.00  0.00     0.020 C 
HETATM   16  C14 UNL     1      21.934   5.667  51.514  1.00  0.00     0.125 C 
HETATM   17  N5  UNL     1      23.165   4.839  51.260  1.00  0.00    -0.425 NA
HETATM   18  C15 UNL     1      23.090   3.546  51.265  1.00  0.00     0.347 C 
ENDROOT
BRANCH   1  19
HETATM   19  N1  UNL     1      24.917   1.917  50.963  1.00  0.00    -0.324 N 
HETATM   20  C1  UNL     1      25.419   1.529  52.222  1.00  0.00     0.256 C 
HETATM   21  O1  UNL     1      24.442   1.494  53.050  1.00  0.00    -0.267 OA
HETATM   22  H1  UNL     1      25.728   1.945  50.265  1.00  0.00     0.169 HD
BRANCH  20  23
HETATM   23  C16 UNL     1      26.705   1.174  52.785  1.00  0.00     0.032 A 
HETATM   24  C17 UNL     1      27.517   2.218  53.225  1.00  0.00     0.017 A 
HETATM   25  C18 UNL     1      28.749   1.892  53.735  1.00  0.00     0.001 A 
HETATM   26  C19 UNL     1      29.243   0.631  53.845  1.00  0.00     0.000 A 
HETATM   27  C20 UNL     1      28.364  -0.361  53.380  1.00  0.00     0.001 A 
HETATM   28  C21 UNL     1      27.083  -0.136  52.842  1.00  0.00     0.017 A 
ENDBRANCH  20  23
ENDBRANCH   1  19
TORSDOF 2
ENDMDL
MODEL 6
REMARK VINA RESULT:      -8.5      2.503      4.705
REMARK  2 active torsions:
REMARK  status: ('A' for Active; 'I' for Inactive)
REMARK       I    between atoms: C1_2  and  N1_3 
REMARK    1  A    between atoms: C1_2  and  C16_22 
REMARK    2  A    between atoms: N1_3  and  C2_4 
ROOT
HETATM    1  C2  UNL     1      25.041   3.873  50.125  1.00  0.00     0.039 C 
HETATM    2  C3  UNL     1      24.973   5.152  50.420  1.00  0.00     0.027 C 
HETATM    3  C4  UNL     1      24.794   6.575  50.727  1.00  0.00    -0.002 C 
HETATM    4  C5  UNL     1      23.766   7.404  50.722  1.00  0.00    -0.020 C 
HETATM    5  C6  UNL     1      22.277   7.573  50.473  1.00  0.00     0.098 C 
HETATM    6  C7  UNL     1      21.790   6.180  50.208  1.00  0.00     0.077 A 
HETATM    7  N2  UNL     1      22.372   5.768  49.034  1.00  0.00    -0.288 NA
HETATM    8  C8  UNL     1      22.177   4.493  48.674  1.00  0.00     0.271 A 
HETATM    9  C9  UNL     1      21.403   3.856  49.603  1.00  0.00    -0.003 A 
HETATM   10  C10 UNL     1      20.786   4.182  50.772  1.00  0.00     0.082 A 
HETATM   11  N3  UNL     1      21.022   5.494  51.087  1.00  0.00    -0.240 NA
HETATM   12  C11 UNL     1      19.972   3.551  51.756  1.00  0.00     0.148 C 
HETATM   13  N4  UNL     1      19.372   2.465  51.381  1.00  0.00    -0.271 NA
HETATM   14  C12 UNL     1      19.990   1.274  50.845  1.00  0.00     0.114 C 
HETATM   15  C13 UNL     1      20.799   1.457  49.794  1.00  0.00     0.020 C 
HETATM   16  C14 UNL     1      21.559   2.491  49.056  1.00  0.00     0.125 C 
HETATM   17  N5  UNL     1      23.007   2.196  49.345  1.00  0.00    -0.425 NA
HETATM   18  C15 UNL     1      23.803   3.151  49.705  1.00  0.00     0.347 C 
ENDROOT
BRANCH   1  19
HETATM   19  N1  UNL     1      26.221   3.016  50.172  1.00  0.00    -0.324 N 
HETATM   20  C1  UNL     1      26.189   2.428  51.453  1.00  0.00     0.256 C 
HETATM   21  O1  UNL     1      25.155   2.865  52.069  1.00  0.00    -0.267 OA
HETATM   22  H1  UNL     1      27.081   2.651  49.650  1.00  0.00     0.169 HD
BRANCH  20  23
HETATM   23  C16 UNL     1      26.997   1.495  52.209  1.00  0.00     0.032 A 
HETATM   24  C17 UNL     1      26.690   0.140  52.088  1.00  0.00     0.017 A 
HETATM   25  C18 UNL     1      27.433  -0.749  52.823  1.00  0.00     0.001 A 
HETATM   26  C19 UNL     1      28.447  -0.414  53.663  1.00  0.00     0.000 A 
HETATM   27  C20 UNL     1      28.693   0.967  53.729  1.00  0.00     0.001 A 
HETATM   28  C21 UNL     1      27.993   1.960  53.019  1.00  0.00     0.017 A 
ENDBRANCH  20  23
ENDBRANCH   1  19
TORSDOF 2
ENDMDL
MODEL 7
REMARK VINA RESULT:      -8.4      3.136      6.451
REMARK  2 active torsions:
REMARK  status: ('A' for Active; 'I' for Inactive)
REMARK       I    between atoms: C1_2  and  N1_3 
REMARK    1  A    between atoms: C1_2  and  C16_22 
REMARK    2  A    between atoms: N1_3  and  C2_4 
ROOT
HETATM    1  C2  UNL     1      21.600   3.695  52.291  1.00  0.00     0.039 C 
HETATM    2  C3  UNL     1      20.337   3.578  51.952  1.00  0.00     0.027 C 
HETATM    3  C4  UNL     1      18.939   3.341  51.573  1.00  0.00    -0.002 C 
HETATM    4  C5  UNL     1      18.210   2.267  51.340  1.00  0.00    -0.020 C 
HETATM    5  C6  UNL     1      18.174   0.749  51.279  1.00  0.00     0.098 C 
HETATM    6  C7  UNL     1      19.522   0.331  51.786  1.00  0.00     0.077 A 
HETATM    7  N2  UNL     1      20.448   0.770  50.872  1.00  0.00    -0.288 NA
HETATM    8  C8  UNL     1      21.739   0.618  51.194  1.00  0.00     0.271 A 
HETATM    9  C9  UNL     1      21.850   0.031  52.422  1.00  0.00    -0.003 A 
HETATM   10  C10 UNL     1      21.001  -0.437  53.379  1.00  0.00     0.082 A 
HETATM   11  N3  UNL     1      19.700  -0.254  52.994  1.00  0.00    -0.240 NA
HETATM   12  C11 UNL     1      21.082  -1.057  54.659  1.00  0.00     0.148 C 
HETATM   13  N4  UNL     1      22.212  -1.623  54.943  1.00  0.00    -0.271 NA
HETATM   14  C12 UNL     1      23.517  -1.003  54.945  1.00  0.00     0.114 C 
HETATM   15  C13 UNL     1      23.862  -0.365  53.819  1.00  0.00     0.020 C 
HETATM   16  C14 UNL     1      23.311   0.206  52.570  1.00  0.00     0.125 C 
HETATM   17  N5  UNL     1      23.438   1.698  52.730  1.00  0.00    -0.425 NA
HETATM   18  C15 UNL     1      22.431   2.466  52.464  1.00  0.00     0.347 C 
ENDROOT
BRANCH   1  19
HETATM   19  N1  UNL     1      22.336   4.929  52.551  1.00  0.00    -0.324 N 
HETATM   20  C1  UNL     1      22.767   5.365  51.281  1.00  0.00     0.256 C 
HETATM   21  O1  UNL     1      22.354   4.525  50.407  1.00  0.00    -0.267 OA
HETATM   22  H1  UNL     1      22.675   5.629  53.286  1.00  0.00     0.169 HD
BRANCH  20  23
HETATM   23  C16 UNL     1      23.526   6.475  50.745  1.00  0.00     0.032 A 
HETATM   24  C17 UNL     1      22.805   7.526  50.179  1.00  0.00     0.017 A 
HETATM   25  C18 UNL     1      23.517   8.570  49.644  1.00  0.00     0.001 A 
HETATM   26  C19 UNL     1      24.872   8.662  49.619  1.00  0.00     0.000 A 
HETATM   27  C20 UNL     1      25.523   7.565  50.208  1.00  0.00     0.001 A 
HETATM   28  C21 UNL     1      24.890   6.448  50.784  1.00  0.00     0.017 A 
ENDBRANCH  20  23
ENDBRANCH   1  19
TORSDOF 2
ENDMDL
MODEL 8
REMARK VINA RESULT:      -8.3      9.273     12.514
REMARK  2 active torsions:
REMARK  status: ('A' for Active; 'I' for Inactive)
REMARK       I    between atoms: C1_2  and  N1_3 
REMARK    1  A    between atoms: C1_2  and  C16_22 
REMARK    2  A    between atoms: N1_3  and  C2_4 
ROOT
HETATM    1  C2  UNL     1      30.334   8.075  48.719  1.00  0.00     0.039 C 
HETATM    2  C3  UNL     1      30.908   9.156  48.241  1.00  0.00     0.027 C 
HETATM    3  C4  UNL     1      31.633  10.302  47.681  1.00  0.00    -0.002 C 
HETATM    4  C5  UNL     1      32.810  10.466  47.108  1.00  0.00    -0.020 C 
HETATM    5  C6  UNL     1      34.095   9.802  46.642  1.00  0.00     0.098 C 
HETATM    6  C7  UNL     1      33.853   8.339  46.864  1.00  0.00     0.077 A 
HETATM    7  N2  UNL     1      33.747   8.152  48.221  1.00  0.00    -0.288 NA
HETATM    8  C8  UNL     1      33.396   6.929  48.640  1.00  0.00     0.271 A 
HETATM    9  C9  UNL     1      33.213   6.102  47.568  1.00  0.00    -0.003 A 
HETATM   10  C10 UNL     1      33.302   6.198  46.212  1.00  0.00     0.082 A 
HETATM   11  N3  UNL     1      33.663   7.467  45.846  1.00  0.00    -0.240 NA
HETATM   12  C11 UNL     1      33.127   5.360  45.074  1.00  0.00     0.148 C 
HETATM   13  N4  UNL     1      33.174   4.084  45.299  1.00  0.00    -0.271 NA
HETATM   14  C12 UNL     1      32.353   3.334  46.221  1.00  0.00     0.114 C 
HETATM   15  C13 UNL     1      32.332   3.783  47.482  1.00  0.00     0.020 C 
HETATM   16  C14 UNL     1      32.644   4.963  48.321  1.00  0.00     0.125 C 
HETATM   17  N5  UNL     1      31.306   5.503  48.752  1.00  0.00    -0.425 NA
HETATM   18  C15 UNL     1      31.054   6.769  48.647  1.00  0.00     0.347 C 
ENDROOT
BRANCH   1  19
HETATM   19  N1  UNL     1      29.011   7.971  49.327  1.00  0.00    -0.324 N 
HETATM   20  C1  UNL     1      28.170   7.529  48.287  1.00  0.00     0.256 C 
HETATM   21  O1  UNL     1      28.878   7.390  47.229  1.00  0.00    -0.267 OA
HETATM   22  H1  UNL     1      28.426   8.085  50.216  1.00  0.00     0.169 HD
BRANCH  20  23
HETATM   23  C16 UNL     1      26.768   7.205  48.125  1.00  0.00     0.032 A 
HETATM   24  C17 UNL     1      26.031   7.990  47.239  1.00  0.00     0.017 A 
HETATM   25  C18 UNL     1      24.695   7.708  47.101  1.00  0.00     0.001 A 
HETATM   26  C19 UNL     1      24.031   6.722  47.759  1.00  0.00     0.000 A 
HETATM   27  C20 UNL     1      24.843   5.979  48.630  1.00  0.00     0.001 A 
HETATM   28  C21 UNL     1      26.219   6.184  48.846  1.00  0.00     0.017 A 
ENDBRANCH  20  23
ENDBRANCH   1  19
TORSDOF 2
ENDMDL
MODEL 9
REMARK VINA RESULT:      -8.2      2.924      4.100
REMARK  2 active torsions:
REMARK  status: ('A' for Active; 'I' for Inactive)
REMARK       I    between atoms: C1_2  and  N1_3 
REMARK    1  A    between atoms: C1_2  and  C16_22 
REMARK    2  A    between atoms: N1_3  and  C2_4 
ROOT
HETATM    1  C2  UNL     1      24.679   3.231  50.589  1.00  0.00     0.039 C 
HETATM    2  C3  UNL     1      23.628   2.466  50.397  1.00  0.00     0.027 C 
HETATM    3  C4  UNL     1      22.395   1.699  50.187  1.00  0.00    -0.002 C 
HETATM    4  C5  UNL     1      21.114   2.005  50.109  1.00  0.00    -0.020 C 
HETATM    5  C6  UNL     1      20.071   3.110  50.146  1.00  0.00     0.098 C 
HETATM    6  C7  UNL     1      20.877   4.372  50.217  1.00  0.00     0.077 A 
HETATM    7  N2  UNL     1      21.530   4.363  51.426  1.00  0.00    -0.288 NA
HETATM    8  C8  UNL     1      22.417   5.343  51.644  1.00  0.00     0.271 A 
HETATM    9  C9  UNL     1      22.476   6.172  50.560  1.00  0.00    -0.003 A 
HETATM   10  C10 UNL     1      21.870   6.260  49.343  1.00  0.00     0.082 A 
HETATM   11  N3  UNL     1      20.978   5.235  49.178  1.00  0.00    -0.240 NA
HETATM   12  C11 UNL     1      21.902   7.109  48.199  1.00  0.00     0.148 C 
HETATM   13  N4  UNL     1      22.394   8.293  48.387  1.00  0.00    -0.271 NA
HETATM   14  C12 UNL     1      23.702   8.617  48.907  1.00  0.00     0.114 C 
HETATM   15  C13 UNL     1      24.022   8.052  50.079  1.00  0.00     0.020 C 
HETATM   16  C14 UNL     1      23.643   6.963  51.007  1.00  0.00     0.125 C 
HETATM   17  N5  UNL     1      24.761   5.960  50.913  1.00  0.00    -0.425 NA
HETATM   18  C15 UNL     1      24.493   4.703  50.758  1.00  0.00     0.347 C 
ENDROOT
BRANCH   1  19
HETATM   19  N1  UNL     1      26.077   2.815  50.647  1.00  0.00    -0.324 N 
HETATM   20  C1  UNL     1      26.215   2.189  51.902  1.00  0.00     0.256 C 
HETATM   21  O1  UNL     1      25.080   2.224  52.495  1.00  0.00    -0.267 OA
HETATM   22  H1  UNL     1      27.021   2.785  50.144  1.00  0.00     0.169 HD
BRANCH  20  23
HETATM   23  C16 UNL     1      27.271   1.543  52.652  1.00  0.00     0.032 A 
HETATM   24  C17 UNL     1      27.320   0.150  52.615  1.00  0.00     0.017 A 
HETATM   25  C18 UNL     1      28.302  -0.471  53.346  1.00  0.00     0.001 A 
HETATM   26  C19 UNL     1      29.232   0.163  54.105  1.00  0.00     0.000 A 
HETATM   27  C20 UNL     1      29.115   1.563  54.089  1.00  0.00     0.001 A 
HETATM   28  C21 UNL     1      28.149   2.297  53.376  1.00  0.00     0.017 A 
ENDBRANCH  20  23
ENDBRANCH   1  19
TORSDOF 2
ENDMDL
