MODEL 1
REMARK VINA RESULT:      -7.5      0.000      0.000
REMARK  3 active torsions:
REMARK  status: ('A' for Active; 'I' for Inactive)
REMARK    1  A    between atoms: O1_2  and  C2_3 
REMARK    2  A    between atoms: C2_3  and  C3_4 
REMARK    3  A    between atoms: C15_17  and  O2_18 
ROOT
HETATM    1  C3  UNL     1      22.891   0.499  53.134  1.00  0.00     0.136 C 
HETATM    2  C4  UNL     1      22.426  -0.895  53.367  1.00  0.00     0.013 C 
HETATM    3  C5  UNL     1      21.662  -1.073  54.427  1.00  0.00    -0.028 C 
HETATM    4  C6  UNL     1      21.203   0.040  54.974  1.00  0.00     0.012 C 
HETATM    5  C7  UNL     1      20.378   0.143  53.808  1.00  0.00     0.001 C 
HETATM    6  C8  UNL     1      19.400  -0.022  52.915  1.00  0.00    -0.000 C 
HETATM    7  C9  UNL     1      18.289  -0.272  52.012  1.00  0.00    -0.004 C 
HETATM    8  C10 UNL     1      18.294   0.346  50.848  1.00  0.00    -0.021 C 
HETATM    9  C11 UNL     1      18.939   1.282  49.849  1.00  0.00     0.086 C 
HETATM   10  C12 UNL     1      20.295   1.579  50.470  1.00  0.00     0.033 C 
HETATM   11  N1  UNL     1      20.502   2.700  50.914  1.00  0.00    -0.290 NA
HETATM   12  C13 UNL     1      19.902   3.935  51.074  1.00  0.00     0.179 C 
HETATM   13  C14 UNL     1      20.975   4.931  51.511  1.00  0.00     0.028 C 
HETATM   14  C15 UNL     1      22.247   4.529  51.837  1.00  0.00     0.054 C 
HETATM   15  C17 UNL     1      23.321   3.495  52.055  1.00  0.00     0.110 A 
HETATM   16  C18 UNL     1      23.614   2.151  52.039  1.00  0.00     0.047 A 
HETATM   17  O3  UNL     1      24.738   2.807  52.381  1.00  0.00     0.000 OA
HETATM   18  C19 UNL     1      25.872   2.715  51.497  1.00  0.00     0.000 C 
HETATM   19  N2  UNL     1      22.934   0.952  51.788  1.00  0.00    -0.347 N 
HETATM   20  C20 UNL     1      22.284   0.008  51.025  1.00  0.00     0.094 C 
HETATM   21  C21 UNL     1      21.122   0.369  50.488  1.00  0.00     0.044 C 
ENDROOT
BRANCH   1  22
HETATM   22  C2  UNL     1      24.345   0.280  53.571  1.00  0.00     0.196 C 
BRANCH  22  23
HETATM   23  O1  UNL     1      24.829  -0.909  53.072  1.00  0.00    -0.394 OA
HETATM   24  C1  UNL     1      26.183  -0.897  52.847  1.00  0.00     0.201 C 
ENDBRANCH  22  23
ENDBRANCH   1  22
BRANCH  14  25
HETATM   25  O2  UNL     1      23.289   5.386  52.233  1.00  0.00    -0.360 OA
HETATM   26  C16 UNL     1      23.989   6.161  51.269  1.00  0.00     0.209 C 
ENDBRANCH  14  25
TORSDOF 3
ENDMDL
MODEL 2
REMARK VINA RESULT:      -7.1      2.295      5.380
REMARK  3 active torsions:
REMARK  status: ('A' for Active; 'I' for Inactive)
REMARK    1  A    between atoms: O1_2  and  C2_3 
REMARK    2  A    between atoms: C2_3  and  C3_4 
REMARK    3  A    between atoms: C15_17  and  O2_18 
ROOT
HETATM    1  C3  UNL     1      24.476   1.704  52.479  1.00  0.00     0.136 C 
HETATM    2  C4  UNL     1      25.784   2.212  52.976  1.00  0.00     0.013 C 
HETATM    3  C5  UNL     1      26.853   1.630  52.468  1.00  0.00    -0.028 C 
HETATM    4  C6  UNL     1      26.623   0.873  51.408  1.00  0.00     0.012 C 
HETATM    5  C7  UNL     1      26.382   2.104  50.718  1.00  0.00     0.001 C 
HETATM    6  C8  UNL     1      26.544   3.260  50.069  1.00  0.00    -0.000 C 
HETATM    7  C9  UNL     1      26.828   4.501  49.369  1.00  0.00    -0.004 C 
HETATM    8  C10 UNL     1      25.805   5.250  49.010  1.00  0.00    -0.021 C 
HETATM    9  C11 UNL     1      24.316   5.519  48.953  1.00  0.00     0.086 C 
HETATM   10  C12 UNL     1      23.727   4.419  49.821  1.00  0.00     0.033 C 
HETATM   11  N1  UNL     1      23.090   3.525  49.280  1.00  0.00    -0.290 NA
HETATM   12  C13 UNL     1      22.651   3.098  48.040  1.00  0.00     0.179 C 
HETATM   13  C14 UNL     1      21.641   1.972  48.256  1.00  0.00     0.028 C 
HETATM   14  C15 UNL     1      21.416   1.429  49.498  1.00  0.00     0.054 C 
HETATM   15  C17 UNL     1      21.666   1.296  50.978  1.00  0.00     0.110 A 
HETATM   16  C18 UNL     1      22.413   1.744  52.042  1.00  0.00     0.047 A 
HETATM   17  O3  UNL     1      21.557   0.817  52.510  1.00  0.00     0.000 OA
HETATM   18  C19 UNL     1      20.568   1.233  53.471  1.00  0.00     0.000 C 
HETATM   19  N2  UNL     1      23.451   2.661  52.256  1.00  0.00    -0.347 N 
HETATM   20  C20 UNL     1      24.035   3.905  52.345  1.00  0.00     0.094 C 
HETATM   21  C21 UNL     1      24.121   4.608  51.219  1.00  0.00     0.044 C 
ENDROOT
BRANCH   1  22
HETATM   22  C2  UNL     1      24.089   0.933  53.748  1.00  0.00     0.196 C 
BRANCH  22  23
HETATM   23  O1  UNL     1      24.431  -0.396  53.633  1.00  0.00    -0.394 OA
HETATM   24  C1  UNL     1      24.971  -0.924  54.779  1.00  0.00     0.201 C 
ENDBRANCH  22  23
ENDBRANCH   1  22
BRANCH  14  25
HETATM   25  O2  UNL     1      20.494   0.404  49.776  1.00  0.00    -0.360 OA
HETATM   26  C16 UNL     1      19.142   0.715  50.083  1.00  0.00     0.209 C 
ENDBRANCH  14  25
TORSDOF 3
ENDMDL
MODEL 3
REMARK VINA RESULT:      -7.0      2.738      5.701
REMARK  3 active torsions:
REMARK  status: ('A' for Active; 'I' for Inactive)
REMARK    1  A    between atoms: O1_2  and  C2_3 
REMARK    2  A    between atoms: C2_3  and  C3_4 
REMARK    3  A    between atoms: C15_17  and  O2_18 
ROOT
HETATM    1  C3  UNL     1      21.647   4.197  49.286  1.00  0.00     0.136 C 
HETATM    2  C4  UNL     1      20.326   3.570  49.563  1.00  0.00     0.013 C 
HETATM    3  C5  UNL     1      20.039   2.501  48.846  1.00  0.00    -0.028 C 
HETATM    4  C6  UNL     1      21.060   1.987  48.182  1.00  0.00     0.012 C 
HETATM    5  C7  UNL     1      21.548   1.579  49.465  1.00  0.00     0.001 C 
HETATM    6  C8  UNL     1      21.740   0.918  50.608  1.00  0.00    -0.000 C 
HETATM    7  C9  UNL     1      21.875   0.128  51.821  1.00  0.00    -0.004 C 
HETATM    8  C10 UNL     1      22.727   0.547  52.734  1.00  0.00    -0.021 C 
HETATM    9  C11 UNL     1      23.750   1.546  53.232  1.00  0.00     0.086 C 
HETATM   10  C12 UNL     1      23.684   2.660  52.199  1.00  0.00     0.033 C 
HETATM   11  N1  UNL     1      24.633   2.808  51.440  1.00  0.00    -0.290 NA
HETATM   12  C13 UNL     1      25.880   2.291  51.141  1.00  0.00     0.179 C 
HETATM   13  C14 UNL     1      26.573   3.252  50.176  1.00  0.00     0.028 C 
HETATM   14  C15 UNL     1      25.914   4.322  49.620  1.00  0.00     0.054 C 
HETATM   15  C17 UNL     1      24.702   5.186  49.384  1.00  0.00     0.110 A 
HETATM   16  C18 UNL     1      23.366   5.358  49.665  1.00  0.00     0.047 A 
HETATM   17  O3  UNL     1      23.746   6.369  48.862  1.00  0.00     0.000 OA
HETATM   18  C19 UNL     1      23.677   7.710  49.383  1.00  0.00     0.000 C 
HETATM   19  N2  UNL     1      22.376   4.694  50.400  1.00  0.00    -0.347 N 
HETATM   20  C20 UNL     1      21.738   4.240  51.533  1.00  0.00     0.094 C 
HETATM   21  C21 UNL     1      22.387   3.337  52.263  1.00  0.00     0.044 C 
ENDROOT
BRANCH   1  22
HETATM   22  C2  UNL     1      21.111   5.418  48.529  1.00  0.00     0.196 C 
BRANCH  22  23
HETATM   23  O1  UNL     1      19.973   5.905  49.133  1.00  0.00    -0.394 OA
HETATM   24  C1  UNL     1      19.950   7.273  49.235  1.00  0.00     0.201 C 
ENDBRANCH  22  23
ENDBRANCH   1  22
BRANCH  14  25
HETATM   25  O2  UNL     1      26.488   5.254  48.739  1.00  0.00    -0.360 OA
HETATM   26  C16 UNL     1      27.889   5.250  48.499  1.00  0.00     0.209 C 
ENDBRANCH  14  25
TORSDOF 3
ENDMDL
MODEL 4
REMARK VINA RESULT:      -6.8      2.019      5.428
REMARK  3 active torsions:
REMARK  status: ('A' for Active; 'I' for Inactive)
REMARK    1  A    between atoms: O1_2  and  C2_3 
REMARK    2  A    between atoms: C2_3  and  C3_4 
REMARK    3  A    between atoms: C15_17  and  O2_18 
ROOT
HETATM    1  C3  UNL     1      24.541   2.164  51.479  1.00  0.00     0.136 C 
HETATM    2  C4  UNL     1      25.853   2.730  51.897  1.00  0.00     0.013 C 
HETATM    3  C5  UNL     1      26.752   2.857  50.940  1.00  0.00    -0.028 C 
HETATM    4  C6  UNL     1      26.280   2.717  49.713  1.00  0.00     0.012 C 
HETATM    5  C7  UNL     1      25.640   3.979  49.932  1.00  0.00     0.001 C 
HETATM    6  C8  UNL     1      25.400   5.286  50.057  1.00  0.00    -0.000 C 
HETATM    7  C9  UNL     1      25.241   6.727  50.166  1.00  0.00    -0.004 C 
HETATM    8  C10 UNL     1      24.061   7.188  50.527  1.00  0.00    -0.021 C 
HETATM    9  C11 UNL     1      22.623   6.965  50.943  1.00  0.00     0.086 C 
HETATM   10  C12 UNL     1      22.535   5.456  51.110  1.00  0.00     0.033 C 
HETATM   11  N1  UNL     1      21.886   4.814  50.296  1.00  0.00    -0.290 NA
HETATM   12  C13 UNL     1      21.111   4.964  49.160  1.00  0.00     0.179 C 
HETATM   13  C14 UNL     1      20.411   3.634  48.885  1.00  0.00     0.028 C 
HETATM   14  C15 UNL     1      20.711   2.497  49.595  1.00  0.00     0.054 C 
HETATM   15  C17 UNL     1      21.475   1.716  50.634  1.00  0.00     0.110 A 
HETATM   16  C18 UNL     1      22.472   1.771  51.580  1.00  0.00     0.047 A 
HETATM   17  O3  UNL     1      21.974   0.520  51.587  1.00  0.00     0.000 OA
HETATM   18  C19 UNL     1      21.330   0.055  52.788  1.00  0.00     0.000 C 
HETATM   19  N2  UNL     1      23.376   2.723  52.068  1.00  0.00    -0.347 N 
HETATM   20  C20 UNL     1      23.770   3.859  52.740  1.00  0.00     0.094 C 
HETATM   21  C21 UNL     1      23.359   5.022  52.242  1.00  0.00     0.044 C 
ENDROOT
BRANCH   1  22
HETATM   22  C2  UNL     1      24.733   0.780  52.111  1.00  0.00     0.196 C 
BRANCH  22  23
HETATM   23  O1  UNL     1      25.237   0.893  53.388  1.00  0.00    -0.394 OA
HETATM   24  C1  UNL     1      25.341  -0.307  54.044  1.00  0.00     0.201 C 
ENDBRANCH  22  23
ENDBRANCH   1  22
BRANCH  14  25
HETATM   25  O2  UNL     1      20.101   1.244  49.409  1.00  0.00    -0.360 OA
HETATM   26  C16 UNL     1      18.847   0.956  50.014  1.00  0.00     0.209 C 
ENDBRANCH  14  25
TORSDOF 3
ENDMDL
MODEL 5
REMARK VINA RESULT:      -6.8      2.012      4.778
REMARK  3 active torsions:
REMARK  status: ('A' for Active; 'I' for Inactive)
REMARK    1  A    between atoms: O1_2  and  C2_3 
REMARK    2  A    between atoms: C2_3  and  C3_4 
REMARK    3  A    between atoms: C15_17  and  O2_18 
ROOT
HETATM    1  C3  UNL     1      23.041   2.737  50.020  1.00  0.00     0.136 C 
HETATM    2  C4  UNL     1      22.729   3.610  48.855  1.00  0.00     0.013 C 
HETATM    3  C5  UNL     1      22.455   2.983  47.729  1.00  0.00    -0.028 C 
HETATM    4  C6  UNL     1      22.237   1.684  47.854  1.00  0.00     0.012 C 
HETATM    5  C7  UNL     1      21.013   2.063  48.494  1.00  0.00     0.001 C 
HETATM    6  C8  UNL     1      19.762   2.468  48.723  1.00  0.00    -0.000 C 
HETATM    7  C9  UNL     1      18.386   2.915  48.865  1.00  0.00    -0.004 C 
HETATM    8  C10 UNL     1      17.917   3.074  50.086  1.00  0.00    -0.021 C 
HETATM    9  C11 UNL     1      18.094   3.036  51.589  1.00  0.00     0.086 C 
HETATM   10  C12 UNL     1      19.581   2.767  51.760  1.00  0.00     0.033 C 
HETATM   11  N1  UNL     1      19.932   1.673  52.183  1.00  0.00    -0.290 NA
HETATM   12  C13 UNL     1      19.428   0.461  52.617  1.00  0.00     0.179 C 
HETATM   13  C14 UNL     1      20.571  -0.328  53.253  1.00  0.00     0.028 C 
HETATM   14  C15 UNL     1      21.874   0.104  53.188  1.00  0.00     0.054 C 
HETATM   15  C17 UNL     1      22.960   1.055  52.755  1.00  0.00     0.110 A 
HETATM   16  C18 UNL     1      23.242   2.201  52.050  1.00  0.00     0.047 A 
HETATM   17  O3  UNL     1      24.399   1.747  52.566  1.00  0.00     0.000 OA
HETATM   18  C19 UNL     1      25.085   2.577  53.523  1.00  0.00     0.000 C 
HETATM   19  N2  UNL     1      22.535   3.139  51.286  1.00  0.00    -0.347 N 
HETATM   20  C20 UNL     1      21.648   4.167  51.057  1.00  0.00     0.094 C 
HETATM   21  C21 UNL     1      20.363   3.911  51.286  1.00  0.00     0.044 C 
ENDROOT
BRANCH   1  22
HETATM   22  C2  UNL     1      24.551   3.004  50.045  1.00  0.00     0.196 C 
BRANCH  22  23
HETATM   23  O1  UNL     1      24.823   4.301  49.671  1.00  0.00    -0.394 OA
HETATM   24  C1  UNL     1      26.164   4.563  49.536  1.00  0.00     0.201 C 
ENDBRANCH  22  23
ENDBRANCH   1  22
BRANCH  14  25
HETATM   25  O2  UNL     1      22.974  -0.559  53.759  1.00  0.00    -0.360 OA
HETATM   26  C16 UNL     1      22.834  -1.260  54.988  1.00  0.00     0.209 C 
ENDBRANCH  14  25
TORSDOF 3
ENDMDL
MODEL 6
REMARK VINA RESULT:      -6.6      2.377      6.563
REMARK  3 active torsions:
REMARK  status: ('A' for Active; 'I' for Inactive)
REMARK    1  A    between atoms: O1_2  and  C2_3 
REMARK    2  A    between atoms: C2_3  and  C3_4 
REMARK    3  A    between atoms: C15_17  and  O2_18 
ROOT
HETATM    1  C3  UNL     1      21.331   4.327  50.373  1.00  0.00     0.136 C 
HETATM    2  C4  UNL     1      21.365   5.491  49.445  1.00  0.00     0.013 C 
HETATM    3  C5  UNL     1      21.562   6.666  50.010  1.00  0.00    -0.028 C 
HETATM    4  C6  UNL     1      21.964   6.617  51.269  1.00  0.00     0.012 C 
HETATM    5  C7  UNL     1      23.203   6.132  50.741  1.00  0.00     0.001 C 
HETATM    6  C8  UNL     1      24.410   6.056  50.176  1.00  0.00    -0.000 C 
HETATM    7  C9  UNL     1      25.722   6.082  49.552  1.00  0.00    -0.004 C 
HETATM    8  C10 UNL     1      26.328   4.929  49.353  1.00  0.00    -0.021 C 
HETATM    9  C11 UNL     1      26.364   3.418  49.442  1.00  0.00     0.086 C 
HETATM   10  C12 UNL     1      24.962   3.061  49.912  1.00  0.00     0.033 C 
HETATM   11  N1  UNL     1      24.818   2.636  51.050  1.00  0.00    -0.290 NA
HETATM   12  C13 UNL     1      25.530   2.316  52.191  1.00  0.00     0.179 C 
HETATM   13  C14 UNL     1      24.597   1.563  53.138  1.00  0.00     0.028 C 
HETATM   14  C15 UNL     1      23.253   1.439  52.883  1.00  0.00     0.054 C 
HETATM   15  C17 UNL     1      22.003   1.689  52.080  1.00  0.00     0.110 A 
HETATM   16  C18 UNL     1      21.480   2.309  50.968  1.00  0.00     0.047 A 
HETATM   17  O3  UNL     1      20.473   1.661  51.583  1.00  0.00     0.000 OA
HETATM   18  C19 UNL     1      19.821   0.592  50.870  1.00  0.00     0.000 C 
HETATM   19  N2  UNL     1      21.948   3.126  49.931  1.00  0.00    -0.347 N 
HETATM   20  C20 UNL     1      22.653   3.433  48.789  1.00  0.00     0.094 C 
HETATM   21  C21 UNL     1      23.980   3.386  48.874  1.00  0.00     0.044 C 
ENDROOT
BRANCH   1  22
HETATM   22  C2  UNL     1      19.816   4.093  50.312  1.00  0.00     0.196 C 
BRANCH  22  23
HETATM   23  O1  UNL     1      19.356   4.218  49.021  1.00  0.00    -0.394 OA
HETATM   24  C1  UNL     1      18.419   3.275  48.679  1.00  0.00     0.201 C 
ENDBRANCH  22  23
ENDBRANCH   1  22
BRANCH  14  25
HETATM   25  O2  UNL     1      22.337   0.751  53.698  1.00  0.00    -0.360 OA
HETATM   26  C16 UNL     1      22.236  -0.665  53.632  1.00  0.00     0.209 C 
ENDBRANCH  14  25
TORSDOF 3
ENDMDL
MODEL 7
REMARK VINA RESULT:      -6.5     11.000     13.812
REMARK  3 active torsions:
REMARK  status: ('A' for Active; 'I' for Inactive)
REMARK    1  A    between atoms: O1_2  and  C2_3 
REMARK    2  A    between atoms: C2_3  and  C3_4 
REMARK    3  A    between atoms: C15_17  and  O2_18 
ROOT
HETATM    1  C3  UNL     1      32.052   7.406  47.699  1.00  0.00     0.136 C 
HETATM    2  C4  UNL     1      32.062   6.697  49.008  1.00  0.00     0.013 C 
HETATM    3  C5  UNL     1      31.023   5.919  49.244  1.00  0.00    -0.028 C 
HETATM    4  C6  UNL     1      30.263   5.673  48.190  1.00  0.00     0.012 C 
HETATM    5  C7  UNL     1      31.355   4.874  47.725  1.00  0.00     0.001 C 
HETATM    6  C8  UNL     1      32.224   3.876  47.542  1.00  0.00    -0.000 C 
HETATM    7  C9  UNL     1      33.112   2.734  47.416  1.00  0.00    -0.004 C 
HETATM    8  C10 UNL     1      34.141   2.844  46.601  1.00  0.00    -0.021 C 
HETATM    9  C11 UNL     1      34.976   3.643  45.622  1.00  0.00     0.086 C 
HETATM   10  C12 UNL     1      34.365   5.034  45.694  1.00  0.00     0.033 C 
HETATM   11  N1  UNL     1      33.730   5.443  44.731  1.00  0.00    -0.290 NA
HETATM   12  C13 UNL     1      33.321   5.079  43.461  1.00  0.00     0.179 C 
HETATM   13  C14 UNL     1      32.752   6.318  42.772  1.00  0.00     0.028 C 
HETATM   14  C15 UNL     1      32.557   7.498  43.448  1.00  0.00     0.054 C 
HETATM   15  C17 UNL     1      32.577   8.367  44.679  1.00  0.00     0.110 A 
HETATM   16  C18 UNL     1      32.852   8.411  46.026  1.00  0.00     0.047 A 
HETATM   17  O3  UNL     1      32.440   9.638  45.656  1.00  0.00     0.000 OA
HETATM   18  C19 UNL     1      33.371  10.730  45.779  1.00  0.00     0.000 C 
HETATM   19  N2  UNL     1      33.292   7.522  47.015  1.00  0.00    -0.347 N 
HETATM   20  C20 UNL     1      34.190   6.707  47.668  1.00  0.00     0.094 C 
HETATM   21  C21 UNL     1      34.604   5.627  47.012  1.00  0.00     0.044 C 
ENDROOT
BRANCH   1  22
HETATM   22  C2  UNL     1      31.722   8.798  48.252  1.00  0.00     0.196 C 
BRANCH  22  23
HETATM   23  O1  UNL     1      30.367   9.036  48.193  1.00  0.00    -0.394 OA
HETATM   24  C1  UNL     1      29.866   9.630  49.324  1.00  0.00     0.201 C 
ENDBRANCH  22  23
ENDBRANCH   1  22
BRANCH  14  25
HETATM   25  O2  UNL     1      32.052   8.680  42.880  1.00  0.00    -0.360 OA
HETATM   26  C16 UNL     1      32.899   9.534  42.123  1.00  0.00     0.209 C 
ENDBRANCH  14  25
TORSDOF 3
ENDMDL
MODEL 8
REMARK VINA RESULT:      -6.4      2.663      4.285
REMARK  3 active torsions:
REMARK  status: ('A' for Active; 'I' for Inactive)
REMARK    1  A    between atoms: O1_2  and  C2_3 
REMARK    2  A    between atoms: C2_3  and  C3_4 
REMARK    3  A    between atoms: C15_17  and  O2_18 
ROOT
HETATM    1  C3  UNL     1      24.294   4.089  50.459  1.00  0.00     0.136 C 
HETATM    2  C4  UNL     1      25.033   2.861  50.864  1.00  0.00     0.013 C 
HETATM    3  C5  UNL     1      25.060   2.611  52.158  1.00  0.00    -0.028 C 
HETATM    4  C6  UNL     1      24.214   3.327  52.880  1.00  0.00     0.012 C 
HETATM    5  C7  UNL     1      23.191   2.535  52.266  1.00  0.00     0.001 C 
HETATM    6  C8  UNL     1      22.353   1.542  51.961  1.00  0.00    -0.000 C 
HETATM    7  C9  UNL     1      21.485   0.404  51.709  1.00  0.00    -0.004 C 
HETATM    8  C10 UNL     1      20.640   0.488  50.702  1.00  0.00    -0.021 C 
HETATM    9  C11 UNL     1      20.044   1.243  49.533  1.00  0.00     0.086 C 
HETATM   10  C12 UNL     1      20.932   2.472  49.420  1.00  0.00     0.033 C 
HETATM   11  N1  UNL     1      20.465   3.560  49.728  1.00  0.00    -0.290 NA
HETATM   12  C13 UNL     1      19.304   4.158  50.183  1.00  0.00     0.179 C 
HETATM   13  C14 UNL     1      19.469   5.671  50.059  1.00  0.00     0.028 C 
HETATM   14  C15 UNL     1      20.670   6.244  49.716  1.00  0.00     0.054 C 
HETATM   15  C17 UNL     1      22.134   6.199  49.363  1.00  0.00     0.110 A 
HETATM   16  C18 UNL     1      23.227   5.384  49.182  1.00  0.00     0.047 A 
HETATM   17  O3  UNL     1      23.621   6.649  48.944  1.00  0.00     0.000 OA
HETATM   18  C19 UNL     1      24.075   6.979  47.618  1.00  0.00     0.000 C 
HETATM   19  N2  UNL     1      23.517   4.017  49.272  1.00  0.00    -0.347 N 
HETATM   20  C20 UNL     1      23.465   2.690  48.905  1.00  0.00     0.094 C 
HETATM   21  C21 UNL     1      22.284   2.087  49.010  1.00  0.00     0.044 C 
ENDROOT
BRANCH   1  22
HETATM   22  C2  UNL     1      25.527   4.940  50.128  1.00  0.00     0.196 C 
BRANCH  22  23
HETATM   23  O1  UNL     1      26.460   4.197  49.439  1.00  0.00    -0.394 OA
HETATM   24  C1  UNL     1      27.340   4.961  48.714  1.00  0.00     0.201 C 
ENDBRANCH  22  23
ENDBRANCH   1  22
BRANCH  14  25
HETATM   25  O2  UNL     1      20.894   7.624  49.569  1.00  0.00    -0.360 OA
HETATM   26  C16 UNL     1      19.827   8.548  49.738  1.00  0.00     0.209 C 
ENDBRANCH  14  25
TORSDOF 3
ENDMDL
MODEL 9
REMARK VINA RESULT:      -6.3      3.019      5.674
REMARK  3 active torsions:
REMARK  status: ('A' for Active; 'I' for Inactive)
REMARK    1  A    between atoms: O1_2  and  C2_3 
REMARK    2  A    between atoms: C2_3  and  C3_4 
REMARK    3  A    between atoms: C15_17  and  O2_18 
ROOT
HETATM    1  C3  UNL     1      20.763   3.610  49.775  1.00  0.00     0.136 C 
HETATM    2  C4  UNL     1      19.933   2.587  50.468  1.00  0.00     0.013 C 
HETATM    3  C5  UNL     1      19.987   1.370  49.964  1.00  0.00    -0.028 C 
HETATM    4  C6  UNL     1      20.962   1.172  49.092  1.00  0.00     0.012 C 
HETATM    5  C7  UNL     1      21.839   1.256  50.219  1.00  0.00     0.001 C 
HETATM    6  C8  UNL     1      22.537   0.970  51.321  1.00  0.00    -0.000 C 
HETATM    7  C9  UNL     1      23.255   0.559  52.516  1.00  0.00    -0.004 C 
HETATM    8  C10 UNL     1      24.018   1.453  53.111  1.00  0.00    -0.021 C 
HETATM    9  C11 UNL     1      24.592   2.851  53.207  1.00  0.00     0.086 C 
HETATM   10  C12 UNL     1      23.835   3.616  52.133  1.00  0.00     0.033 C 
HETATM   11  N1  UNL     1      24.440   3.965  51.128  1.00  0.00    -0.290 NA
HETATM   12  C13 UNL     1      25.692   3.928  50.542  1.00  0.00     0.179 C 
HETATM   13  C14 UNL     1      25.680   4.866  49.337  1.00  0.00     0.028 C 
HETATM   14  C15 UNL     1      24.523   5.456  48.889  1.00  0.00     0.054 C 
HETATM   15  C17 UNL     1      23.038   5.711  48.921  1.00  0.00     0.110 A 
HETATM   16  C18 UNL     1      21.853   5.401  49.546  1.00  0.00     0.047 A 
HETATM   17  O3  UNL     1      21.579   6.294  48.577  1.00  0.00     0.000 OA
HETATM   18  C19 UNL     1      21.054   7.577  48.968  1.00  0.00     0.000 C 
HETATM   19  N2  UNL     1      21.427   4.567  50.588  1.00  0.00    -0.347 N 
HETATM   20  C20 UNL     1      21.306   4.140  51.892  1.00  0.00     0.094 C 
HETATM   21  C21 UNL     1      22.420   3.731  52.493  1.00  0.00     0.044 C 
ENDROOT
BRANCH   1  22
HETATM   22  C2  UNL     1      19.606   4.344  49.086  1.00  0.00     0.196 C 
BRANCH  22  23
HETATM   23  O1  UNL     1      19.472   3.927  47.781  1.00  0.00    -0.394 OA
HETATM   24  C1  UNL     1      18.172   3.689  47.412  1.00  0.00     0.201 C 
ENDBRANCH  22  23
ENDBRANCH   1  22
BRANCH  14  25
HETATM   25  O2  UNL     1      24.437   6.339  47.798  1.00  0.00    -0.360 OA
HETATM   26  C16 UNL     1      25.121   7.584  47.824  1.00  0.00     0.209 C 
ENDBRANCH  14  25
TORSDOF 3
ENDMDL
