MODEL 1
REMARK VINA RESULT:      -8.3      0.000      0.000
REMARK  3 active torsions:
REMARK  status: ('A' for Active; 'I' for Inactive)
REMARK    1  A    between atoms: O1_2  and  C2_3 
REMARK    2  A    between atoms: C8_11  and  N2_12 
REMARK    3  A    between atoms: N2_12  and  C9_13 
ROOT
HETATM    1  C2  UNL     1      20.303   1.930  51.978  1.00  0.00     0.080 C 
HETATM    2  C3  UNL     1      19.788   1.018  51.160  1.00  0.00     0.038 C 
HETATM    3  C4  UNL     1      19.613   1.136  49.713  1.00  0.00     0.015 C 
HETATM    4  C5  UNL     1      19.273   2.346  49.296  1.00  0.00    -0.021 C 
HETATM    5  P1  UNL     1      20.161   3.604  49.782  1.00  0.00    -0.065 P 
HETATM    6  C6  UNL     1      21.405   4.038  48.589  1.00  0.00     0.155 C 
HETATM    7  N1  UNL     1      22.671   3.397  48.721  1.00  0.00    -0.393 N 
HETATM    8  C7  UNL     1      23.488   3.456  49.833  1.00  0.00     0.117 C 
HETATM    9  C8  UNL     1      24.150   3.788  50.866  1.00  0.00     0.095 C 
HETATM   10  C15 UNL     1      23.790   5.179  51.205  1.00  0.00     0.172 C 
HETATM   11  N3  UNL     1      24.157   6.055  52.135  1.00  0.00    -0.280 NA
HETATM   12  N4  UNL     1      22.906   6.204  50.773  1.00  0.00    -0.215 NA
HETATM   13  C16 UNL     1      21.682   6.290  51.208  1.00  0.00     0.260 C 
HETATM   14  O2  UNL     1      22.182   5.200  51.845  1.00  0.00    -0.315 OA
HETATM   15  C17 UNL     1      21.575   3.982  52.072  1.00  0.00     0.158 C 
HETATM   16  C18 UNL     1      20.751   3.197  51.391  1.00  0.00     0.023 C 
HETATM   17  H6  UNL     1      19.201   4.645  49.964  1.00  0.00     0.064 HD
HETATM   18  H9  UNL     1      23.007   2.831  47.882  1.00  0.00     0.159 HD
HETATM   19  H15 UNL     1      24.860   5.793  52.838  1.00  0.00     0.188 HD
ENDROOT
BRANCH   9  20
HETATM   20  N2  UNL     1      25.031   3.591  51.940  1.00  0.00    -0.352 N 
HETATM   21  H11 UNL     1      25.453   4.377  52.469  1.00  0.00     0.166 HD
BRANCH  20  22
HETATM   22  C9  UNL     1      25.314   2.250  52.264  1.00  0.00     0.034 A 
HETATM   23  C10 UNL     1      26.421   1.630  51.740  1.00  0.00     0.032 A 
HETATM   24  C11 UNL     1      26.830   0.324  51.958  1.00  0.00     0.046 A 
HETATM   25  C12 UNL     1      25.971  -0.374  52.817  1.00  0.00     0.138 A 
HETATM   26  F1  UNL     1      26.279  -1.667  53.100  1.00  0.00    -0.204 F 
HETATM   27  C13 UNL     1      24.819   0.140  53.414  1.00  0.00     0.074 A 
HETATM   28 CL1  UNL     1      23.844  -0.824  54.459  1.00  0.00    -0.081 Cl
HETATM   29  C14 UNL     1      24.577   1.440  53.082  1.00  0.00     0.056 A 
ENDBRANCH  20  22
ENDBRANCH   9  20
BRANCH   1  30
HETATM   30  O1  UNL     1      20.417   1.700  53.341  1.00  0.00    -0.355 OA
HETATM   31  C1  UNL     1      20.440   0.342  53.814  1.00  0.00     0.210 C 
ENDBRANCH   1  30
TORSDOF 3
ENDMDL
MODEL 2
REMARK VINA RESULT:      -8.0      1.853      2.188
REMARK  3 active torsions:
REMARK  status: ('A' for Active; 'I' for Inactive)
REMARK    1  A    between atoms: O1_2  and  C2_3 
REMARK    2  A    between atoms: C8_11  and  N2_12 
REMARK    3  A    between atoms: N2_12  and  C9_13 
ROOT
HETATM    1  C2  UNL     1      21.233   1.423  50.279  1.00  0.00     0.080 C 
HETATM    2  C3  UNL     1      21.346   0.830  49.095  1.00  0.00     0.038 C 
HETATM    3  C4  UNL     1      21.865   1.422  47.862  1.00  0.00     0.015 C 
HETATM    4  C5  UNL     1      21.553   2.697  47.690  1.00  0.00    -0.021 C 
HETATM    5  P1  UNL     1      21.856   3.732  48.891  1.00  0.00    -0.065 P 
HETATM    6  C6  UNL     1      23.417   4.555  48.678  1.00  0.00     0.155 C 
HETATM    7  N1  UNL     1      24.559   3.924  49.252  1.00  0.00    -0.393 N 
HETATM    8  C7  UNL     1      24.720   3.619  50.590  1.00  0.00     0.117 C 
HETATM    9  C8  UNL     1      24.735   3.595  51.860  1.00  0.00     0.095 C 
HETATM   10  C15 UNL     1      24.013   4.788  52.342  1.00  0.00     0.172 C 
HETATM   11  N3  UNL     1      23.726   5.308  53.532  1.00  0.00    -0.280 NA
HETATM   12  N4  UNL     1      23.273   5.887  51.828  1.00  0.00    -0.215 NA
HETATM   13  C16 UNL     1      21.998   5.807  51.581  1.00  0.00     0.260 C 
HETATM   14  O2  UNL     1      22.320   4.573  52.048  1.00  0.00    -0.315 OA
HETATM   15  C17 UNL     1      21.911   3.342  51.581  1.00  0.00     0.158 C 
HETATM   16  C18 UNL     1      21.669   2.818  50.386  1.00  0.00     0.023 C 
HETATM   17  H6  UNL     1      20.755   4.639  48.842  1.00  0.00     0.064 HD
HETATM   18  H9  UNL     1      25.350   3.674  48.583  1.00  0.00     0.159 HD
HETATM   19  H15 UNL     1      24.042   4.836  54.388  1.00  0.00     0.188 HD
ENDROOT
BRANCH   9  20
HETATM   20  N2  UNL     1      25.016   3.062  53.128  1.00  0.00    -0.352 N 
HETATM   21  H11 UNL     1      24.689   3.506  54.006  1.00  0.00     0.166 HD
BRANCH  20  22
HETATM   22  C9  UNL     1      25.777   1.877  53.140  1.00  0.00     0.034 A 
HETATM   23  C10 UNL     1      25.178   0.667  52.891  1.00  0.00     0.032 A 
HETATM   24  C11 UNL     1      25.785  -0.579  52.871  1.00  0.00     0.046 A 
HETATM   25  C12 UNL     1      27.158  -0.513  53.142  1.00  0.00     0.138 A 
HETATM   26  F1  UNL     1      27.854  -1.681  53.147  1.00  0.00    -0.204 F 
HETATM   27  C13 UNL     1      27.884   0.648  53.409  1.00  0.00     0.074 A 
HETATM   28 CL1  UNL     1      29.578   0.595  53.725  1.00  0.00    -0.081 Cl
HETATM   29  C14 UNL     1      27.118   1.776  53.386  1.00  0.00     0.056 A 
ENDBRANCH  20  22
ENDBRANCH   9  20
BRANCH   1  30
HETATM   30  O1  UNL     1      20.723   0.752  51.380  1.00  0.00    -0.355 OA
HETATM   31  C1  UNL     1      19.348   0.330  51.357  1.00  0.00     0.210 C 
ENDBRANCH   1  30
TORSDOF 3
ENDMDL
MODEL 3
REMARK VINA RESULT:      -7.8      2.681      4.957
REMARK  3 active torsions:
REMARK  status: ('A' for Active; 'I' for Inactive)
REMARK    1  A    between atoms: O1_2  and  C2_3 
REMARK    2  A    between atoms: C8_11  and  N2_12 
REMARK    3  A    between atoms: N2_12  and  C9_13 
ROOT
HETATM    1  C2  UNL     1      25.483   5.628  49.372  1.00  0.00     0.080 C 
HETATM    2  C3  UNL     1      25.855   6.729  50.016  1.00  0.00     0.038 C 
HETATM    3  C4  UNL     1      25.011   7.587  50.848  1.00  0.00     0.015 C 
HETATM    4  C5  UNL     1      23.769   7.728  50.411  1.00  0.00    -0.021 C 
HETATM    5  P1  UNL     1      22.920   6.400  50.065  1.00  0.00    -0.065 P 
HETATM    6  C6  UNL     1      21.899   5.891  51.428  1.00  0.00     0.155 C 
HETATM    7  N1  UNL     1      22.482   4.987  52.364  1.00  0.00    -0.393 N 
HETATM    8  C7  UNL     1      22.984   3.735  52.063  1.00  0.00     0.117 C 
HETATM    9  C8  UNL     1      23.216   2.572  51.608  1.00  0.00     0.095 C 
HETATM   10  C15 UNL     1      22.210   2.286  50.567  1.00  0.00     0.172 C 
HETATM   11  N3  UNL     1      21.931   1.256  49.774  1.00  0.00    -0.280 NA
HETATM   12  N4  UNL     1      21.133   2.927  49.897  1.00  0.00    -0.215 NA
HETATM   13  C16 UNL     1      21.317   3.663  48.839  1.00  0.00     0.260 C 
HETATM   14  O2  UNL     1      22.566   3.243  49.169  1.00  0.00    -0.315 OA
HETATM   15  C17 UNL     1      23.741   3.965  49.179  1.00  0.00     0.158 C 
HETATM   16  C18 UNL     1      24.084   5.208  49.493  1.00  0.00     0.023 C 
HETATM   17  H6  UNL     1      22.149   6.778  48.925  1.00  0.00     0.064 HD
HETATM   18  H9  UNL     1      22.525   5.314  53.377  1.00  0.00     0.159 HD
HETATM   19  H15 UNL     1      22.499   0.402  49.823  1.00  0.00     0.188 HD
ENDROOT
BRANCH   9  20
HETATM   20  N2  UNL     1      23.916   1.362  51.483  1.00  0.00    -0.352 N 
HETATM   21  H11 UNL     1      23.712   0.673  50.736  1.00  0.00     0.166 HD
BRANCH  20  22
HETATM   22  C9  UNL     1      24.923   1.134  52.440  1.00  0.00     0.034 A 
HETATM   23  C10 UNL     1      24.781   0.134  53.370  1.00  0.00     0.032 A 
HETATM   24  C11 UNL     1      25.675  -0.210  54.372  1.00  0.00     0.046 A 
HETATM   25  C12 UNL     1      26.823   0.592  54.369  1.00  0.00     0.138 A 
HETATM   26  F1  UNL     1      27.769   0.341  55.312  1.00  0.00    -0.204 F 
HETATM   27  C13 UNL     1      27.088   1.636  53.481  1.00  0.00     0.074 A 
HETATM   28 CL1  UNL     1      28.545   2.551  53.580  1.00  0.00    -0.081 Cl
HETATM   29  C14 UNL     1      26.095   1.827  52.567  1.00  0.00     0.056 A 
ENDBRANCH  20  22
ENDBRANCH   9  20
BRANCH   1  30
HETATM   30  O1  UNL     1      26.381   4.896  48.609  1.00  0.00    -0.355 OA
HETATM   31  C1  UNL     1      27.752   5.327  48.551  1.00  0.00     0.210 C 
ENDBRANCH   1  30
TORSDOF 3
ENDMDL
MODEL 4
REMARK VINA RESULT:      -7.7      1.621      2.189
REMARK  3 active torsions:
REMARK  status: ('A' for Active; 'I' for Inactive)
REMARK    1  A    between atoms: O1_2  and  C2_3 
REMARK    2  A    between atoms: C8_11  and  N2_12 
REMARK    3  A    between atoms: N2_12  and  C9_13 
ROOT
HETATM    1  C2  UNL     1      19.792   3.640  50.358  1.00  0.00     0.080 C 
HETATM    2  C3  UNL     1      19.406   2.906  49.320  1.00  0.00     0.038 C 
HETATM    3  C4  UNL     1      19.794   3.089  47.921  1.00  0.00     0.015 C 
HETATM    4  C5  UNL     1      19.920   4.353  47.546  1.00  0.00    -0.021 C 
HETATM    5  P1  UNL     1      20.843   5.332  48.439  1.00  0.00    -0.065 P 
HETATM    6  C6  UNL     1      22.496   5.451  47.798  1.00  0.00     0.155 C 
HETATM    7  N1  UNL     1      23.444   4.505  48.286  1.00  0.00    -0.393 N 
HETATM    8  C7  UNL     1      23.797   4.333  49.610  1.00  0.00     0.117 C 
HETATM    9  C8  UNL     1      24.102   4.466  50.836  1.00  0.00     0.095 C 
HETATM   10  C15 UNL     1      23.982   5.896  51.179  1.00  0.00     0.172 C 
HETATM   11  N3  UNL     1      24.185   6.633  52.267  1.00  0.00    -0.280 NA
HETATM   12  N4  UNL     1      23.577   7.122  50.583  1.00  0.00    -0.215 NA
HETATM   13  C16 UNL     1      22.335   7.512  50.579  1.00  0.00     0.260 C 
HETATM   14  O2  UNL     1      22.303   6.320  51.228  1.00  0.00    -0.315 OA
HETATM   15  C17 UNL     1      21.389   5.295  51.101  1.00  0.00     0.158 C 
HETATM   16  C18 UNL     1      20.704   4.759  50.099  1.00  0.00     0.023 C 
HETATM   17  H6  UNL     1      20.154   6.581  48.393  1.00  0.00     0.064 HD
HETATM   18  H9  UNL     1      23.915   3.885  47.557  1.00  0.00     0.159 HD
HETATM   19  H15 UNL     1      24.506   6.187  53.135  1.00  0.00     0.188 HD
ENDROOT
BRANCH   9  20
HETATM   20  N2  UNL     1      24.467   4.031  52.120  1.00  0.00    -0.352 N 
HETATM   21  H11 UNL     1      24.929   4.651  52.810  1.00  0.00     0.166 HD
BRANCH  20  22
HETATM   22  C9  UNL     1      24.167   2.689  52.421  1.00  0.00     0.034 A 
HETATM   23  C10 UNL     1      22.865   2.296  52.609  1.00  0.00     0.032 A 
HETATM   24  C11 UNL     1      22.412   1.021  52.912  1.00  0.00     0.046 A 
HETATM   25  C12 UNL     1      23.452   0.090  53.021  1.00  0.00     0.138 A 
HETATM   26  F1  UNL     1      23.119  -1.194  53.317  1.00  0.00    -0.204 F 
HETATM   27  C13 UNL     1      24.811   0.360  52.853  1.00  0.00     0.074 A 
HETATM   28 CL1  UNL     1      25.999  -0.879  53.011  1.00  0.00    -0.081 Cl
HETATM   29  C14 UNL     1      25.066   1.667  52.560  1.00  0.00     0.056 A 
ENDBRANCH  20  22
ENDBRANCH   9  20
BRANCH   1  30
HETATM   30  O1  UNL     1      19.353   3.366  51.644  1.00  0.00    -0.355 OA
HETATM   31  C1  UNL     1      18.979   2.016  51.974  1.00  0.00     0.210 C 
ENDBRANCH   1  30
TORSDOF 3
ENDMDL
MODEL 5
REMARK VINA RESULT:      -7.6      2.589      4.364
REMARK  3 active torsions:
REMARK  status: ('A' for Active; 'I' for Inactive)
REMARK    1  A    between atoms: O1_2  and  C2_3 
REMARK    2  A    between atoms: C8_11  and  N2_12 
REMARK    3  A    between atoms: N2_12  and  C9_13 
ROOT
HETATM    1  C2  UNL     1      22.632   3.965  48.726  1.00  0.00     0.080 C 
HETATM    2  C3  UNL     1      22.923   5.243  48.506  1.00  0.00     0.038 C 
HETATM    3  C4  UNL     1      22.896   6.331  49.484  1.00  0.00     0.015 C 
HETATM    4  C5  UNL     1      21.919   6.246  50.374  1.00  0.00    -0.021 C 
HETATM    5  P1  UNL     1      21.733   4.861  51.182  1.00  0.00    -0.065 P 
HETATM    6  C6  UNL     1      22.553   4.898  52.759  1.00  0.00     0.155 C 
HETATM    7  N1  UNL     1      23.908   4.457  52.788  1.00  0.00    -0.393 N 
HETATM    8  C7  UNL     1      24.353   3.206  52.405  1.00  0.00     0.117 C 
HETATM    9  C8  UNL     1      24.516   1.966  52.181  1.00  0.00     0.095 C 
HETATM   10  C15 UNL     1      23.315   1.258  52.665  1.00  0.00     0.172 C 
HETATM   11  N3  UNL     1      22.921  -0.010  52.727  1.00  0.00    -0.280 NA
HETATM   12  N4  UNL     1      22.043   1.546  53.231  1.00  0.00    -0.215 NA
HETATM   13  C16 UNL     1      21.003   1.810  52.494  1.00  0.00     0.260 C 
HETATM   14  O2  UNL     1      21.997   1.597  51.594  1.00  0.00    -0.315 OA
HETATM   15  C17 UNL     1      22.283   2.303  50.444  1.00  0.00     0.158 C 
HETATM   16  C18 UNL     1      22.240   3.580  50.085  1.00  0.00     0.023 C 
HETATM   17  H6  UNL     1      20.317   4.732  51.313  1.00  0.00     0.064 HD
HETATM   18  H9  UNL     1      24.629   5.159  53.140  1.00  0.00     0.159 HD
HETATM   19  H15 UNL     1      23.534  -0.756  52.376  1.00  0.00     0.188 HD
ENDROOT
BRANCH   9  20
HETATM   20  N2  UNL     1      25.178   0.829  51.692  1.00  0.00    -0.352 N 
HETATM   21  H11 UNL     1      24.817   0.271  50.897  1.00  0.00     0.166 HD
BRANCH  20  22
HETATM   22  C9  UNL     1      26.374   0.485  52.351  1.00  0.00     0.034 A 
HETATM   23  C10 UNL     1      26.772  -0.827  52.423  1.00  0.00     0.032 A 
HETATM   24  C11 UNL     1      27.914  -1.322  53.035  1.00  0.00     0.046 A 
HETATM   25  C12 UNL     1      28.693  -0.315  53.618  1.00  0.00     0.138 A 
HETATM   26  F1  UNL     1      29.838  -0.691  54.247  1.00  0.00    -0.204 F 
HETATM   27  C13 UNL     1      28.401   1.050  53.614  1.00  0.00     0.074 A 
HETATM   28 CL1  UNL     1      29.447   2.193  54.368  1.00  0.00    -0.081 Cl
HETATM   29  C14 UNL     1      27.239   1.347  52.966  1.00  0.00     0.056 A 
ENDBRANCH  20  22
ENDBRANCH   9  20
BRANCH   1  30
HETATM   30  O1  UNL     1      22.695   3.022  47.711  1.00  0.00    -0.355 OA
HETATM   31  C1  UNL     1      21.943   3.250  46.506  1.00  0.00     0.210 C 
ENDBRANCH   1  30
TORSDOF 3
ENDMDL
MODEL 6
REMARK VINA RESULT:      -7.5      2.558      4.254
REMARK  3 active torsions:
REMARK  status: ('A' for Active; 'I' for Inactive)
REMARK    1  A    between atoms: O1_2  and  C2_3 
REMARK    2  A    between atoms: C8_11  and  N2_12 
REMARK    3  A    between atoms: N2_12  and  C9_13 
ROOT
HETATM    1  C2  UNL     1      22.115   4.658  47.711  1.00  0.00     0.080 C 
HETATM    2  C3  UNL     1      22.720   5.765  47.295  1.00  0.00     0.038 C 
HETATM    3  C4  UNL     1      22.844   7.026  48.028  1.00  0.00     0.015 C 
HETATM    4  C5  UNL     1      21.784   7.346  48.755  1.00  0.00    -0.021 C 
HETATM    5  P1  UNL     1      21.191   6.246  49.777  1.00  0.00    -0.065 P 
HETATM    6  C6  UNL     1      21.822   6.464  51.425  1.00  0.00     0.155 C 
HETATM    7  N1  UNL     1      23.024   5.770  51.749  1.00  0.00    -0.393 N 
HETATM    8  C7  UNL     1      23.201   4.401  51.689  1.00  0.00     0.117 C 
HETATM    9  C8  UNL     1      23.091   3.136  51.738  1.00  0.00     0.095 C 
HETATM   10  C15 UNL     1      21.713   2.819  52.157  1.00  0.00     0.172 C 
HETATM   11  N3  UNL     1      21.027   1.706  52.401  1.00  0.00    -0.280 NA
HETATM   12  N4  UNL     1      20.490   3.482  52.452  1.00  0.00    -0.215 NA
HETATM   13  C16 UNL     1      19.627   3.784  51.525  1.00  0.00     0.260 C 
HETATM   14  O2  UNL     1      20.635   3.174  50.849  1.00  0.00    -0.315 OA
HETATM   15  C17 UNL     1      21.201   3.531  49.643  1.00  0.00     0.158 C 
HETATM   16  C18 UNL     1      21.499   4.675  49.041  1.00  0.00     0.023 C 
HETATM   17  H6  UNL     1      19.779   6.445  49.708  1.00  0.00     0.064 HD
HETATM   18  H9  UNL     1      23.847   6.368  52.066  1.00  0.00     0.159 HD
HETATM   19  H15 UNL     1      21.482   0.791  52.301  1.00  0.00     0.188 HD
ENDROOT
BRANCH   9  20
HETATM   20  N2  UNL     1      23.516   1.807  51.587  1.00  0.00    -0.352 N 
HETATM   21  H11 UNL     1      23.104   1.164  50.887  1.00  0.00     0.166 HD
BRANCH  20  22
HETATM   22  C9  UNL     1      24.547   1.391  52.451  1.00  0.00     0.034 A 
HETATM   23  C10 UNL     1      24.386   0.276  53.236  1.00  0.00     0.032 A 
HETATM   24  C11 UNL     1      25.300  -0.255  54.133  1.00  0.00     0.046 A 
HETATM   25  C12 UNL     1      26.491   0.480  54.188  1.00  0.00     0.138 A 
HETATM   26  F1  UNL     1      27.459   0.046  55.038  1.00  0.00    -0.204 F 
HETATM   27  C13 UNL     1      26.779   1.626  53.445  1.00  0.00     0.074 A 
HETATM   28 CL1  UNL     1      28.290   2.440  53.602  1.00  0.00    -0.081 Cl
HETATM   29  C14 UNL     1      25.761   1.998  52.618  1.00  0.00     0.056 A 
ENDBRANCH  20  22
ENDBRANCH   9  20
BRANCH   1  30
HETATM   30  O1  UNL     1      22.064   3.519  46.920  1.00  0.00    -0.355 OA
HETATM   31  C1  UNL     1      21.846   3.668  45.506  1.00  0.00     0.210 C 
ENDBRANCH   1  30
TORSDOF 3
ENDMDL
MODEL 7
REMARK VINA RESULT:      -7.3      7.412      8.712
REMARK  3 active torsions:
REMARK  status: ('A' for Active; 'I' for Inactive)
REMARK    1  A    between atoms: O1_2  and  C2_3 
REMARK    2  A    between atoms: C8_11  and  N2_12 
REMARK    3  A    between atoms: N2_12  and  C9_13 
ROOT
HETATM    1  C2  UNL     1      25.307   7.519  49.300  1.00  0.00     0.080 C 
HETATM    2  C3  UNL     1      24.468   7.070  48.373  1.00  0.00     0.038 C 
HETATM    3  C4  UNL     1      24.380   7.510  46.981  1.00  0.00     0.015 C 
HETATM    4  C5  UNL     1      24.588   8.805  46.799  1.00  0.00    -0.021 C 
HETATM    5  P1  UNL     1      25.916   9.467  47.436  1.00  0.00    -0.065 P 
HETATM    6  C6  UNL     1      27.245   9.552  46.258  1.00  0.00     0.155 C 
HETATM    7  N1  UNL     1      28.121   8.429  46.198  1.00  0.00    -0.393 N 
HETATM    8  C7  UNL     1      28.870   7.939  47.251  1.00  0.00     0.117 C 
HETATM    9  C8  UNL     1      29.595   7.771  48.281  1.00  0.00     0.095 C 
HETATM   10  C15 UNL     1      29.850   9.098  48.874  1.00  0.00     0.172 C 
HETATM   11  N3  UNL     1      30.538   9.556  49.916  1.00  0.00    -0.280 NA
HETATM   12  N4  UNL     1      29.487  10.459  48.681  1.00  0.00    -0.215 NA
HETATM   13  C16 UNL     1      28.406  10.966  49.200  1.00  0.00     0.260 C 
HETATM   14  O2  UNL     1      28.391   9.672  49.610  1.00  0.00    -0.315 OA
HETATM   15  C17 UNL     1      27.324   8.799  49.662  1.00  0.00     0.158 C 
HETATM   16  C18 UNL     1      26.256   8.566  48.911  1.00  0.00     0.023 C 
HETATM   17  H6  UNL     1      25.482  10.762  47.854  1.00  0.00     0.064 HD
HETATM   18  H9  UNL     1      28.200   7.937  45.256  1.00  0.00     0.159 HD
HETATM   19  H15 UNL     1      31.054   8.903  50.517  1.00  0.00     0.188 HD
ENDROOT
BRANCH   9  20
HETATM   20  N2  UNL     1      30.295   7.034  49.248  1.00  0.00    -0.352 N 
HETATM   21  H11 UNL     1      30.069   7.080  50.259  1.00  0.00     0.166 HD
BRANCH  20  22
HETATM   22  C9  UNL     1      31.334   6.217  48.762  1.00  0.00     0.034 A 
HETATM   23  C10 UNL     1      31.053   5.158  47.935  1.00  0.00     0.032 A 
HETATM   24  C11 UNL     1      31.958   4.266  47.381  1.00  0.00     0.046 A 
HETATM   25  C12 UNL     1      33.281   4.541  47.750  1.00  0.00     0.138 A 
HETATM   26  F1  UNL     1      34.253   3.725  47.262  1.00  0.00    -0.204 F 
HETATM   27  C13 UNL     1      33.698   5.582  48.581  1.00  0.00     0.074 A 
HETATM   28 CL1  UNL     1      35.363   5.816  48.960  1.00  0.00    -0.081 Cl
HETATM   29  C14 UNL     1      32.668   6.354  49.031  1.00  0.00     0.056 A 
ENDBRANCH  20  22
ENDBRANCH   9  20
BRANCH   1  30
HETATM   30  O1  UNL     1      25.294   7.019  50.594  1.00  0.00    -0.355 OA
HETATM   31  C1  UNL     1      24.027   6.729  51.211  1.00  0.00     0.210 C 
ENDBRANCH   1  30
TORSDOF 3
ENDMDL
MODEL 8
REMARK VINA RESULT:      -7.1      2.475      4.638
REMARK  3 active torsions:
REMARK  status: ('A' for Active; 'I' for Inactive)
REMARK    1  A    between atoms: O1_2  and  C2_3 
REMARK    2  A    between atoms: C8_11  and  N2_12 
REMARK    3  A    between atoms: N2_12  and  C9_13 
ROOT
HETATM    1  C2  UNL     1      24.823   5.318  49.542  1.00  0.00     0.080 C 
HETATM    2  C3  UNL     1      25.146   6.268  50.413  1.00  0.00     0.038 C 
HETATM    3  C4  UNL     1      24.242   7.240  51.028  1.00  0.00     0.015 C 
HETATM    4  C5  UNL     1      23.281   7.681  50.230  1.00  0.00    -0.021 C 
HETATM    5  P1  UNL     1      22.373   6.597  49.450  1.00  0.00    -0.065 P 
HETATM    6  C6  UNL     1      20.864   6.248  50.321  1.00  0.00     0.155 C 
HETATM    7  N1  UNL     1      20.901   5.182  51.267  1.00  0.00    -0.393 N 
HETATM    8  C7  UNL     1      21.232   3.870  50.985  1.00  0.00     0.117 C 
HETATM    9  C8  UNL     1      21.384   2.714  50.482  1.00  0.00     0.095 C 
HETATM   10  C15 UNL     1      20.771   2.722  49.139  1.00  0.00     0.172 C 
HETATM   11  N3  UNL     1      20.599   1.830  48.169  1.00  0.00    -0.280 NA
HETATM   12  N4  UNL     1      20.138   3.626  48.244  1.00  0.00    -0.215 NA
HETATM   13  C16 UNL     1      20.815   4.365  47.413  1.00  0.00     0.260 C 
HETATM   14  O2  UNL     1      21.767   3.659  48.076  1.00  0.00    -0.315 OA
HETATM   15  C17 UNL     1      22.978   4.099  48.568  1.00  0.00     0.158 C 
HETATM   16  C18 UNL     1      23.417   5.213  49.139  1.00  0.00     0.023 C 
HETATM   17  H6  UNL     1      22.135   7.206  48.181  1.00  0.00     0.064 HD
HETATM   18  H9  UNL     1      20.648   5.430  52.273  1.00  0.00     0.159 HD
HETATM   19  H15 UNL     1      20.942   0.869  48.288  1.00  0.00     0.188 HD
ENDROOT
BRANCH   9  20
HETATM   20  N2  UNL     1      21.843   1.388  50.433  1.00  0.00    -0.352 N 
HETATM   21  H11 UNL     1      21.613   0.745  49.653  1.00  0.00     0.166 HD
BRANCH  20  22
HETATM   22  C9  UNL     1      22.642   0.976  51.517  1.00  0.00     0.034 A 
HETATM   23  C10 UNL     1      23.946   1.397  51.614  1.00  0.00     0.032 A 
HETATM   24  C11 UNL     1      24.855   1.078  52.611  1.00  0.00     0.046 A 
HETATM   25  C12 UNL     1      24.311   0.233  53.587  1.00  0.00     0.138 A 
HETATM   26  F1  UNL     1      25.119  -0.144  54.613  1.00  0.00    -0.204 F 
HETATM   27  C13 UNL     1      23.007  -0.262  53.603  1.00  0.00     0.074 A 
HETATM   28 CL1  UNL     1      22.455  -1.296  54.868  1.00  0.00    -0.081 Cl
HETATM   29  C14 UNL     1      22.260   0.158  52.543  1.00  0.00     0.056 A 
ENDBRANCH  20  22
ENDBRANCH   9  20
BRANCH   1  30
HETATM   30  O1  UNL     1      25.775   4.452  49.027  1.00  0.00    -0.355 OA
HETATM   31  C1  UNL     1      26.473   3.575  49.930  1.00  0.00     0.210 C 
ENDBRANCH   1  30
TORSDOF 3
ENDMDL
MODEL 9
REMARK VINA RESULT:      -7.1      8.606     11.010
REMARK  3 active torsions:
REMARK  status: ('A' for Active; 'I' for Inactive)
REMARK    1  A    between atoms: O1_2  and  C2_3 
REMARK    2  A    between atoms: C8_11  and  N2_12 
REMARK    3  A    between atoms: N2_12  and  C9_13 
ROOT
HETATM    1  C2  UNL     1      33.308   5.065  46.178  1.00  0.00     0.080 C 
HETATM    2  C3  UNL     1      34.119   4.372  46.970  1.00  0.00     0.038 C 
HETATM    3  C4  UNL     1      34.739   4.834  48.212  1.00  0.00     0.015 C 
HETATM    4  C5  UNL     1      35.110   6.106  48.203  1.00  0.00    -0.021 C 
HETATM    5  P1  UNL     1      34.028   7.218  47.756  1.00  0.00    -0.065 P 
HETATM    6  C6  UNL     1      33.204   7.940  49.155  1.00  0.00     0.155 C 
HETATM    7  N1  UNL     1      32.009   7.300  49.597  1.00  0.00    -0.393 N 
HETATM    8  C7  UNL     1      30.878   7.098  48.831  1.00  0.00     0.117 C 
HETATM    9  C8  UNL     1      29.899   7.177  48.024  1.00  0.00     0.095 C 
HETATM   10  C15 UNL     1      30.034   8.441  47.274  1.00  0.00     0.172 C 
HETATM   11  N3  UNL     1      29.330   9.070  46.338  1.00  0.00    -0.280 NA
HETATM   12  N4  UNL     1      30.937   9.531  47.143  1.00  0.00    -0.215 NA
HETATM   13  C16 UNL     1      31.949   9.496  46.325  1.00  0.00     0.260 C 
HETATM   14  O2  UNL     1      31.348   8.290  46.156  1.00  0.00    -0.315 OA
HETATM   15  C17 UNL     1      31.934   7.047  46.033  1.00  0.00     0.158 C 
HETATM   16  C18 UNL     1      32.985   6.440  46.569  1.00  0.00     0.023 C 
HETATM   17  H6  UNL     1      34.805   8.174  47.034  1.00  0.00     0.064 HD
HETATM   18  H9  UNL     1      31.999   6.957  50.606  1.00  0.00     0.159 HD
HETATM   19  H15 UNL     1      28.460   8.654  45.985  1.00  0.00     0.188 HD
ENDROOT
BRANCH   9  20
HETATM   20  N2  UNL     1      28.737   6.736  47.373  1.00  0.00    -0.352 N 
HETATM   21  H11 UNL     1      28.620   6.781  46.344  1.00  0.00     0.166 HD
BRANCH  20  22
HETATM   22  C9  UNL     1      27.725   6.222  48.207  1.00  0.00     0.034 A 
HETATM   23  C10 UNL     1      26.736   7.046  48.685  1.00  0.00     0.032 A 
HETATM   24  C11 UNL     1      25.681   6.693  49.511  1.00  0.00     0.046 A 
HETATM   25  C12 UNL     1      25.693   5.334  49.852  1.00  0.00     0.138 A 
HETATM   26  F1  UNL     1      24.700   4.880  50.662  1.00  0.00    -0.204 F 
HETATM   27  C13 UNL     1      26.638   4.396  49.434  1.00  0.00     0.074 A 
HETATM   28 CL1  UNL     1      26.540   2.746  49.923  1.00  0.00    -0.081 Cl
HETATM   29  C14 UNL     1      27.600   4.926  48.627  1.00  0.00     0.056 A 
ENDBRANCH  20  22
ENDBRANCH   9  20
BRANCH   1  30
HETATM   30  O1  UNL     1      32.780   4.514  45.020  1.00  0.00    -0.355 OA
HETATM   31  C1  UNL     1      33.515   4.652  43.791  1.00  0.00     0.210 C 
ENDBRANCH   1  30
TORSDOF 3
ENDMDL
