MODEL 1
REMARK VINA RESULT:      -9.9      0.000      0.000
REMARK  2 active torsions:
REMARK  status: ('A' for Active; 'I' for Inactive)
REMARK    1  A    between atoms: N1_4  and  C4_5 
REMARK    2  A    between atoms: C7_9  and  C8_10 
ROOT
HETATM    1  C4  UNL     1      21.822   0.859  52.087  1.00  0.00     0.150 A 
HETATM    2  N2  UNL     1      22.951   1.214  51.582  1.00  0.00    -0.265 NA
HETATM    3  C5  UNL     1      24.250   0.837  52.093  1.00  0.00     0.208 A 
HETATM    4  C6  UNL     1      24.164  -0.031  53.296  1.00  0.00     0.040 A 
HETATM    5  C7  UNL     1      25.226  -0.472  53.890  1.00  0.00     0.058 C 
HETATM    6  N4  UNL     1      22.882  -0.388  53.807  1.00  0.00    -0.303 N 
HETATM    7  C16 UNL     1      22.542  -1.159  54.882  1.00  0.00     0.214 A 
HETATM    8  N5  UNL     1      21.193  -1.217  54.977  1.00  0.00    -0.253 NA
HETATM    9  C17 UNL     1      20.663  -0.487  53.969  1.00  0.00     0.151 A 
HETATM   10  C18 UNL     1      21.719   0.010  53.267  1.00  0.00     0.103 A 
ENDROOT
BRANCH   5  11
HETATM   11  C8  UNL     1      26.606  -0.215  53.516  1.00  0.00     0.050 C 
HETATM   12  C9  UNL     1      27.314  -1.133  52.911  1.00  0.00     0.010 C 
HETATM   13  C10 UNL     1      28.529  -1.452  53.136  1.00  0.00    -0.048 C 
HETATM   14  C11 UNL     1      28.882  -2.914  53.022  1.00  0.00     0.049 C 
HETATM   15  C12 UNL     1      29.738  -0.686  53.502  1.00  0.00     0.013 C 
HETATM   16  C13 UNL     1      29.700   0.609  53.838  1.00  0.00     0.075 C 
HETATM   17  C14 UNL     1      28.549   1.503  53.916  1.00  0.00     0.247 C 
HETATM   18  O1  UNL     1      28.687   2.735  54.078  1.00  0.00    -0.268 OA
HETATM   19  N3  UNL     1      27.195   1.070  53.818  1.00  0.00    -0.318 N 
HETATM   20  C15 UNL     1      26.200   2.096  54.068  1.00  0.00     0.159 C 
ENDBRANCH   5  11
BRANCH   1  21
HETATM   21  N1  UNL     1      20.587   1.287  51.503  1.00  0.00    -0.357 N 
HETATM   22  C3  UNL     1      19.842   0.957  50.302  1.00  0.00     0.161 C 
HETATM   23  C2  UNL     1      19.727   2.220  49.539  1.00  0.00    -0.036 C 
HETATM   24  C1  UNL     1      20.041   2.481  48.275  1.00  0.00     0.019 C 
HETATM   25  C20 UNL     1      19.160   3.009  50.683  1.00  0.00     0.218 C 
HETATM   26  C19 UNL     1      19.583   2.243  51.901  1.00  0.00     0.166 C 
HETATM   27  F1  UNL     1      19.731   4.274  50.689  1.00  0.00    -0.243 F 
ENDBRANCH   1  21
TORSDOF 2
ENDMDL
MODEL 2
REMARK VINA RESULT:      -9.4      4.083      5.993
REMARK  2 active torsions:
REMARK  status: ('A' for Active; 'I' for Inactive)
REMARK    1  A    between atoms: N1_4  and  C4_5 
REMARK    2  A    between atoms: C7_9  and  C8_10 
ROOT
HETATM    1  C4  UNL     1      23.799   4.847  51.003  1.00  0.00     0.150 A 
HETATM    2  N2  UNL     1      23.026   4.170  51.778  1.00  0.00    -0.265 NA
HETATM    3  C5  UNL     1      23.281   2.825  52.244  1.00  0.00     0.208 A 
HETATM    4  C6  UNL     1      24.564   2.275  51.734  1.00  0.00     0.040 A 
HETATM    5  C7  UNL     1      24.963   1.084  52.050  1.00  0.00     0.058 C 
HETATM    6  N4  UNL     1      25.375   3.076  50.879  1.00  0.00    -0.303 N 
HETATM    7  C16 UNL     1      26.575   2.802  50.288  1.00  0.00     0.214 A 
HETATM    8  N5  UNL     1      26.966   3.875  49.559  1.00  0.00    -0.253 NA
HETATM    9  C17 UNL     1      26.022   4.837  49.679  1.00  0.00     0.151 A 
HETATM   10  C18 UNL     1      25.059   4.322  50.492  1.00  0.00     0.103 A 
ENDROOT
BRANCH   5  11
HETATM   11  C8  UNL     1      24.275   0.131  52.903  1.00  0.00     0.050 C 
HETATM   12  C9  UNL     1      23.072  -0.285  52.603  1.00  0.00     0.010 C 
HETATM   13  C10 UNL     1      22.085  -0.448  53.395  1.00  0.00    -0.048 C 
HETATM   14  C11 UNL     1      20.718  -0.101  52.861  1.00  0.00     0.049 C 
HETATM   15  C12 UNL     1      21.958  -0.921  54.789  1.00  0.00     0.013 C 
HETATM   16  C13 UNL     1      23.016  -1.141  55.579  1.00  0.00     0.075 C 
HETATM   17  C14 UNL     1      24.435  -0.979  55.276  1.00  0.00     0.247 C 
HETATM   18  O1  UNL     1      25.322  -1.388  56.057  1.00  0.00    -0.268 OA
HETATM   19  N3  UNL     1      24.933  -0.359  54.094  1.00  0.00    -0.318 N 
HETATM   20  C15 UNL     1      26.371  -0.169  54.056  1.00  0.00     0.159 C 
ENDBRANCH   5  11
BRANCH   1  21
HETATM   21  N1  UNL     1      23.454   6.176  50.598  1.00  0.00    -0.357 N 
HETATM   22  C3  UNL     1      22.715   6.763  49.494  1.00  0.00     0.161 C 
HETATM   23  C2  UNL     1      23.673   7.646  48.793  1.00  0.00    -0.036 C 
HETATM   24  C1  UNL     1      24.006   7.689  47.508  1.00  0.00     0.019 C 
HETATM   25  C20 UNL     1      24.074   8.404  50.026  1.00  0.00     0.218 C 
HETATM   26  C19 UNL     1      23.721   7.481  51.154  1.00  0.00     0.166 C 
HETATM   27  F1  UNL     1      25.444   8.624  49.997  1.00  0.00    -0.243 F 
ENDBRANCH   1  21
TORSDOF 2
ENDMDL
MODEL 3
REMARK VINA RESULT:      -9.2      3.323      7.673
REMARK  2 active torsions:
REMARK  status: ('A' for Active; 'I' for Inactive)
REMARK    1  A    between atoms: N1_4  and  C4_5 
REMARK    2  A    between atoms: C7_9  and  C8_10 
ROOT
HETATM    1  C4  UNL     1      24.248   0.366  53.210  1.00  0.00     0.150 A 
HETATM    2  N2  UNL     1      24.109   1.065  52.139  1.00  0.00    -0.265 NA
HETATM    3  C5  UNL     1      22.881   1.211  51.390  1.00  0.00     0.208 A 
HETATM    4  C6  UNL     1      21.750   0.458  51.990  1.00  0.00     0.040 A 
HETATM    5  C7  UNL     1      20.568   0.474  51.460  1.00  0.00     0.058 C 
HETATM    6  N4  UNL     1      21.968  -0.297  53.179  1.00  0.00    -0.303 N 
HETATM    7  C16 UNL     1      21.106  -1.063  53.911  1.00  0.00     0.214 A 
HETATM    8  N5  UNL     1      21.770  -1.592  54.966  1.00  0.00    -0.253 NA
HETATM    9  C17 UNL     1      23.055  -1.171  54.916  1.00  0.00     0.151 A 
HETATM   10  C18 UNL     1      23.150  -0.380  53.812  1.00  0.00     0.103 A 
ENDROOT
BRANCH   5  11
HETATM   11  C8  UNL     1      20.160   1.182  50.259  1.00  0.00     0.050 C 
HETATM   12  C9  UNL     1      20.848   1.069  49.153  1.00  0.00     0.010 C 
HETATM   13  C10 UNL     1      21.163   1.998  48.336  1.00  0.00    -0.048 C 
HETATM   14  C11 UNL     1      22.522   1.904  47.689  1.00  0.00     0.049 C 
HETATM   15  C12 UNL     1      20.473   3.208  47.846  1.00  0.00     0.013 C 
HETATM   16  C13 UNL     1      19.320   3.646  48.367  1.00  0.00     0.075 C 
HETATM   17  C14 UNL     1      18.532   3.077  49.456  1.00  0.00     0.247 C 
HETATM   18  O1  UNL     1      17.385   3.497  49.722  1.00  0.00    -0.268 OA
HETATM   19  N3  UNL     1      18.980   2.017  50.296  1.00  0.00    -0.318 N 
HETATM   20  C15 UNL     1      18.104   1.699  51.408  1.00  0.00     0.159 C 
ENDBRANCH   5  11
BRANCH   1  21
HETATM   21  N1  UNL     1      25.511   0.287  53.879  1.00  0.00    -0.357 N 
HETATM   22  C3  UNL     1      26.345   1.210  54.628  1.00  0.00     0.161 C 
HETATM   23  C2  UNL     1      27.629   1.277  53.897  1.00  0.00    -0.036 C 
HETATM   24  C1  UNL     1      28.298   2.333  53.448  1.00  0.00     0.019 C 
HETATM   25  C20 UNL     1      27.840  -0.209  53.874  1.00  0.00     0.218 C 
HETATM   26  C19 UNL     1      26.466  -0.777  54.068  1.00  0.00     0.166 C 
HETATM   27  F1  UNL     1      28.341  -0.578  52.633  1.00  0.00    -0.243 F 
ENDBRANCH   1  21
TORSDOF 2
ENDMDL
MODEL 4
REMARK VINA RESULT:      -9.1      3.351      4.375
REMARK  2 active torsions:
REMARK  status: ('A' for Active; 'I' for Inactive)
REMARK    1  A    between atoms: N1_4  and  C4_5 
REMARK    2  A    between atoms: C7_9  and  C8_10 
ROOT
HETATM    1  C4  UNL     1      24.993   3.753  50.604  1.00  0.00     0.150 A 
HETATM    2  N2  UNL     1      26.208   3.365  50.773  1.00  0.00    -0.265 NA
HETATM    3  C5  UNL     1      26.633   2.326  51.684  1.00  0.00     0.208 A 
HETATM    4  C6  UNL     1      25.502   1.722  52.434  1.00  0.00     0.040 A 
HETATM    5  C7  UNL     1      25.690   0.772  53.294  1.00  0.00     0.058 C 
HETATM    6  N4  UNL     1      24.179   2.198  52.202  1.00  0.00    -0.303 N 
HETATM    7  C16 UNL     1      22.991   1.814  52.756  1.00  0.00     0.214 A 
HETATM    8  N5  UNL     1      21.992   2.554  52.221  1.00  0.00    -0.253 NA
HETATM    9  C17 UNL     1      22.531   3.413  51.325  1.00  0.00     0.151 A 
HETATM   10  C18 UNL     1      23.872   3.174  51.332  1.00  0.00     0.103 A 
ENDROOT
BRANCH   5  11
HETATM   11  C8  UNL     1      26.958   0.163  53.659  1.00  0.00     0.050 C 
HETATM   12  C9  UNL     1      27.825   0.817  54.387  1.00  0.00     0.010 C 
HETATM   13  C10 UNL     1      29.089   0.873  54.226  1.00  0.00    -0.048 C 
HETATM   14  C11 UNL     1      29.757   2.191  54.529  1.00  0.00     0.049 C 
HETATM   15  C12 UNL     1      30.110  -0.102  53.790  1.00  0.00     0.013 C 
HETATM   16  C13 UNL     1      29.798  -1.305  53.294  1.00  0.00     0.075 C 
HETATM   17  C14 UNL     1      28.480  -1.895  53.083  1.00  0.00     0.247 C 
HETATM   18  O1  UNL     1      28.344  -3.098  52.771  1.00  0.00    -0.268 OA
HETATM   19  N3  UNL     1      27.255  -1.178  53.209  1.00  0.00    -0.318 N 
HETATM   20  C15 UNL     1      26.068  -1.912  52.815  1.00  0.00     0.159 C 
ENDBRANCH   5  11
BRANCH   1  21
HETATM   21  N1  UNL     1      24.676   4.793  49.673  1.00  0.00    -0.357 N 
HETATM   22  C3  UNL     1      25.148   6.145  49.430  1.00  0.00     0.161 C 
HETATM   23  C2  UNL     1      23.968   7.021  49.599  1.00  0.00    -0.036 C 
HETATM   24  C1  UNL     1      23.811   8.098  50.360  1.00  0.00     0.019 C 
HETATM   25  C20 UNL     1      23.102   6.254  48.642  1.00  0.00     0.218 C 
HETATM   26  C19 UNL     1      23.732   4.895  48.586  1.00  0.00     0.166 C 
HETATM   27  F1  UNL     1      21.818   6.167  49.162  1.00  0.00    -0.243 F 
ENDBRANCH   1  21
TORSDOF 2
ENDMDL
MODEL 5
REMARK VINA RESULT:      -8.8      7.599     10.833
REMARK  2 active torsions:
REMARK  status: ('A' for Active; 'I' for Inactive)
REMARK    1  A    between atoms: N1_4  and  C4_5 
REMARK    2  A    between atoms: C7_9  and  C8_10 
ROOT
HETATM    1  C4  UNL     1      29.843   6.076  48.239  1.00  0.00     0.150 A 
HETATM    2  N2  UNL     1      29.053   5.063  48.306  1.00  0.00    -0.265 NA
HETATM    3  C5  UNL     1      27.632   5.128  48.562  1.00  0.00     0.208 A 
HETATM    4  C6  UNL     1      27.144   6.519  48.745  1.00  0.00     0.040 A 
HETATM    5  C7  UNL     1      25.896   6.774  48.978  1.00  0.00     0.058 C 
HETATM    6  N4  UNL     1      28.070   7.599  48.659  1.00  0.00    -0.303 N 
HETATM    7  C16 UNL     1      27.874   8.944  48.789  1.00  0.00     0.214 A 
HETATM    8  N5  UNL     1      29.058   9.582  48.625  1.00  0.00    -0.253 NA
HETATM    9  C17 UNL     1      30.013   8.654  48.391  1.00  0.00     0.151 A 
HETATM   10  C18 UNL     1      29.383   7.448  48.417  1.00  0.00     0.103 A 
ENDROOT
BRANCH   5  11
HETATM   11  C8  UNL     1      24.816   5.810  49.098  1.00  0.00     0.050 C 
HETATM   12  C9  UNL     1      24.805   4.940  50.074  1.00  0.00     0.010 C 
HETATM   13  C10 UNL     1      24.505   3.701  50.007  1.00  0.00    -0.048 C 
HETATM   14  C11 UNL     1      25.299   2.760  50.878  1.00  0.00     0.049 C 
HETATM   15  C12 UNL     1      23.509   2.930  49.237  1.00  0.00     0.013 C 
HETATM   16  C13 UNL     1      22.774   3.470  48.256  1.00  0.00     0.075 C 
HETATM   17  C14 UNL     1      22.781   4.841  47.755  1.00  0.00     0.247 C 
HETATM   18  O1  UNL     1      21.916   5.246  46.949  1.00  0.00    -0.268 OA
HETATM   19  N3  UNL     1      23.746   5.821  48.126  1.00  0.00    -0.318 N 
HETATM   20  C15 UNL     1      23.659   7.076  47.403  1.00  0.00     0.159 C 
ENDBRANCH   5  11
BRANCH   1  21
HETATM   21  N1  UNL     1      31.240   5.905  47.979  1.00  0.00    -0.357 N 
HETATM   22  C3  UNL     1      32.123   6.162  46.855  1.00  0.00     0.161 C 
HETATM   23  C2  UNL     1      32.700   4.850  46.488  1.00  0.00    -0.036 C 
HETATM   24  C1  UNL     1      32.736   4.237  45.310  1.00  0.00     0.019 C 
HETATM   25  C20 UNL     1      33.184   4.532  47.873  1.00  0.00     0.218 C 
HETATM   26  C19 UNL     1      32.338   5.392  48.763  1.00  0.00     0.166 C 
HETATM   27  F1  UNL     1      32.948   3.189  48.138  1.00  0.00    -0.243 F 
ENDBRANCH   1  21
TORSDOF 2
ENDMDL
MODEL 6
REMARK VINA RESULT:      -8.8      3.314      7.415
REMARK  2 active torsions:
REMARK  status: ('A' for Active; 'I' for Inactive)
REMARK    1  A    between atoms: N1_4  and  C4_5 
REMARK    2  A    between atoms: C7_9  and  C8_10 
ROOT
HETATM    1  C4  UNL     1      25.610   0.449  53.189  1.00  0.00     0.150 A 
HETATM    2  N2  UNL     1      25.631   1.329  52.249  1.00  0.00    -0.265 NA
HETATM    3  C5  UNL     1      24.465   1.876  51.592  1.00  0.00     0.208 A 
HETATM    4  C6  UNL     1      23.194   1.315  52.118  1.00  0.00     0.040 A 
HETATM    5  C7  UNL     1      22.045   1.691  51.653  1.00  0.00     0.058 C 
HETATM    6  N4  UNL     1      23.238   0.344  53.159  1.00  0.00    -0.303 N 
HETATM    7  C16 UNL     1      22.226  -0.312  53.801  1.00  0.00     0.214 A 
HETATM    8  N5  UNL     1      22.756  -1.147  54.726  1.00  0.00    -0.253 NA
HETATM    9  C17 UNL     1      24.103  -1.031  54.683  1.00  0.00     0.151 A 
HETATM   10  C18 UNL     1      24.373  -0.112  53.715  1.00  0.00     0.103 A 
ENDROOT
BRANCH   5  11
HETATM   11  C8  UNL     1      21.804   2.663  50.600  1.00  0.00     0.050 C 
HETATM   12  C9  UNL     1      21.729   2.287  49.350  1.00  0.00     0.010 C 
HETATM   13  C10 UNL     1      22.238   2.864  48.333  1.00  0.00    -0.048 C 
HETATM   14  C11 UNL     1      22.774   1.973  47.240  1.00  0.00     0.049 C 
HETATM   15  C12 UNL     1      22.438   4.277  47.951  1.00  0.00     0.013 C 
HETATM   16  C13 UNL     1      22.216   5.294  48.793  1.00  0.00     0.075 C 
HETATM   17  C14 UNL     1      21.760   5.253  50.179  1.00  0.00     0.247 C 
HETATM   18  O1  UNL     1      21.431   6.293  50.790  1.00  0.00    -0.268 OA
HETATM   19  N3  UNL     1      21.648   4.058  50.947  1.00  0.00    -0.318 N 
HETATM   20  C15 UNL     1      21.316   4.253  52.346  1.00  0.00     0.159 C 
ENDBRANCH   5  11
BRANCH   1  21
HETATM   21  N1  UNL     1      26.825  -0.029  53.776  1.00  0.00    -0.357 N 
HETATM   22  C3  UNL     1      27.584   0.276  54.976  1.00  0.00     0.161 C 
HETATM   23  C2  UNL     1      28.914   0.723  54.508  1.00  0.00    -0.036 C 
HETATM   24  C1  UNL     1      29.590   1.829  54.798  1.00  0.00     0.019 C 
HETATM   25  C20 UNL     1      29.159  -0.484  53.649  1.00  0.00     0.218 C 
HETATM   26  C19 UNL     1      27.788  -1.029  53.383  1.00  0.00     0.166 C 
HETATM   27  F1  UNL     1      29.754  -0.081  52.461  1.00  0.00    -0.243 F 
ENDBRANCH   1  21
TORSDOF 2
ENDMDL
MODEL 7
REMARK VINA RESULT:      -8.7      3.707      8.233
REMARK  2 active torsions:
REMARK  status: ('A' for Active; 'I' for Inactive)
REMARK    1  A    between atoms: N1_4  and  C4_5 
REMARK    2  A    between atoms: C7_9  and  C8_10 
ROOT
HETATM    1  C4  UNL     1      24.142   0.435  52.848  1.00  0.00     0.150 A 
HETATM    2  N2  UNL     1      23.345   0.919  51.961  1.00  0.00    -0.265 NA
HETATM    3  C5  UNL     1      21.913   0.722  51.929  1.00  0.00     0.208 A 
HETATM    4  C6  UNL     1      21.424  -0.117  53.053  1.00  0.00     0.040 A 
HETATM    5  C7  UNL     1      20.167  -0.398  53.193  1.00  0.00     0.058 C 
HETATM    6  N4  UNL     1      22.358  -0.623  54.003  1.00  0.00    -0.303 N 
HETATM    7  C16 UNL     1      22.163  -1.406  55.105  1.00  0.00     0.214 A 
HETATM    8  N5  UNL     1      23.356  -1.633  55.705  1.00  0.00    -0.253 NA
HETATM    9  C17 UNL     1      24.317  -1.001  54.993  1.00  0.00     0.151 A 
HETATM   10  C18 UNL     1      23.680  -0.391  53.956  1.00  0.00     0.103 A 
ENDROOT
BRANCH   5  11
HETATM   11  C8  UNL     1      19.078   0.026  52.331  1.00  0.00     0.050 C 
HETATM   12  C9  UNL     1      19.285   0.889  51.370  1.00  0.00     0.010 C 
HETATM   13  C10 UNL     1      18.546   1.875  51.038  1.00  0.00    -0.048 C 
HETATM   14  C11 UNL     1      19.249   3.133  50.590  1.00  0.00     0.049 C 
HETATM   15  C12 UNL     1      17.086   2.087  50.985  1.00  0.00     0.013 C 
HETATM   16  C13 UNL     1      16.207   1.209  51.483  1.00  0.00     0.075 C 
HETATM   17  C14 UNL     1      16.462  -0.068  52.143  1.00  0.00     0.247 C 
HETATM   18  O1  UNL     1      15.535  -0.866  52.403  1.00  0.00    -0.268 OA
HETATM   19  N3  UNL     1      17.754  -0.515  52.543  1.00  0.00    -0.318 N 
HETATM   20  C15 UNL     1      17.770  -1.745  53.313  1.00  0.00     0.159 C 
ENDBRANCH   5  11
BRANCH   1  21
HETATM   21  N1  UNL     1      25.549   0.691  52.790  1.00  0.00    -0.357 N 
HETATM   22  C3  UNL     1      26.662   0.182  52.008  1.00  0.00     0.161 C 
HETATM   23  C2  UNL     1      27.609  -0.398  52.985  1.00  0.00    -0.036 C 
HETATM   24  C1  UNL     1      28.159  -1.607  53.022  1.00  0.00     0.019 C 
HETATM   25  C20 UNL     1      27.683   0.834  53.839  1.00  0.00     0.218 C 
HETATM   26  C19 UNL     1      26.424   1.581  53.513  1.00  0.00     0.166 C 
HETATM   27  F1  UNL     1      27.686   0.460  55.176  1.00  0.00    -0.243 F 
ENDBRANCH   1  21
TORSDOF 2
ENDMDL
MODEL 8
REMARK VINA RESULT:      -8.7      5.472      7.660
REMARK  2 active torsions:
REMARK  status: ('A' for Active; 'I' for Inactive)
REMARK    1  A    between atoms: N1_4  and  C4_5 
REMARK    2  A    between atoms: C7_9  and  C8_10 
ROOT
HETATM    1  C4  UNL     1      25.922   1.865  51.554  1.00  0.00     0.150 A 
HETATM    2  N2  UNL     1      26.911   2.630  51.251  1.00  0.00    -0.265 NA
HETATM    3  C5  UNL     1      26.811   3.877  50.527  1.00  0.00     0.208 A 
HETATM    4  C6  UNL     1      25.413   4.213  50.153  1.00  0.00     0.040 A 
HETATM    5  C7  UNL     1      25.126   5.296  49.504  1.00  0.00     0.058 C 
HETATM    6  N4  UNL     1      24.361   3.324  50.519  1.00  0.00    -0.303 N 
HETATM    7  C16 UNL     1      23.016   3.405  50.294  1.00  0.00     0.214 A 
HETATM    8  N5  UNL     1      22.410   2.319  50.832  1.00  0.00    -0.253 NA
HETATM    9  C17 UNL     1      23.359   1.540  51.400  1.00  0.00     0.151 A 
HETATM   10  C18 UNL     1      24.544   2.177  51.194  1.00  0.00     0.103 A 
ENDROOT
BRANCH   5  11
HETATM   11  C8  UNL     1      26.059   6.314  49.050  1.00  0.00     0.050 C 
HETATM   12  C9  UNL     1      27.054   6.002  48.262  1.00  0.00     0.010 C 
HETATM   13  C10 UNL     1      28.260   6.412  48.333  1.00  0.00    -0.048 C 
HETATM   14  C11 UNL     1      29.340   5.419  47.983  1.00  0.00     0.049 C 
HETATM   15  C12 UNL     1      28.883   7.701  48.697  1.00  0.00     0.013 C 
HETATM   16  C13 UNL     1      28.188   8.721  49.215  1.00  0.00     0.075 C 
HETATM   17  C14 UNL     1      26.763   8.798  49.519  1.00  0.00     0.247 C 
HETATM   18  O1  UNL     1      26.220   9.878  49.841  1.00  0.00    -0.268 OA
HETATM   19  N3  UNL     1      25.877   7.683  49.479  1.00  0.00    -0.318 N 
HETATM   20  C15 UNL     1      24.533   7.946  49.957  1.00  0.00     0.159 C 
ENDBRANCH   5  11
BRANCH   1  21
HETATM   21  N1  UNL     1      26.128   0.646  52.276  1.00  0.00    -0.357 N 
HETATM   22  C3  UNL     1      25.907   0.202  53.642  1.00  0.00     0.161 C 
HETATM   23  C2  UNL     1      27.236  -0.193  54.157  1.00  0.00    -0.036 C 
HETATM   24  C1  UNL     1      27.868   0.190  55.261  1.00  0.00     0.019 C 
HETATM   25  C20 UNL     1      27.545  -1.119  53.017  1.00  0.00     0.218 C 
HETATM   26  C19 UNL     1      26.653  -0.646  51.908  1.00  0.00     0.166 C 
HETATM   27  F1  UNL     1      28.877  -0.969  52.658  1.00  0.00    -0.243 F 
ENDBRANCH   1  21
TORSDOF 2
ENDMDL
MODEL 9
REMARK VINA RESULT:      -8.7      3.942      7.992
REMARK  2 active torsions:
REMARK  status: ('A' for Active; 'I' for Inactive)
REMARK    1  A    between atoms: N1_4  and  C4_5 
REMARK    2  A    between atoms: C7_9  and  C8_10 
ROOT
HETATM    1  C4  UNL     1      25.488   0.910  52.566  1.00  0.00     0.150 A 
HETATM    2  N2  UNL     1      25.843   1.839  51.749  1.00  0.00    -0.265 NA
HETATM    3  C5  UNL     1      24.955   2.553  50.861  1.00  0.00     0.208 A 
HETATM    4  C6  UNL     1      23.543   2.108  50.980  1.00  0.00     0.040 A 
HETATM    5  C7  UNL     1      22.602   2.638  50.265  1.00  0.00     0.058 C 
HETATM    6  N4  UNL     1      23.214   1.074  51.904  1.00  0.00    -0.303 N 
HETATM    7  C16 UNL     1      22.010   0.497  52.194  1.00  0.00     0.214 A 
HETATM    8  N5  UNL     1      22.190  -0.449  53.147  1.00  0.00    -0.253 NA
HETATM    9  C17 UNL     1      23.504  -0.483  53.471  1.00  0.00     0.151 A 
HETATM   10  C18 UNL     1      24.108   0.459  52.696  1.00  0.00     0.103 A 
ENDROOT
BRANCH   5  11
HETATM   11  C8  UNL     1      22.746   3.696  49.279  1.00  0.00     0.050 C 
HETATM   12  C9  UNL     1      23.152   4.887  49.634  1.00  0.00     0.010 C 
HETATM   13  C10 UNL     1      22.696   6.012  49.243  1.00  0.00    -0.048 C 
HETATM   14  C11 UNL     1      22.644   7.120  50.266  1.00  0.00     0.049 C 
HETATM   15  C12 UNL     1      22.178   6.515  47.954  1.00  0.00     0.013 C 
HETATM   16  C13 UNL     1      21.945   5.716  46.906  1.00  0.00     0.075 C 
HETATM   17  C14 UNL     1      22.132   4.273  46.794  1.00  0.00     0.247 C 
HETATM   18  O1  UNL     1      22.035   3.683  45.696  1.00  0.00    -0.268 OA
HETATM   19  N3  UNL     1      22.435   3.420  47.894  1.00  0.00    -0.318 N 
HETATM   20  C15 UNL     1      22.436   2.001  47.593  1.00  0.00     0.159 C 
ENDBRANCH   5  11
BRANCH   1  21
HETATM   21  N1  UNL     1      26.449   0.262  53.407  1.00  0.00    -0.357 N 
HETATM   22  C3  UNL     1      27.072   0.558  54.685  1.00  0.00     0.161 C 
HETATM   23  C2  UNL     1      28.525   0.627  54.419  1.00  0.00    -0.036 C 
HETATM   24  C1  UNL     1      29.398   1.585  54.709  1.00  0.00     0.019 C 
HETATM   25  C20 UNL     1      28.595  -0.713  53.746  1.00  0.00     0.218 C 
HETATM   26  C19 UNL     1      27.188  -0.972  53.297  1.00  0.00     0.166 C 
HETATM   27  F1  UNL     1      29.440  -0.626  52.648  1.00  0.00    -0.243 F 
ENDBRANCH   1  21
TORSDOF 2
ENDMDL
