MODEL 1
REMARK VINA RESULT:      -8.2      0.000      0.000
REMARK  4 active torsions:
REMARK  status: ('A' for Active; 'I' for Inactive)
REMARK    1  A    between atoms: O1_2  and  C2_3 
REMARK    2  A    between atoms: C4_5  and  O2_6 
REMARK    3  A    between atoms: O2_6  and  C5_7 
REMARK    4  A    between atoms: C10_13  and  N2_14 
ROOT
HETATM    1  C2  UNL     1      20.099  -0.302  52.823  1.00  0.00     0.073 A 
HETATM    2  C3  UNL     1      21.019   0.468  52.145  1.00  0.00     0.074 A 
HETATM    3  C4  UNL     1      22.357   0.594  52.432  1.00  0.00     0.088 A 
HETATM    4  C9  UNL     1      22.704  -0.179  53.541  1.00  0.00     0.072 A 
HETATM    5  C10 UNL     1      24.026  -0.149  53.933  1.00  0.00     0.145 A 
HETATM    6  N3  UNL     1      24.475  -0.875  55.001  1.00  0.00    -0.223 NA
HETATM    7  C16 UNL     1      23.572  -1.642  55.682  1.00  0.00     0.236 A 
HETATM    8  N4  UNL     1      22.274  -1.699  55.332  1.00  0.00    -0.241 NA
HETATM    9  C17 UNL     1      21.864  -0.980  54.284  1.00  0.00     0.077 A 
HETATM   10  C18 UNL     1      20.541  -1.031  53.907  1.00  0.00     0.069 A 
ENDROOT
BRANCH   5  11
HETATM   11  N2  UNL     1      25.115   0.604  53.384  1.00  0.00    -0.330 N 
HETATM   12  C11 UNL     1      25.735   1.896  53.556  1.00  0.00     0.156 C 
HETATM   13  C12 UNL     1      27.125   1.709  54.122  1.00  0.00     0.012 C 
HETATM   14  C13 UNL     1      27.797   0.850  53.329  1.00  0.00     0.014 C 
HETATM   15 CL1  UNL     1      29.459   0.502  53.833  1.00  0.00    -0.089 Cl
HETATM   16  C14 UNL     1      27.204   0.226  52.112  1.00  0.00     0.110 C 
HETATM   17  C15 UNL     1      25.773  -0.201  52.344  1.00  0.00     0.278 C 
HETATM   18  F1  UNL     1      25.808  -1.541  52.663  1.00  0.00    -0.226 F 
ENDBRANCH   5  11
BRANCH   3  19
HETATM   19  O2  UNL     1      23.326   1.331  51.809  1.00  0.00    -0.343 OA
BRANCH  19  20
HETATM   20  C5  UNL     1      23.015   2.568  51.239  1.00  0.00     0.158 C 
HETATM   21  C6  UNL     1      22.852   3.677  52.246  1.00  0.00     0.064 C 
HETATM   22  C7  UNL     1      23.473   4.912  51.642  1.00  0.00     0.272 C 
HETATM   23  N1  UNL     1      23.894   4.553  50.313  1.00  0.00     0.086 N 
HETATM   24  C8  UNL     1      24.146   3.113  50.385  1.00  0.00     0.301 C 
HETATM   25  H10 UNL     1      23.097   4.708  49.659  1.00  0.00     0.315 HD
ENDBRANCH  19  20
ENDBRANCH   3  19
BRANCH   1  26
HETATM   26  O1  UNL     1      18.776  -0.335  52.424  1.00  0.00    -0.356 OA
HETATM   27  C1  UNL     1      17.897  -1.217  53.082  1.00  0.00     0.210 C 
ENDBRANCH   1  26
TORSDOF 4
ENDMDL
MODEL 2
REMARK VINA RESULT:      -8.1      3.434      5.547
REMARK  4 active torsions:
REMARK  status: ('A' for Active; 'I' for Inactive)
REMARK    1  A    between atoms: O1_2  and  C2_3 
REMARK    2  A    between atoms: C4_5  and  O2_6 
REMARK    3  A    between atoms: O2_6  and  C5_7 
REMARK    4  A    between atoms: C10_13  and  N2_14 
ROOT
HETATM    1  C2  UNL     1      26.009  -0.206  54.342  1.00  0.00     0.073 A 
HETATM    2  C3  UNL     1      25.912   0.675  53.286  1.00  0.00     0.074 A 
HETATM    3  C4  UNL     1      24.773   0.997  52.586  1.00  0.00     0.088 A 
HETATM    4  C9  UNL     1      23.670   0.301  53.082  1.00  0.00     0.072 A 
HETATM    5  C10 UNL     1      22.456   0.539  52.470  1.00  0.00     0.145 A 
HETATM    6  N3  UNL     1      21.310  -0.083  52.881  1.00  0.00    -0.223 NA
HETATM    7  C16 UNL     1      21.395  -0.958  53.927  1.00  0.00     0.236 A 
HETATM    8  N4  UNL     1      22.558  -1.219  54.550  1.00  0.00    -0.241 NA
HETATM    9  C17 UNL     1      23.661  -0.596  54.128  1.00  0.00     0.077 A 
HETATM   10  C18 UNL     1      24.860  -0.844  54.758  1.00  0.00     0.069 A 
ENDROOT
BRANCH   5  11
HETATM   11  N2  UNL     1      22.158   1.384  51.351  1.00  0.00    -0.330 N 
HETATM   12  C11 UNL     1      22.259   1.352  49.911  1.00  0.00     0.156 C 
HETATM   13  C12 UNL     1      20.869   1.331  49.316  1.00  0.00     0.012 C 
HETATM   14  C13 UNL     1      20.173   2.369  49.821  1.00  0.00     0.014 C 
HETATM   15 CL1  UNL     1      18.506   2.513  49.238  1.00  0.00    -0.089 Cl
HETATM   16  C14 UNL     1      20.743   3.337  50.800  1.00  0.00     0.110 C 
HETATM   17  C15 UNL     1      21.585   2.644  51.845  1.00  0.00     0.278 C 
HETATM   18  F1  UNL     1      20.773   2.454  52.943  1.00  0.00    -0.226 F 
ENDBRANCH   5  11
BRANCH   3  19
HETATM   19  O2  UNL     1      24.598   1.856  51.536  1.00  0.00    -0.343 OA
BRANCH  19  20
HETATM   20  C5  UNL     1      25.473   2.929  51.349  1.00  0.00     0.158 C 
HETATM   21  C6  UNL     1      26.441   2.732  50.211  1.00  0.00     0.064 C 
HETATM   22  C7  UNL     1      26.578   4.064  49.516  1.00  0.00     0.272 C 
HETATM   23  N1  UNL     1      25.794   5.005  50.273  1.00  0.00     0.086 N 
HETATM   24  C8  UNL     1      24.755   4.191  50.906  1.00  0.00     0.301 C 
HETATM   25  H10 UNL     1      26.394   5.406  51.027  1.00  0.00     0.315 HD
ENDBRANCH  19  20
ENDBRANCH   3  19
BRANCH   1  26
HETATM   26  O1  UNL     1      27.225  -0.437  54.957  1.00  0.00    -0.356 OA
HETATM   27  C1  UNL     1      28.334   0.341  54.570  1.00  0.00     0.210 C 
ENDBRANCH   1  26
TORSDOF 4
ENDMDL
MODEL 3
REMARK VINA RESULT:      -7.8      2.074      4.881
REMARK  4 active torsions:
REMARK  status: ('A' for Active; 'I' for Inactive)
REMARK    1  A    between atoms: O1_2  and  C2_3 
REMARK    2  A    between atoms: C4_5  and  O2_6 
REMARK    3  A    between atoms: O2_6  and  C5_7 
REMARK    4  A    between atoms: C10_13  and  N2_14 
ROOT
HETATM    1  C2  UNL     1      21.929   3.637  50.391  1.00  0.00     0.073 A 
HETATM    2  C3  UNL     1      22.001   2.610  51.307  1.00  0.00     0.074 A 
HETATM    3  C4  UNL     1      23.140   1.980  51.747  1.00  0.00     0.088 A 
HETATM    4  C9  UNL     1      24.275   2.516  51.136  1.00  0.00     0.072 A 
HETATM    5  C10 UNL     1      25.492   1.976  51.497  1.00  0.00     0.145 A 
HETATM    6  N3  UNL     1      26.666   2.431  50.966  1.00  0.00    -0.223 NA
HETATM    7  C16 UNL     1      26.606   3.450  50.057  1.00  0.00     0.236 A 
HETATM    8  N4  UNL     1      25.440   4.004  49.678  1.00  0.00    -0.241 NA
HETATM    9  C17 UNL     1      24.310   3.539  50.214  1.00  0.00     0.077 A 
HETATM   10  C18 UNL     1      23.107   4.098  49.844  1.00  0.00     0.069 A 
ENDROOT
BRANCH   5  11
HETATM   11  N2  UNL     1      25.770   0.895  52.397  1.00  0.00    -0.330 N 
HETATM   12  C11 UNL     1      25.928  -0.539  52.353  1.00  0.00     0.156 C 
HETATM   13  C12 UNL     1      27.365  -0.891  52.666  1.00  0.00     0.012 C 
HETATM   14  C13 UNL     1      27.701  -0.311  53.836  1.00  0.00     0.014 C 
HETATM   15 CL1  UNL     1      29.361  -0.610  54.376  1.00  0.00    -0.089 Cl
HETATM   16  C14 UNL     1      26.760   0.525  54.634  1.00  0.00     0.110 C 
HETATM   17  C15 UNL     1      25.938   1.437  53.753  1.00  0.00     0.278 C 
HETATM   18  F1  UNL     1      26.571   2.661  53.753  1.00  0.00    -0.226 F 
ENDBRANCH   5  11
BRANCH   3  19
HETATM   19  O2  UNL     1      23.292   0.962  52.649  1.00  0.00    -0.343 OA
BRANCH  19  20
HETATM   20  C5  UNL     1      22.233   0.090  52.913  1.00  0.00     0.158 C 
HETATM   21  C6  UNL     1      22.670  -1.271  53.390  1.00  0.00     0.064 C 
HETATM   22  C7  UNL     1      21.701  -1.692  54.465  1.00  0.00     0.272 C 
HETATM   23  N1  UNL     1      20.698  -0.661  54.541  1.00  0.00     0.086 N 
HETATM   24  C8  UNL     1      21.382   0.549  54.083  1.00  0.00     0.301 C 
HETATM   25  H10 UNL     1      19.942  -0.882  53.858  1.00  0.00     0.315 HD
ENDBRANCH  19  20
ENDBRANCH   3  19
BRANCH   1  26
HETATM   26  O1  UNL     1      20.708   4.181  50.037  1.00  0.00    -0.356 OA
HETATM   27  C1  UNL     1      19.647   4.111  50.960  1.00  0.00     0.210 C 
ENDBRANCH   1  26
TORSDOF 4
ENDMDL
MODEL 4
REMARK VINA RESULT:      -7.6      3.220      6.568
REMARK  4 active torsions:
REMARK  status: ('A' for Active; 'I' for Inactive)
REMARK    1  A    between atoms: O1_2  and  C2_3 
REMARK    2  A    between atoms: C4_5  and  O2_6 
REMARK    3  A    between atoms: O2_6  and  C5_7 
REMARK    4  A    between atoms: C10_13  and  N2_14 
ROOT
HETATM    1  C2  UNL     1      26.632   0.301  53.454  1.00  0.00     0.073 A 
HETATM    2  C3  UNL     1      25.268   0.337  53.642  1.00  0.00     0.074 A 
HETATM    3  C4  UNL     1      24.364   1.117  52.960  1.00  0.00     0.088 A 
HETATM    4  C9  UNL     1      25.008   1.910  52.009  1.00  0.00     0.072 A 
HETATM    5  C10 UNL     1      24.211   2.739  51.246  1.00  0.00     0.145 A 
HETATM    6  N3  UNL     1      24.737   3.552  50.281  1.00  0.00    -0.223 NA
HETATM    7  C16 UNL     1      26.090   3.524  50.085  1.00  0.00     0.236 A 
HETATM    8  N4  UNL     1      26.901   2.731  50.808  1.00  0.00    -0.241 NA
HETATM    9  C17 UNL     1      26.359   1.947  51.743  1.00  0.00     0.077 A 
HETATM   10  C18 UNL     1      27.173   1.123  52.488  1.00  0.00     0.069 A 
ENDROOT
BRANCH   5  11
HETATM   11  N2  UNL     1      22.794   2.941  51.311  1.00  0.00    -0.330 N 
HETATM   12  C11 UNL     1      21.849   3.780  52.009  1.00  0.00     0.156 C 
HETATM   13  C12 UNL     1      21.188   4.714  51.021  1.00  0.00     0.012 C 
HETATM   14  C13 UNL     1      20.670   3.977  50.018  1.00  0.00     0.014 C 
HETATM   15 CL1  UNL     1      19.847   4.901  48.751  1.00  0.00    -0.089 Cl
HETATM   16  C14 UNL     1      20.771   2.491  49.959  1.00  0.00     0.110 C 
HETATM   17  C15 UNL     1      22.137   2.006  50.385  1.00  0.00     0.278 C 
HETATM   18  F1  UNL     1      22.865   1.814  49.232  1.00  0.00    -0.226 F 
ENDBRANCH   5  11
BRANCH   3  19
HETATM   19  O2  UNL     1      23.005   1.206  53.087  1.00  0.00    -0.343 OA
BRANCH  19  20
HETATM   20  C5  UNL     1      22.308   0.285  53.872  1.00  0.00     0.158 C 
HETATM   21  C6  UNL     1      20.824   0.537  53.933  1.00  0.00     0.064 C 
HETATM   22  C7  UNL     1      20.146  -0.809  53.887  1.00  0.00     0.272 C 
HETATM   23  N1  UNL     1      21.195  -1.797  53.890  1.00  0.00     0.086 N 
HETATM   24  C8  UNL     1      22.341  -1.116  53.287  1.00  0.00     0.301 C 
HETATM   25  H10 UNL     1      21.437  -2.020  54.880  1.00  0.00     0.315 HD
ENDBRANCH  19  20
ENDBRANCH   3  19
BRANCH   1  26
HETATM   26  O1  UNL     1      27.427  -0.535  54.215  1.00  0.00    -0.356 OA
HETATM   27  C1  UNL     1      28.680  -0.060  54.652  1.00  0.00     0.210 C 
ENDBRANCH   1  26
TORSDOF 4
ENDMDL
MODEL 5
REMARK VINA RESULT:      -7.5      3.241      5.187
REMARK  4 active torsions:
REMARK  status: ('A' for Active; 'I' for Inactive)
REMARK    1  A    between atoms: O1_2  and  C2_3 
REMARK    2  A    between atoms: C4_5  and  O2_6 
REMARK    3  A    between atoms: O2_6  and  C5_7 
REMARK    4  A    between atoms: C10_13  and  N2_14 
ROOT
HETATM    1  C2  UNL     1      21.512  -0.052  53.886  1.00  0.00     0.073 A 
HETATM    2  C3  UNL     1      22.727   0.241  53.307  1.00  0.00     0.074 A 
HETATM    3  C4  UNL     1      23.003   1.286  52.458  1.00  0.00     0.088 A 
HETATM    4  C9  UNL     1      21.863   2.058  52.232  1.00  0.00     0.072 A 
HETATM    5  C10 UNL     1      22.004   3.149  51.399  1.00  0.00     0.145 A 
HETATM    6  N3  UNL     1      20.954   3.977  51.115  1.00  0.00    -0.223 NA
HETATM    7  C16 UNL     1      19.743   3.696  51.684  1.00  0.00     0.236 A 
HETATM    8  N4  UNL     1      19.563   2.643  52.501  1.00  0.00    -0.241 NA
HETATM    9  C17 UNL     1      20.608   1.852  52.761  1.00  0.00     0.077 A 
HETATM   10  C18 UNL     1      20.444   0.773  53.600  1.00  0.00     0.069 A 
ENDROOT
BRANCH   5  11
HETATM   11  N2  UNL     1      23.163   3.597  50.684  1.00  0.00    -0.330 N 
HETATM   12  C11 UNL     1      23.835   3.333  49.435  1.00  0.00     0.156 C 
HETATM   13  C12 UNL     1      23.733   4.552  48.547  1.00  0.00     0.012 C 
HETATM   14  C13 UNL     1      24.192   5.619  49.232  1.00  0.00     0.014 C 
HETATM   15 CL1  UNL     1      24.151   7.155  48.351  1.00  0.00    -0.089 Cl
HETATM   16  C14 UNL     1      24.701   5.534  50.630  1.00  0.00     0.110 C 
HETATM   17  C15 UNL     1      23.846   4.626  51.482  1.00  0.00     0.278 C 
HETATM   18  F1  UNL     1      22.961   5.436  52.159  1.00  0.00    -0.226 F 
ENDBRANCH   5  11
BRANCH   3  19
HETATM   19  O2  UNL     1      24.175   1.641  51.850  1.00  0.00    -0.343 OA
BRANCH  19  20
HETATM   20  C5  UNL     1      25.398   1.411  52.485  1.00  0.00     0.158 C 
HETATM   21  C6  UNL     1      26.597   1.737  51.632  1.00  0.00     0.064 C 
HETATM   22  C7  UNL     1      27.619   2.376  52.538  1.00  0.00     0.272 C 
HETATM   23  N1  UNL     1      27.070   2.339  53.869  1.00  0.00     0.086 N 
HETATM   24  C8  UNL     1      25.621   2.338  53.666  1.00  0.00     0.301 C 
HETATM   25  H10 UNL     1      27.334   1.433  54.312  1.00  0.00     0.315 HD
ENDBRANCH  19  20
ENDBRANCH   3  19
BRANCH   1  26
HETATM   26  O1  UNL     1      21.375  -1.142  54.726  1.00  0.00    -0.356 OA
HETATM   27  C1  UNL     1      22.524  -1.645  55.367  1.00  0.00     0.210 C 
ENDBRANCH   1  26
TORSDOF 4
ENDMDL
MODEL 6
REMARK VINA RESULT:      -7.3      3.777      5.502
REMARK  4 active torsions:
REMARK  status: ('A' for Active; 'I' for Inactive)
REMARK    1  A    between atoms: O1_2  and  C2_3 
REMARK    2  A    between atoms: C4_5  and  O2_6 
REMARK    3  A    between atoms: O2_6  and  C5_7 
REMARK    4  A    between atoms: C10_13  and  N2_14 
ROOT
HETATM    1  C2  UNL     1      22.347  -1.076  54.647  1.00  0.00     0.073 A 
HETATM    2  C3  UNL     1      23.076  -0.277  53.793  1.00  0.00     0.074 A 
HETATM    3  C4  UNL     1      22.603   0.398  52.693  1.00  0.00     0.088 A 
HETATM    4  C9  UNL     1      21.235   0.175  52.522  1.00  0.00     0.072 A 
HETATM    5  C10 UNL     1      20.630   0.803  51.453  1.00  0.00     0.145 A 
HETATM    6  N3  UNL     1      19.294   0.661  51.198  1.00  0.00    -0.223 NA
HETATM    7  C16 UNL     1      18.561  -0.129  52.039  1.00  0.00     0.236 A 
HETATM    8  N4  UNL     1      19.113  -0.759  53.092  1.00  0.00    -0.241 NA
HETATM    9  C17 UNL     1      20.420  -0.601  53.317  1.00  0.00     0.077 A 
HETATM   10  C18 UNL     1      21.001  -1.232  54.394  1.00  0.00     0.069 A 
ENDROOT
BRANCH   5  11
HETATM   11  N2  UNL     1      21.215   1.638  50.445  1.00  0.00    -0.330 N 
HETATM   12  C11 UNL     1      21.861   1.498  49.162  1.00  0.00     0.156 C 
HETATM   13  C12 UNL     1      20.977   2.098  48.092  1.00  0.00     0.012 C 
HETATM   14  C13 UNL     1      20.675   3.363  48.448  1.00  0.00     0.014 C 
HETATM   15 CL1  UNL     1      19.637   4.239  47.311  1.00  0.00    -0.089 Cl
HETATM   16  C14 UNL     1      21.166   3.998  49.704  1.00  0.00     0.110 C 
HETATM   17  C15 UNL     1      21.113   3.041  50.872  1.00  0.00     0.278 C 
HETATM   18  F1  UNL     1      19.937   3.301  51.541  1.00  0.00    -0.226 F 
ENDBRANCH   5  11
BRANCH   3  19
HETATM   19  O2  UNL     1      23.258   1.205  51.804  1.00  0.00    -0.343 OA
BRANCH  19  20
HETATM   20  C5  UNL     1      24.443   1.846  52.175  1.00  0.00     0.158 C 
HETATM   21  C6  UNL     1      25.681   1.022  51.937  1.00  0.00     0.064 C 
HETATM   22  C7  UNL     1      26.746   1.964  51.433  1.00  0.00     0.272 C 
HETATM   23  N1  UNL     1      26.174   3.285  51.465  1.00  0.00     0.086 N 
HETATM   24  C8  UNL     1      24.735   3.065  51.318  1.00  0.00     0.301 C 
HETATM   25  H10 UNL     1      26.342   3.697  52.409  1.00  0.00     0.315 HD
ENDBRANCH  19  20
ENDBRANCH   3  19
BRANCH   1  26
HETATM   26  O1  UNL     1      22.955  -1.698  55.721  1.00  0.00    -0.356 OA
HETATM   27  C1  UNL     1      24.323  -1.455  55.953  1.00  0.00     0.210 C 
ENDBRANCH   1  26
TORSDOF 4
ENDMDL
MODEL 7
REMARK VINA RESULT:      -7.3      3.409      7.149
REMARK  4 active torsions:
REMARK  status: ('A' for Active; 'I' for Inactive)
REMARK    1  A    between atoms: O1_2  and  C2_3 
REMARK    2  A    between atoms: C4_5  and  O2_6 
REMARK    3  A    between atoms: O2_6  and  C5_7 
REMARK    4  A    between atoms: C10_13  and  N2_14 
ROOT
HETATM    1  C2  UNL     1      26.657   4.297  49.375  1.00  0.00     0.073 A 
HETATM    2  C3  UNL     1      26.423   3.224  50.207  1.00  0.00     0.074 A 
HETATM    3  C4  UNL     1      25.202   2.794  50.669  1.00  0.00     0.088 A 
HETATM    4  C9  UNL     1      24.172   3.601  50.184  1.00  0.00     0.072 A 
HETATM    5  C10 UNL     1      22.889   3.273  50.568  1.00  0.00     0.145 A 
HETATM    6  N3  UNL     1      21.805   3.991  50.145  1.00  0.00    -0.223 NA
HETATM    7  C16 UNL     1      22.026   5.058  49.319  1.00  0.00     0.236 A 
HETATM    8  N4  UNL     1      23.262   5.411  48.921  1.00  0.00    -0.241 NA
HETATM    9  C17 UNL     1      24.300   4.691  49.351  1.00  0.00     0.077 A 
HETATM   10  C18 UNL     1      25.572   5.033  48.948  1.00  0.00     0.069 A 
ENDROOT
BRANCH   5  11
HETATM   11  N2  UNL     1      22.446   2.226  51.443  1.00  0.00    -0.330 N 
HETATM   12  C11 UNL     1      22.111   2.046  52.835  1.00  0.00     0.156 C 
HETATM   13  C12 UNL     1      20.632   1.758  52.957  1.00  0.00     0.012 C 
HETATM   14  C13 UNL     1      20.332   0.717  52.154  1.00  0.00     0.014 C 
HETATM   15 CL1  UNL     1      18.630   0.226  52.160  1.00  0.00    -0.089 Cl
HETATM   16  C14 UNL     1      21.343   0.015  51.314  1.00  0.00     0.110 C 
HETATM   17  C15 UNL     1      22.302   0.986  50.666  1.00  0.00     0.278 C 
HETATM   18  F1  UNL     1      21.828   1.219  49.393  1.00  0.00    -0.226 F 
ENDBRANCH   5  11
BRANCH   3  19
HETATM   19  O2  UNL     1      24.891   1.744  51.490  1.00  0.00    -0.343 OA
BRANCH  19  20
HETATM   20  C5  UNL     1      25.882   1.134  52.261  1.00  0.00     0.158 C 
HETATM   21  C6  UNL     1      26.033   1.727  53.638  1.00  0.00     0.064 C 
HETATM   22  C7  UNL     1      26.282   0.581  54.586  1.00  0.00     0.272 C 
HETATM   23  N1  UNL     1      26.361  -0.610  53.779  1.00  0.00     0.086 N 
HETATM   24  C8  UNL     1      25.547  -0.307  52.600  1.00  0.00     0.301 C 
HETATM   25  H10 UNL     1      27.348  -0.734  53.466  1.00  0.00     0.315 HD
ENDBRANCH  19  20
ENDBRANCH   3  19
BRANCH   1  26
HETATM   26  O1  UNL     1      27.944   4.620  48.986  1.00  0.00    -0.356 OA
HETATM   27  C1  UNL     1      28.153   5.825  48.287  1.00  0.00     0.210 C 
ENDBRANCH   1  26
TORSDOF 4
ENDMDL
MODEL 8
REMARK VINA RESULT:      -7.2      2.322      4.943
REMARK  4 active torsions:
REMARK  status: ('A' for Active; 'I' for Inactive)
REMARK    1  A    between atoms: O1_2  and  C2_3 
REMARK    2  A    between atoms: C4_5  and  O2_6 
REMARK    3  A    between atoms: O2_6  and  C5_7 
REMARK    4  A    between atoms: C10_13  and  N2_14 
ROOT
HETATM    1  C2  UNL     1      20.197   2.024  49.400  1.00  0.00     0.073 A 
HETATM    2  C3  UNL     1      20.749   1.245  50.393  1.00  0.00     0.074 A 
HETATM    3  C4  UNL     1      22.021   1.345  50.905  1.00  0.00     0.088 A 
HETATM    4  C9  UNL     1      22.731   2.371  50.279  1.00  0.00     0.072 A 
HETATM    5  C10 UNL     1      24.025   2.583  50.706  1.00  0.00     0.145 A 
HETATM    6  N3  UNL     1      24.808   3.566  50.167  1.00  0.00    -0.223 NA
HETATM    7  C16 UNL     1      24.270   4.346  49.181  1.00  0.00     0.236 A 
HETATM    8  N4  UNL     1      23.013   4.171  48.736  1.00  0.00    -0.241 NA
HETATM    9  C17 UNL     1      22.272   3.203  49.282  1.00  0.00     0.077 A 
HETATM   10  C18 UNL     1      20.981   3.014  48.844  1.00  0.00     0.069 A 
ENDROOT
BRANCH   5  11
HETATM   11  N2  UNL     1      24.781   1.868  51.692  1.00  0.00    -0.330 N 
HETATM   12  C11 UNL     1      25.657   0.723  51.766  1.00  0.00     0.156 C 
HETATM   13  C12 UNL     1      27.055   1.187  52.108  1.00  0.00     0.012 C 
HETATM   14  C13 UNL     1      26.994   1.937  53.227  1.00  0.00     0.014 C 
HETATM   15 CL1  UNL     1      28.546   2.577  53.790  1.00  0.00    -0.089 Cl
HETATM   16  C14 UNL     1      25.723   2.220  53.953  1.00  0.00     0.110 C 
HETATM   17  C15 UNL     1      24.588   2.512  53.000  1.00  0.00     0.278 C 
HETATM   18  F1  UNL     1      24.500   3.884  52.899  1.00  0.00    -0.226 F 
ENDBRANCH   5  11
BRANCH   3  19
HETATM   19  O2  UNL     1      22.636   0.615  51.885  1.00  0.00    -0.343 OA
BRANCH  19  20
HETATM   20  C5  UNL     1      21.886  -0.209  52.727  1.00  0.00     0.158 C 
HETATM   21  C6  UNL     1      22.720  -1.142  53.566  1.00  0.00     0.064 C 
HETATM   22  C7  UNL     1      22.078  -1.200  54.929  1.00  0.00     0.272 C 
HETATM   23  N1  UNL     1      20.878  -0.407  54.852  1.00  0.00     0.086 N 
HETATM   24  C8  UNL     1      21.154   0.574  53.802  1.00  0.00     0.301 C 
HETATM   25  H10 UNL     1      20.097  -1.017  54.525  1.00  0.00     0.315 HD
ENDBRANCH  19  20
ENDBRANCH   3  19
BRANCH   1  26
HETATM   26  O1  UNL     1      18.897   1.813  48.978  1.00  0.00    -0.356 OA
HETATM   27  C1  UNL     1      18.058   2.930  48.801  1.00  0.00     0.210 C 
ENDBRANCH   1  26
TORSDOF 4
ENDMDL
MODEL 9
REMARK VINA RESULT:      -7.2      3.148      5.202
REMARK  4 active torsions:
REMARK  status: ('A' for Active; 'I' for Inactive)
REMARK    1  A    between atoms: O1_2  and  C2_3 
REMARK    2  A    between atoms: C4_5  and  O2_6 
REMARK    3  A    between atoms: O2_6  and  C5_7 
REMARK    4  A    between atoms: C10_13  and  N2_14 
ROOT
HETATM    1  C2  UNL     1      21.509  -0.002  52.221  1.00  0.00     0.073 A 
HETATM    2  C3  UNL     1      22.620   0.672  52.681  1.00  0.00     0.074 A 
HETATM    3  C4  UNL     1      23.387   1.569  51.977  1.00  0.00     0.088 A 
HETATM    4  C9  UNL     1      22.899   1.732  50.680  1.00  0.00     0.072 A 
HETATM    5  C10 UNL     1      23.577   2.615  49.865  1.00  0.00     0.145 A 
HETATM    6  N3  UNL     1      23.180   2.857  48.579  1.00  0.00    -0.223 NA
HETATM    7  C16 UNL     1      22.079   2.195  48.113  1.00  0.00     0.236 A 
HETATM    8  N4  UNL     1      21.391   1.325  48.874  1.00  0.00    -0.241 NA
HETATM    9  C17 UNL     1      21.802   1.110  50.126  1.00  0.00     0.077 A 
HETATM   10  C18 UNL     1      21.105   0.229  50.922  1.00  0.00     0.069 A 
ENDROOT
BRANCH   5  11
HETATM   11  N2  UNL     1      24.758   3.379  50.145  1.00  0.00    -0.330 N 
HETATM   12  C11 UNL     1      26.191   3.216  50.097  1.00  0.00     0.156 C 
HETATM   13  C12 UNL     1      26.759   4.120  49.026  1.00  0.00     0.012 C 
HETATM   14  C13 UNL     1      26.332   5.377  49.258  1.00  0.00     0.014 C 
HETATM   15 CL1  UNL     1      26.897   6.591  48.099  1.00  0.00    -0.089 Cl
HETATM   16  C14 UNL     1      25.447   5.742  50.401  1.00  0.00     0.110 C 
HETATM   17  C15 UNL     1      24.361   4.714  50.616  1.00  0.00     0.278 C 
HETATM   18  F1  UNL     1      23.238   5.184  49.970  1.00  0.00    -0.226 F 
ENDBRANCH   5  11
BRANCH   3  19
HETATM   19  O2  UNL     1      24.494   2.274  52.362  1.00  0.00    -0.343 OA
BRANCH  19  20
HETATM   20  C5  UNL     1      25.431   1.700  53.225  1.00  0.00     0.158 C 
HETATM   21  C6  UNL     1      26.261   0.616  52.587  1.00  0.00     0.064 C 
HETATM   22  C7  UNL     1      27.667   0.774  53.110  1.00  0.00     0.272 C 
HETATM   23  N1  UNL     1      27.629   1.843  54.074  1.00  0.00     0.086 N 
HETATM   24  C8  UNL     1      26.509   2.683  53.646  1.00  0.00     0.301 C 
HETATM   25  H10 UNL     1      27.392   1.441  55.007  1.00  0.00     0.315 HD
ENDBRANCH  19  20
ENDBRANCH   3  19
BRANCH   1  26
HETATM   26  O1  UNL     1      20.828  -0.881  53.041  1.00  0.00    -0.356 OA
HETATM   27  C1  UNL     1      21.098  -0.858  54.424  1.00  0.00     0.210 C 
ENDBRANCH   1  26
TORSDOF 4
ENDMDL
