MODEL 1
REMARK VINA RESULT:      -8.6      0.000      0.000
REMARK  7 active torsions:
REMARK  status: ('A' for Active; 'I' for Inactive)
REMARK       I    between atoms: C1_2  and  N1_3 
REMARK    1  A    between atoms: C1_2  and  C16_22 
REMARK    2  A    between atoms: N1_3  and  C2_4 
REMARK    3  A    between atoms: C3_5  and  C4_6 
REMARK    4  A    between atoms: C5_7  and  C6_8 
REMARK    5  A    between atoms: C6_8  and  N2_9 
REMARK    6  A    between atoms: N2_9  and  C7_10 
REMARK    7  A    between atoms: C10_14  and  C11_15 
ROOT
HETATM    1  C4  UNL     1      27.173   4.561  49.008  1.00  0.00     0.064 C 
HETATM    2  C5  UNL     1      26.911   5.840  48.710  1.00  0.00     0.002 C 
ENDROOT
BRANCH   2   3
HETATM    3  C6  UNL     1      27.704   6.922  48.074  1.00  0.00     0.166 C 
BRANCH   3   4
HETATM    4  N2  UNL     1      28.655   7.436  49.054  1.00  0.00    -0.219 N 
HETATM    5  H6  UNL     1      28.483   7.650  50.068  1.00  0.00     0.178 HD
BRANCH   4   6
HETATM    6  C7  UNL     1      29.992   7.696  48.641  1.00  0.00     0.723 A 
HETATM    7  N3  UNL     1      30.526   8.914  48.388  1.00  0.00    -0.075 NA
HETATM    8  C8  UNL     1      31.817   9.008  48.003  1.00  0.00     0.139 A 
HETATM    9  C9  UNL     1      32.530   7.831  47.887  1.00  0.00     0.053 A 
HETATM   10  C10 UNL     1      32.008   6.581  48.138  1.00  0.00     0.089 A 
HETATM   11  N5  UNL     1      30.707   6.568  48.520  1.00  0.00    -0.062 NA
BRANCH  10  12
HETATM   12  C11 UNL     1      32.781   5.351  48.010  1.00  0.00     0.011 A 
HETATM   13  C12 UNL     1      32.282   4.135  47.596  1.00  0.00     0.017 A 
HETATM   14  C13 UNL     1      33.129   3.036  47.515  1.00  0.00     0.020 A 
HETATM   15  C14 UNL     1      34.472   3.131  47.841  1.00  0.00     0.116 A 
HETATM   16  N4  UNL     1      34.936   4.323  48.240  1.00  0.00    -0.272 NA
HETATM   17  C15 UNL     1      34.121   5.393  48.320  1.00  0.00     0.130 A 
ENDBRANCH  10  12
ENDBRANCH   4   6
ENDBRANCH   3   4
ENDBRANCH   2   3
BRANCH   1  18
HETATM   18  C3  UNL     1      26.155   3.769  49.639  1.00  0.00    -0.056 C 
HETATM   19  C2  UNL     1      25.280   3.115  50.171  1.00  0.00     0.018 C 
BRANCH  19  20
HETATM   20  N1  UNL     1      24.263   2.379  50.798  1.00  0.00    -0.281 N 
HETATM   21  C1  UNL     1      24.538   1.419  51.811  1.00  0.00     0.263 C 
HETATM   22  O1  UNL     1      25.767   1.315  52.070  1.00  0.00    -0.267 OA
HETATM   23  H1  UNL     1      23.277   2.553  50.498  1.00  0.00     0.179 HD
BRANCH  21  24
HETATM   24  C16 UNL     1      23.471   0.640  52.475  1.00  0.00     0.033 A 
HETATM   25  C17 UNL     1      22.149   0.629  52.081  1.00  0.00     0.020 A 
HETATM   26  C18 UNL     1      21.250  -0.144  52.788  1.00  0.00     0.043 A 
HETATM   27  C19 UNL     1      21.653  -0.896  53.872  1.00  0.00     0.116 A 
HETATM   28  F1  UNL     1      20.837  -1.679  54.616  1.00  0.00    -0.206 F 
HETATM   29  C20 UNL     1      22.978  -0.890  54.271  1.00  0.00     0.043 A 
HETATM   30  C21 UNL     1      23.909  -0.114  53.570  1.00  0.00     0.020 A 
ENDBRANCH  21  24
ENDBRANCH  19  20
ENDBRANCH   1  18
TORSDOF 7
ENDMDL
MODEL 2
REMARK VINA RESULT:      -8.6      4.616     10.265
REMARK  7 active torsions:
REMARK  status: ('A' for Active; 'I' for Inactive)
REMARK       I    between atoms: C1_2  and  N1_3 
REMARK    1  A    between atoms: C1_2  and  C16_22 
REMARK    2  A    between atoms: N1_3  and  C2_4 
REMARK    3  A    between atoms: C3_5  and  C4_6 
REMARK    4  A    between atoms: C5_7  and  C6_8 
REMARK    5  A    between atoms: C6_8  and  N2_9 
REMARK    6  A    between atoms: N2_9  and  C7_10 
REMARK    7  A    between atoms: C10_14  and  C11_15 
ROOT
HETATM    1  C4  UNL     1      23.039   2.124  50.471  1.00  0.00     0.064 C 
HETATM    2  C5  UNL     1      22.310   2.406  51.558  1.00  0.00     0.002 C 
ENDROOT
BRANCH   2   3
HETATM    3  C6  UNL     1      21.326   1.632  52.356  1.00  0.00     0.166 C 
BRANCH   3   4
HETATM    4  N2  UNL     1      21.695   0.221  52.302  1.00  0.00    -0.219 N 
HETATM    5  H6  UNL     1      21.502  -0.467  51.532  1.00  0.00     0.178 HD
BRANCH   4   6
HETATM    6  C7  UNL     1      22.405  -0.344  53.398  1.00  0.00     0.723 A 
HETATM    7  N3  UNL     1      21.857  -0.977  54.463  1.00  0.00    -0.075 NA
HETATM    8  C8  UNL     1      22.660  -1.466  55.432  1.00  0.00     0.139 A 
HETATM    9  C9  UNL     1      24.021  -1.287  55.276  1.00  0.00     0.053 A 
HETATM   10  C10 UNL     1      24.601  -0.648  54.203  1.00  0.00     0.089 A 
HETATM   11  N5  UNL     1      23.731  -0.184  53.272  1.00  0.00    -0.062 NA
BRANCH  10  12
HETATM   12  C11 UNL     1      26.042  -0.471  54.059  1.00  0.00     0.011 A 
HETATM   13  C12 UNL     1      26.829  -1.081  53.107  1.00  0.00     0.017 A 
HETATM   14  C13 UNL     1      28.195  -0.826  53.077  1.00  0.00     0.020 A 
HETATM   15  C14 UNL     1      28.791   0.034  53.986  1.00  0.00     0.116 A 
HETATM   16  N4  UNL     1      28.005   0.617  54.902  1.00  0.00    -0.272 NA
HETATM   17  C15 UNL     1      26.681   0.374  54.937  1.00  0.00     0.130 A 
ENDBRANCH  10  12
ENDBRANCH   4   6
ENDBRANCH   3   4
ENDBRANCH   2   3
BRANCH   1  18
HETATM   18  C3  UNL     1      23.917   3.128  49.940  1.00  0.00    -0.056 C 
HETATM   19  C2  UNL     1      24.644   3.991  49.490  1.00  0.00     0.018 C 
BRANCH  19  20
HETATM   20  N1  UNL     1      25.467   4.995  48.956  1.00  0.00    -0.281 N 
HETATM   21  C1  UNL     1      26.883   4.870  48.915  1.00  0.00     0.263 C 
HETATM   22  O1  UNL     1      27.296   3.783  49.399  1.00  0.00    -0.267 OA
HETATM   23  H1  UNL     1      25.008   5.856  48.582  1.00  0.00     0.179 HD
BRANCH  21  24
HETATM   24  C16 UNL     1      27.755   5.923  48.354  1.00  0.00     0.033 A 
HETATM   25  C17 UNL     1      27.324   7.180  47.981  1.00  0.00     0.020 A 
HETATM   26  C18 UNL     1      28.243   8.075  47.470  1.00  0.00     0.043 A 
HETATM   27  C19 UNL     1      29.571   7.731  47.328  1.00  0.00     0.116 A 
HETATM   28  F1  UNL     1      30.534   8.547  46.837  1.00  0.00    -0.206 F 
HETATM   29  C20 UNL     1      30.010   6.472  47.701  1.00  0.00     0.043 A 
HETATM   30  C21 UNL     1      29.097   5.547  48.222  1.00  0.00     0.020 A 
ENDBRANCH  21  24
ENDBRANCH  19  20
ENDBRANCH   1  18
TORSDOF 7
ENDMDL
MODEL 3
REMARK VINA RESULT:      -8.6      6.563     10.610
REMARK  7 active torsions:
REMARK  status: ('A' for Active; 'I' for Inactive)
REMARK       I    between atoms: C1_2  and  N1_3 
REMARK    1  A    between atoms: C1_2  and  C16_22 
REMARK    2  A    between atoms: N1_3  and  C2_4 
REMARK    3  A    between atoms: C3_5  and  C4_6 
REMARK    4  A    between atoms: C5_7  and  C6_8 
REMARK    5  A    between atoms: C6_8  and  N2_9 
REMARK    6  A    between atoms: N2_9  and  C7_10 
REMARK    7  A    between atoms: C10_14  and  C11_15 
ROOT
HETATM    1  C4  UNL     1      22.100   4.680  51.977  1.00  0.00     0.064 C 
HETATM    2  C5  UNL     1      21.167   4.051  51.251  1.00  0.00     0.002 C 
ENDROOT
BRANCH   2   3
HETATM    3  C6  UNL     1      19.853   4.465  50.699  1.00  0.00     0.166 C 
BRANCH   3   4
HETATM    4  N2  UNL     1      18.800   3.864  51.510  1.00  0.00    -0.219 N 
HETATM    5  H6  UNL     1      18.082   4.353  52.101  1.00  0.00     0.178 HD
BRANCH   4   6
HETATM    6  C7  UNL     1      18.684   2.446  51.541  1.00  0.00     0.723 A 
HETATM    7  N3  UNL     1      17.732   1.709  50.922  1.00  0.00    -0.075 NA
HETATM    8  C8  UNL     1      17.749   0.364  51.041  1.00  0.00     0.139 A 
HETATM    9  C9  UNL     1      18.758  -0.191  51.804  1.00  0.00     0.053 A 
HETATM   10  C10 UNL     1      19.736   0.537  52.443  1.00  0.00     0.089 A 
HETATM   11  N5  UNL     1      19.653   1.881  52.277  1.00  0.00    -0.062 NA
BRANCH  10  12
HETATM   12  C11 UNL     1      20.793  -0.071  53.243  1.00  0.00     0.011 A 
HETATM   13  C12 UNL     1      22.113   0.325  53.256  1.00  0.00     0.017 A 
HETATM   14  C13 UNL     1      23.023  -0.340  54.068  1.00  0.00     0.020 A 
HETATM   15  C14 UNL     1      22.636  -1.400  54.873  1.00  0.00     0.116 A 
HETATM   16  N4  UNL     1      21.348  -1.768  54.845  1.00  0.00    -0.272 NA
HETATM   17  C15 UNL     1      20.460  -1.127  54.061  1.00  0.00     0.130 A 
ENDBRANCH  10  12
ENDBRANCH   4   6
ENDBRANCH   3   4
ENDBRANCH   2   3
BRANCH   1  18
HETATM   18  C3  UNL     1      23.288   3.968  52.354  1.00  0.00    -0.056 C 
HETATM   19  C2  UNL     1      24.282   3.349  52.679  1.00  0.00     0.018 C 
BRANCH  19  20
HETATM   20  N1  UNL     1      25.419   2.627  53.074  1.00  0.00    -0.281 N 
HETATM   21  C1  UNL     1      25.818   1.428  52.422  1.00  0.00     0.263 C 
HETATM   22  O1  UNL     1      25.051   1.103  51.475  1.00  0.00    -0.267 OA
HETATM   23  H1  UNL     1      25.978   2.996  53.876  1.00  0.00     0.179 HD
BRANCH  21  24
HETATM   24  C16 UNL     1      27.014   0.663  52.833  1.00  0.00     0.033 A 
HETATM   25  C17 UNL     1      27.158  -0.702  52.686  1.00  0.00     0.020 A 
HETATM   26  C18 UNL     1      28.328  -1.298  53.111  1.00  0.00     0.043 A 
HETATM   27  C19 UNL     1      29.344  -0.554  53.675  1.00  0.00     0.116 A 
HETATM   28  F1  UNL     1      30.520  -1.059  54.116  1.00  0.00    -0.206 F 
HETATM   29  C20 UNL     1      29.206   0.816  53.824  1.00  0.00     0.043 A 
HETATM   30  C21 UNL     1      28.028   1.443  53.400  1.00  0.00     0.020 A 
ENDBRANCH  21  24
ENDBRANCH  19  20
ENDBRANCH   1  18
TORSDOF 7
ENDMDL
MODEL 4
REMARK VINA RESULT:      -8.3      4.570     10.557
REMARK  7 active torsions:
REMARK  status: ('A' for Active; 'I' for Inactive)
REMARK       I    between atoms: C1_2  and  N1_3 
REMARK    1  A    between atoms: C1_2  and  C16_22 
REMARK    2  A    between atoms: N1_3  and  C2_4 
REMARK    3  A    between atoms: C3_5  and  C4_6 
REMARK    4  A    between atoms: C5_7  and  C6_8 
REMARK    5  A    between atoms: C6_8  and  N2_9 
REMARK    6  A    between atoms: N2_9  and  C7_10 
REMARK    7  A    between atoms: C10_14  and  C11_15 
ROOT
HETATM    1  C4  UNL     1      25.515   3.232  49.634  1.00  0.00     0.064 C 
HETATM    2  C5  UNL     1      24.191   3.403  49.520  1.00  0.00     0.002 C 
ENDROOT
BRANCH   2   3
HETATM    3  C6  UNL     1      23.025   2.513  49.746  1.00  0.00     0.166 C 
BRANCH   3   4
HETATM    4  N2  UNL     1      22.686   2.546  51.165  1.00  0.00    -0.219 N 
HETATM    5  H6  UNL     1      22.300   3.352  51.716  1.00  0.00     0.178 HD
BRANCH   4   6
HETATM    6  C7  UNL     1      22.880   1.371  51.944  1.00  0.00     0.723 A 
HETATM    7  N3  UNL     1      21.922   0.487  52.308  1.00  0.00    -0.075 NA
HETATM    8  C8  UNL     1      22.257  -0.589  53.052  1.00  0.00     0.139 A 
HETATM    9  C9  UNL     1      23.586  -0.726  53.405  1.00  0.00     0.053 A 
HETATM   10  C10 UNL     1      24.577   0.160  53.047  1.00  0.00     0.089 A 
HETATM   11  N5  UNL     1      24.164   1.214  52.301  1.00  0.00    -0.062 NA
BRANCH  10  12
HETATM   12  C11 UNL     1      25.975  -0.005  53.431  1.00  0.00     0.011 A 
HETATM   13  C12 UNL     1      26.987  -0.430  52.598  1.00  0.00     0.017 A 
HETATM   14  C13 UNL     1      28.281  -0.544  53.090  1.00  0.00     0.020 A 
HETATM   15  C14 UNL     1      28.585  -0.237  54.406  1.00  0.00     0.116 A 
HETATM   16  N4  UNL     1      27.586   0.175  55.198  1.00  0.00    -0.272 NA
HETATM   17  C15 UNL     1      26.329   0.288  54.729  1.00  0.00     0.130 A 
ENDBRANCH  10  12
ENDBRANCH   4   6
ENDBRANCH   3   4
ENDBRANCH   2   3
BRANCH   1  18
HETATM   18  C3  UNL     1      26.389   4.329  49.330  1.00  0.00    -0.056 C 
HETATM   19  C2  UNL     1      27.121   5.259  49.053  1.00  0.00     0.018 C 
BRANCH  19  20
HETATM   20  N1  UNL     1      27.971   6.323  48.712  1.00  0.00    -0.281 N 
HETATM   21  C1  UNL     1      29.281   6.111  48.203  1.00  0.00     0.263 C 
HETATM   22  O1  UNL     1      29.577   4.890  48.096  1.00  0.00    -0.267 OA
HETATM   23  H1  UNL     1      27.613   7.295  48.845  1.00  0.00     0.179 HD
BRANCH  21  24
HETATM   24  C16 UNL     1      30.182   7.226  47.842  1.00  0.00     0.033 A 
HETATM   25  C17 UNL     1      30.413   7.660  46.553  1.00  0.00     0.020 A 
HETATM   26  C18 UNL     1      31.278   8.716  46.351  1.00  0.00     0.043 A 
HETATM   27  C19 UNL     1      31.909   9.335  47.410  1.00  0.00     0.116 A 
HETATM   28  F1  UNL     1      32.770  10.374  47.298  1.00  0.00    -0.206 F 
HETATM   29  C20 UNL     1      31.681   8.905  48.706  1.00  0.00     0.043 A 
HETATM   30  C21 UNL     1      30.807   7.835  48.937  1.00  0.00     0.020 A 
ENDBRANCH  21  24
ENDBRANCH  19  20
ENDBRANCH   1  18
TORSDOF 7
ENDMDL
MODEL 5
REMARK VINA RESULT:      -8.3      4.352     11.671
REMARK  7 active torsions:
REMARK  status: ('A' for Active; 'I' for Inactive)
REMARK       I    between atoms: C1_2  and  N1_3 
REMARK    1  A    between atoms: C1_2  and  C16_22 
REMARK    2  A    between atoms: N1_3  and  C2_4 
REMARK    3  A    between atoms: C3_5  and  C4_6 
REMARK    4  A    between atoms: C5_7  and  C6_8 
REMARK    5  A    between atoms: C6_8  and  N2_9 
REMARK    6  A    between atoms: N2_9  and  C7_10 
REMARK    7  A    between atoms: C10_14  and  C11_15 
ROOT
HETATM    1  C4  UNL     1      26.860   5.396  48.564  1.00  0.00     0.064 C 
HETATM    2  C5  UNL     1      26.625   4.327  49.335  1.00  0.00     0.002 C 
ENDROOT
BRANCH   2   3
HETATM    3  C6  UNL     1      25.397   3.570  49.683  1.00  0.00     0.166 C 
BRANCH   3   4
HETATM    4  N2  UNL     1      25.296   3.495  51.137  1.00  0.00    -0.219 N 
HETATM    5  H6  UNL     1      25.093   4.274  51.810  1.00  0.00     0.178 HD
BRANCH   4   6
HETATM    6  C7  UNL     1      25.488   2.236  51.773  1.00  0.00     0.723 A 
HETATM    7  N3  UNL     1      26.673   1.611  51.966  1.00  0.00    -0.075 NA
HETATM    8  C8  UNL     1      26.701   0.414  52.589  1.00  0.00     0.139 A 
HETATM    9  C9  UNL     1      25.493  -0.113  53.001  1.00  0.00     0.053 A 
HETATM   10  C10 UNL     1      24.275   0.502  52.815  1.00  0.00     0.089 A 
HETATM   11  N5  UNL     1      24.328   1.701  52.182  1.00  0.00    -0.062 NA
BRANCH  10  12
HETATM   12  C11 UNL     1      23.011  -0.073  53.259  1.00  0.00     0.011 A 
HETATM   13  C12 UNL     1      22.876  -1.094  54.175  1.00  0.00     0.017 A 
HETATM   14  C13 UNL     1      21.609  -1.551  54.515  1.00  0.00     0.020 A 
HETATM   15  C14 UNL     1      20.466  -1.004  53.952  1.00  0.00     0.116 A 
HETATM   16  N4  UNL     1      20.621  -0.012  53.064  1.00  0.00    -0.272 NA
HETATM   17  C15 UNL     1      21.846   0.436  52.731  1.00  0.00     0.130 A 
ENDBRANCH  10  12
ENDBRANCH   4   6
ENDBRANCH   3   4
ENDBRANCH   2   3
BRANCH   1  18
HETATM   18  C3  UNL     1      28.204   5.885  48.440  1.00  0.00    -0.056 C 
HETATM   19  C2  UNL     1      29.334   6.317  48.325  1.00  0.00     0.018 C 
BRANCH  19  20
HETATM   20  N1  UNL     1      30.635   6.822  48.170  1.00  0.00    -0.281 N 
HETATM   21  C1  UNL     1      31.746   6.278  48.871  1.00  0.00     0.263 C 
HETATM   22  O1  UNL     1      31.431   5.317  49.623  1.00  0.00    -0.267 OA
HETATM   23  H1  UNL     1      30.772   7.625  47.515  1.00  0.00     0.179 HD
BRANCH  21  24
HETATM   24  C16 UNL     1      33.118   6.806  48.712  1.00  0.00     0.033 A 
HETATM   25  C17 UNL     1      33.421   8.107  48.367  1.00  0.00     0.020 A 
HETATM   26  C18 UNL     1      34.747   8.473  48.252  1.00  0.00     0.043 A 
HETATM   27  C19 UNL     1      35.760   7.565  48.476  1.00  0.00     0.116 A 
HETATM   28  F1  UNL     1      37.083   7.843  48.385  1.00  0.00    -0.206 F 
HETATM   29  C20 UNL     1      35.463   6.259  48.824  1.00  0.00     0.043 A 
HETATM   30  C21 UNL     1      34.125   5.862  48.946  1.00  0.00     0.020 A 
ENDBRANCH  21  24
ENDBRANCH  19  20
ENDBRANCH   1  18
TORSDOF 7
ENDMDL
MODEL 6
REMARK VINA RESULT:      -8.3      4.749     10.595
REMARK  7 active torsions:
REMARK  status: ('A' for Active; 'I' for Inactive)
REMARK       I    between atoms: C1_2  and  N1_3 
REMARK    1  A    between atoms: C1_2  and  C16_22 
REMARK    2  A    between atoms: N1_3  and  C2_4 
REMARK    3  A    between atoms: C3_5  and  C4_6 
REMARK    4  A    between atoms: C5_7  and  C6_8 
REMARK    5  A    between atoms: C6_8  and  N2_9 
REMARK    6  A    between atoms: N2_9  and  C7_10 
REMARK    7  A    between atoms: C10_14  and  C11_15 
ROOT
HETATM    1  C4  UNL     1      26.502   3.974  49.334  1.00  0.00     0.064 C 
HETATM    2  C5  UNL     1      25.549   4.558  50.072  1.00  0.00     0.002 C 
ENDROOT
BRANCH   2   3
HETATM    3  C6  UNL     1      24.341   4.047  50.767  1.00  0.00     0.166 C 
BRANCH   3   4
HETATM    4  N2  UNL     1      24.193   2.629  50.457  1.00  0.00    -0.219 N 
HETATM    5  H6  UNL     1      24.057   2.187  49.514  1.00  0.00     0.178 HD
BRANCH   4   6
HETATM    6  C7  UNL     1      24.232   1.687  51.522  1.00  0.00     0.723 A 
HETATM    7  N3  UNL     1      23.165   1.215  52.210  1.00  0.00    -0.075 NA
HETATM    8  C8  UNL     1      23.355   0.318  53.200  1.00  0.00     0.139 A 
HETATM    9  C9  UNL     1      24.655  -0.074  53.459  1.00  0.00     0.053 A 
HETATM   10  C10 UNL     1      25.755   0.392  52.774  1.00  0.00     0.089 A 
HETATM   11  N5  UNL     1      25.484   1.289  51.794  1.00  0.00    -0.062 NA
BRANCH  10  12
HETATM   12  C11 UNL     1      27.119  -0.037  53.063  1.00  0.00     0.011 A 
HETATM   13  C12 UNL     1      28.161   0.796  53.406  1.00  0.00     0.017 A 
HETATM   14  C13 UNL     1      29.417   0.258  53.660  1.00  0.00     0.020 A 
HETATM   15  C14 UNL     1      29.651  -1.105  53.577  1.00  0.00     0.116 A 
HETATM   16  N4  UNL     1      28.622  -1.897  53.243  1.00  0.00    -0.272 NA
HETATM   17  C15 UNL     1      27.403  -1.382  52.996  1.00  0.00     0.130 A 
ENDBRANCH  10  12
ENDBRANCH   4   6
ENDBRANCH   3   4
ENDBRANCH   2   3
BRANCH   1  18
HETATM   18  C3  UNL     1      27.560   4.781  48.795  1.00  0.00    -0.056 C 
HETATM   19  C2  UNL     1      28.445   5.465  48.320  1.00  0.00     0.018 C 
BRANCH  19  20
HETATM   20  N1  UNL     1      29.468   6.241  47.752  1.00  0.00    -0.281 N 
HETATM   21  C1  UNL     1      30.837   6.043  48.078  1.00  0.00     0.263 C 
HETATM   22  O1  UNL     1      31.017   5.114  48.911  1.00  0.00    -0.267 OA
HETATM   23  H1  UNL     1      29.195   6.985  47.071  1.00  0.00     0.179 HD
BRANCH  21  24
HETATM   24  C16 UNL     1      31.919   6.857  47.484  1.00  0.00     0.033 A 
HETATM   25  C17 UNL     1      32.341   8.075  47.975  1.00  0.00     0.020 A 
HETATM   26  C18 UNL     1      33.365   8.736  47.326  1.00  0.00     0.043 A 
HETATM   27  C19 UNL     1      33.963   8.200  46.205  1.00  0.00     0.116 A 
HETATM   28  F1  UNL     1      34.971   8.782  45.512  1.00  0.00    -0.206 F 
HETATM   29  C20 UNL     1      33.545   6.977  45.708  1.00  0.00     0.043 A 
HETATM   30  C21 UNL     1      32.508   6.287  46.349  1.00  0.00     0.020 A 
ENDBRANCH  21  24
ENDBRANCH  19  20
ENDBRANCH   1  18
TORSDOF 7
ENDMDL
MODEL 7
REMARK VINA RESULT:      -8.2      5.381     10.906
REMARK  7 active torsions:
REMARK  status: ('A' for Active; 'I' for Inactive)
REMARK       I    between atoms: C1_2  and  N1_3 
REMARK    1  A    between atoms: C1_2  and  C16_22 
REMARK    2  A    between atoms: N1_3  and  C2_4 
REMARK    3  A    between atoms: C3_5  and  C4_6 
REMARK    4  A    between atoms: C5_7  and  C6_8 
REMARK    5  A    between atoms: C6_8  and  N2_9 
REMARK    6  A    between atoms: N2_9  and  C7_10 
REMARK    7  A    between atoms: C10_14  and  C11_15 
ROOT
HETATM    1  C4  UNL     1      23.696   6.346  51.059  1.00  0.00     0.064 C 
HETATM    2  C5  UNL     1      23.730   5.249  51.825  1.00  0.00     0.002 C 
ENDROOT
BRANCH   2   3
HETATM    3  C6  UNL     1      22.679   4.416  52.462  1.00  0.00     0.166 C 
BRANCH   3   4
HETATM    4  N2  UNL     1      22.567   3.165  51.721  1.00  0.00    -0.219 N 
HETATM    5  H6  UNL     1      22.389   3.038  50.694  1.00  0.00     0.178 HD
BRANCH   4   6
HETATM    6  C7  UNL     1      22.709   1.936  52.424  1.00  0.00     0.723 A 
HETATM    7  N3  UNL     1      21.701   1.147  52.865  1.00  0.00    -0.075 NA
HETATM    8  C8  UNL     1      21.989   0.002  53.520  1.00  0.00     0.139 A 
HETATM    9  C9  UNL     1      23.324  -0.301  53.707  1.00  0.00     0.053 A 
HETATM   10  C10 UNL     1      24.366   0.485  53.268  1.00  0.00     0.089 A 
HETATM   11  N5  UNL     1      23.998   1.617  52.619  1.00  0.00    -0.062 NA
BRANCH  10  12
HETATM   12  C11 UNL     1      25.769   0.144  53.476  1.00  0.00     0.011 A 
HETATM   13  C12 UNL     1      26.648  -0.255  52.492  1.00  0.00     0.017 A 
HETATM   14  C13 UNL     1      27.964  -0.550  52.824  1.00  0.00     0.020 A 
HETATM   15  C14 UNL     1      28.422  -0.454  54.129  1.00  0.00     0.116 A 
HETATM   16  N4  UNL     1      27.550  -0.064  55.069  1.00  0.00    -0.272 NA
HETATM   17  C15 UNL     1      26.273   0.224  54.755  1.00  0.00     0.130 A 
ENDBRANCH  10  12
ENDBRANCH   4   6
ENDBRANCH   3   4
ENDBRANCH   2   3
BRANCH   1  18
HETATM   18  C3  UNL     1      24.931   6.914  50.597  1.00  0.00    -0.056 C 
HETATM   19  C2  UNL     1      25.982   7.375  50.197  1.00  0.00     0.018 C 
BRANCH  19  20
HETATM   20  N1  UNL     1      27.207   7.889  49.743  1.00  0.00    -0.281 N 
HETATM   21  C1  UNL     1      27.508   9.277  49.787  1.00  0.00     0.263 C 
HETATM   22  O1  UNL     1      26.572   9.970  50.270  1.00  0.00    -0.267 OA
HETATM   23  H1  UNL     1      27.908   7.214  49.361  1.00  0.00     0.179 HD
BRANCH  21  24
HETATM   24  C16 UNL     1      28.795   9.825  49.310  1.00  0.00     0.033 A 
HETATM   25  C17 UNL     1      29.982   9.122  49.281  1.00  0.00     0.020 A 
HETATM   26  C18 UNL     1      31.117   9.750  48.810  1.00  0.00     0.043 A 
HETATM   27  C19 UNL     1      31.080  11.058  48.373  1.00  0.00     0.116 A 
HETATM   28  F1  UNL     1      32.145  11.745  47.898  1.00  0.00    -0.206 F 
HETATM   29  C20 UNL     1      29.892  11.769  48.399  1.00  0.00     0.043 A 
HETATM   30  C21 UNL     1      28.727  11.153  48.872  1.00  0.00     0.020 A 
ENDBRANCH  21  24
ENDBRANCH  19  20
ENDBRANCH   1  18
TORSDOF 7
ENDMDL
MODEL 8
REMARK VINA RESULT:      -7.7      8.225     14.099
REMARK  7 active torsions:
REMARK  status: ('A' for Active; 'I' for Inactive)
REMARK       I    between atoms: C1_2  and  N1_3 
REMARK    1  A    between atoms: C1_2  and  C16_22 
REMARK    2  A    between atoms: N1_3  and  C2_4 
REMARK    3  A    between atoms: C3_5  and  C4_6 
REMARK    4  A    between atoms: C5_7  and  C6_8 
REMARK    5  A    between atoms: C6_8  and  N2_9 
REMARK    6  A    between atoms: N2_9  and  C7_10 
REMARK    7  A    between atoms: C10_14  and  C11_15 
ROOT
HETATM    1  C4  UNL     1      19.343  -0.489  53.458  1.00  0.00     0.064 C 
HETATM    2  C5  UNL     1      18.895  -0.422  52.198  1.00  0.00     0.002 C 
ENDROOT
BRANCH   2   3
HETATM    3  C6  UNL     1      17.546  -0.256  51.603  1.00  0.00     0.166 C 
BRANCH   3   4
HETATM    4  N2  UNL     1      17.510   1.012  50.883  1.00  0.00    -0.219 N 
HETATM    5  H6  UNL     1      17.974   1.250  49.972  1.00  0.00     0.178 HD
BRANCH   4   6
HETATM    6  C7  UNL     1      16.770   2.094  51.438  1.00  0.00     0.723 A 
HETATM    7  N3  UNL     1      17.103   3.405  51.375  1.00  0.00    -0.075 NA
HETATM    8  C8  UNL     1      16.299   4.325  51.949  1.00  0.00     0.139 A 
HETATM    9  C9  UNL     1      15.161   3.864  52.581  1.00  0.00     0.053 A 
HETATM   10  C10 UNL     1      14.801   2.537  52.659  1.00  0.00     0.089 A 
HETATM   11  N5  UNL     1      15.657   1.673  52.058  1.00  0.00    -0.062 NA
BRANCH  10  12
HETATM   12  C11 UNL     1      13.592   2.073  53.331  1.00  0.00     0.011 A 
HETATM   13  C12 UNL     1      13.314   0.764  53.659  1.00  0.00     0.017 A 
HETATM   14  C13 UNL     1      12.122   0.455  54.303  1.00  0.00     0.020 A 
HETATM   15  C14 UNL     1      11.198   1.435  54.627  1.00  0.00     0.116 A 
HETATM   16  N4  UNL     1      11.490   2.701  54.299  1.00  0.00    -0.272 NA
HETATM   17  C15 UNL     1      12.643   3.009  53.676  1.00  0.00     0.130 A 
ENDBRANCH  10  12
ENDBRANCH   4   6
ENDBRANCH   3   4
ENDBRANCH   2   3
BRANCH   1  18
HETATM   18  C3  UNL     1      20.750  -0.657  53.690  1.00  0.00    -0.056 C 
HETATM   19  C2  UNL     1      21.943  -0.777  53.888  1.00  0.00     0.018 C 
BRANCH  19  20
HETATM   20  N1  UNL     1      23.325  -0.899  54.100  1.00  0.00    -0.281 N 
HETATM   21  C1  UNL     1      24.268  -0.052  53.456  1.00  0.00     0.263 C 
HETATM   22  O1  UNL     1      23.728   0.797  52.696  1.00  0.00    -0.267 OA
HETATM   23  H1  UNL     1      23.655  -1.644  54.755  1.00  0.00     0.179 HD
BRANCH  21  24
HETATM   24  C16 UNL     1      25.724  -0.175  53.675  1.00  0.00     0.033 A 
HETATM   25  C17 UNL     1      26.425   0.481  54.667  1.00  0.00     0.020 A 
HETATM   26  C18 UNL     1      27.787   0.279  54.765  1.00  0.00     0.043 A 
HETATM   27  C19 UNL     1      28.448  -0.561  53.894  1.00  0.00     0.116 A 
HETATM   28  F1  UNL     1      29.778  -0.813  53.922  1.00  0.00    -0.206 F 
HETATM   29  C20 UNL     1      27.751  -1.223  52.897  1.00  0.00     0.043 A 
HETATM   30  C21 UNL     1      26.369  -1.034  52.777  1.00  0.00     0.020 A 
ENDBRANCH  21  24
ENDBRANCH  19  20
ENDBRANCH   1  18
TORSDOF 7
ENDMDL
MODEL 9
REMARK VINA RESULT:      -7.7      7.732     13.262
REMARK  7 active torsions:
REMARK  status: ('A' for Active; 'I' for Inactive)
REMARK       I    between atoms: C1_2  and  N1_3 
REMARK    1  A    between atoms: C1_2  and  C16_22 
REMARK    2  A    between atoms: N1_3  and  C2_4 
REMARK    3  A    between atoms: C3_5  and  C4_6 
REMARK    4  A    between atoms: C5_7  and  C6_8 
REMARK    5  A    between atoms: C6_8  and  N2_9 
REMARK    6  A    between atoms: N2_9  and  C7_10 
REMARK    7  A    between atoms: C10_14  and  C11_15 
ROOT
HETATM    1  C4  UNL     1      20.550   0.685  52.732  1.00  0.00     0.064 C 
HETATM    2  C5  UNL     1      19.575  -0.218  52.565  1.00  0.00     0.002 C 
ENDROOT
BRANCH   2   3
HETATM    3  C6  UNL     1      18.129  -0.109  52.248  1.00  0.00     0.166 C 
BRANCH   3   4
HETATM    4  N2  UNL     1      17.990   0.362  50.874  1.00  0.00    -0.219 N 
HETATM    5  H6  UNL     1      18.228  -0.152  49.989  1.00  0.00     0.178 HD
BRANCH   4   6
HETATM    6  C7  UNL     1      17.476   1.669  50.647  1.00  0.00     0.723 A 
HETATM    7  N3  UNL     1      17.936   2.562  49.738  1.00  0.00    -0.075 NA
HETATM    8  C8  UNL     1      17.344   3.771  49.634  1.00  0.00     0.139 A 
HETATM    9  C9  UNL     1      16.283   4.031  50.478  1.00  0.00     0.053 A 
HETATM   10  C10 UNL     1      15.797   3.140  51.410  1.00  0.00     0.089 A 
HETATM   11  N5  UNL     1      16.442   1.948  51.455  1.00  0.00    -0.062 NA
BRANCH  10  12
HETATM   12  C11 UNL     1      14.673   3.437  52.291  1.00  0.00     0.011 A 
HETATM   13  C12 UNL     1      13.409   2.902  52.179  1.00  0.00     0.017 A 
HETATM   14  C13 UNL     1      12.424   3.267  53.089  1.00  0.00     0.020 A 
HETATM   15  C14 UNL     1      12.682   4.162  54.115  1.00  0.00     0.116 A 
HETATM   16  N4  UNL     1      13.920   4.669  54.205  1.00  0.00    -0.272 NA
HETATM   17  C15 UNL     1      14.879   4.319  53.328  1.00  0.00     0.130 A 
ENDBRANCH  10  12
ENDBRANCH   4   6
ENDBRANCH   3   4
ENDBRANCH   2   3
BRANCH   1  18
HETATM   18  C3  UNL     1      21.877   0.229  53.039  1.00  0.00    -0.056 C 
HETATM   19  C2  UNL     1      23.007  -0.146  53.282  1.00  0.00     0.018 C 
BRANCH  19  20
HETATM   20  N1  UNL     1      24.315  -0.583  53.540  1.00  0.00    -0.281 N 
HETATM   21  C1  UNL     1      25.438  -0.069  52.835  1.00  0.00     0.263 C 
HETATM   22  O1  UNL     1      25.125   0.801  51.978  1.00  0.00    -0.267 OA
HETATM   23  H1  UNL     1      24.450  -1.312  54.276  1.00  0.00     0.179 HD
BRANCH  21  24
HETATM   24  C16 UNL     1      26.818  -0.526  53.101  1.00  0.00     0.033 A 
HETATM   25  C17 UNL     1      27.323  -1.754  52.723  1.00  0.00     0.020 A 
HETATM   26  C18 UNL     1      28.633  -2.059  53.032  1.00  0.00     0.043 A 
HETATM   27  C19 UNL     1      29.434  -1.162  53.707  1.00  0.00     0.116 A 
HETATM   28  F1  UNL     1      30.726  -1.383  54.048  1.00  0.00    -0.206 F 
HETATM   29  C20 UNL     1      28.934   0.071  54.088  1.00  0.00     0.043 A 
HETATM   30  C21 UNL     1      27.608   0.404  53.786  1.00  0.00     0.020 A 
ENDBRANCH  21  24
ENDBRANCH  19  20
ENDBRANCH   1  18
TORSDOF 7
ENDMDL
