MODEL 1
REMARK VINA RESULT:      -8.7      0.000      0.000
REMARK  4 active torsions:
REMARK  status: ('A' for Active; 'I' for Inactive)
REMARK    1  A    between atoms: O1_1  and  O2_2 
REMARK    2  A    between atoms: O2_2  and  N1_3 
REMARK    3  A    between atoms: N2_11  and  C8_12 
REMARK    4  A    between atoms: C9_13  and  C10_14 
ROOT
HETATM    1  N1  UNL     1      26.091   0.601  53.571  1.00  0.00    -0.057 NA
HETATM    2  C1  UNL     1      27.015  -0.319  54.246  1.00  0.00     0.165 C 
HETATM    3  C2  UNL     1      28.129   0.318  54.916  1.00  0.00    -0.002 C 
HETATM    4  C3  UNL     1      29.377   0.004  54.547  1.00  0.00    -0.025 C 
HETATM    5  C4  UNL     1      29.754  -0.957  53.497  1.00  0.00     0.054 C 
HETATM    6  C5  UNL     1      28.622  -1.438  52.687  1.00  0.00    -0.016 C 
HETATM    7  C6  UNL     1      27.387  -1.132  53.051  1.00  0.00    -0.039 C 
HETATM    8  C7  UNL     1      26.012  -1.413  52.485  1.00  0.00     0.182 C 
HETATM    9  N2  UNL     1      25.166  -0.373  53.095  1.00  0.00    -0.280 N 
ENDROOT
BRANCH   9  10
HETATM   10  C8  UNL     1      23.795  -0.092  53.332  1.00  0.00     0.055 A 
HETATM   11  C9  UNL     1      22.937   0.684  52.696  1.00  0.00    -0.020 A 
HETATM   12  C16 UNL     1      21.531   0.851  53.060  1.00  0.00     0.045 A 
HETATM   13  C17 UNL     1      21.060   0.142  54.275  1.00  0.00     0.032 A 
HETATM   14  C18 UNL     1      22.071  -0.709  54.942  1.00  0.00    -0.024 A 
HETATM   15  C19 UNL     1      23.314  -0.809  54.505  1.00  0.00     0.027 A 
BRANCH  11  16
HETATM   16  C10 UNL     1      23.272   1.474  51.516  1.00  0.00    -0.028 A 
HETATM   17  C11 UNL     1      24.332   2.330  51.314  1.00  0.00     0.012 A 
HETATM   18  C12 UNL     1      24.517   3.046  50.174  1.00  0.00     0.001 A 
HETATM   19  C13 UNL     1      23.642   2.962  49.122  1.00  0.00     0.000 A 
HETATM   20  C14 UNL     1      22.566   2.124  49.264  1.00  0.00     0.001 A 
HETATM   21  C15 UNL     1      22.395   1.402  50.436  1.00  0.00     0.012 A 
ENDBRANCH  11  16
ENDBRANCH   9  10
BRANCH   1  22
HETATM   22  O2  UNL     1      25.571   1.526  54.351  1.00  0.00    -0.120 OA
BRANCH  22  23
HETATM   23  O1  UNL     1      26.209   2.667  54.077  1.00  0.00    -0.230 OA
HETATM   24  H1  UNL     1      26.199   3.297  54.851  1.00  0.00     0.255 HD
ENDBRANCH  22  23
ENDBRANCH   1  22
TORSDOF 4
ENDMDL
MODEL 2
REMARK VINA RESULT:      -8.2      2.471      5.623
REMARK  4 active torsions:
REMARK  status: ('A' for Active; 'I' for Inactive)
REMARK    1  A    between atoms: O1_1  and  O2_2 
REMARK    2  A    between atoms: O2_2  and  N1_3 
REMARK    3  A    between atoms: N2_11  and  C8_12 
REMARK    4  A    between atoms: C9_13  and  C10_14 
ROOT
HETATM    1  N1  UNL     1      25.119   3.811  51.344  1.00  0.00    -0.057 NA
HETATM    2  C1  UNL     1      24.047   4.268  50.450  1.00  0.00     0.165 C 
HETATM    3  C2  UNL     1      24.494   4.764  49.165  1.00  0.00    -0.002 C 
HETATM    4  C3  UNL     1      24.208   6.025  48.818  1.00  0.00    -0.025 C 
HETATM    5  C4  UNL     1      23.459   6.998  49.629  1.00  0.00     0.054 C 
HETATM    6  C5  UNL     1      23.193   6.554  51.008  1.00  0.00    -0.016 C 
HETATM    7  C6  UNL     1      23.471   5.307  51.354  1.00  0.00    -0.039 C 
HETATM    8  C7  UNL     1      23.364   4.510  52.636  1.00  0.00     0.182 C 
HETATM    9  N2  UNL     1      24.296   3.390  52.427  1.00  0.00    -0.280 N 
ENDROOT
BRANCH   9  10
HETATM   10  C8  UNL     1      24.581   2.104  52.956  1.00  0.00     0.055 A 
HETATM   11  C9  UNL     1      23.920   0.963  52.889  1.00  0.00    -0.020 A 
HETATM   12  C16 UNL     1      24.365  -0.298  53.480  1.00  0.00     0.045 A 
HETATM   13  C17 UNL     1      25.622  -0.268  54.266  1.00  0.00     0.032 A 
HETATM   14  C18 UNL     1      26.314   1.041  54.303  1.00  0.00    -0.024 A 
HETATM   15  C19 UNL     1      25.831   2.115  53.704  1.00  0.00     0.027 A 
BRANCH  11  16
HETATM   16  C10 UNL     1      22.650   0.796  52.190  1.00  0.00    -0.028 A 
HETATM   17  C11 UNL     1      22.342   1.054  50.872  1.00  0.00     0.012 A 
HETATM   18  C12 UNL     1      21.101   0.894  50.343  1.00  0.00     0.001 A 
HETATM   19  C13 UNL     1      20.046   0.454  51.101  1.00  0.00     0.000 A 
HETATM   20  C14 UNL     1      20.293   0.179  52.422  1.00  0.00     0.001 A 
HETATM   21  C15 UNL     1      21.566   0.350  52.943  1.00  0.00     0.012 A 
ENDBRANCH  11  16
ENDBRANCH   9  10
BRANCH   1  22
HETATM   22  O2  UNL     1      25.893   2.874  50.836  1.00  0.00    -0.120 OA
BRANCH  22  23
HETATM   23  O1  UNL     1      27.140   3.350  50.853  1.00  0.00    -0.230 OA
HETATM   24  H1  UNL     1      27.766   2.746  51.344  1.00  0.00     0.255 HD
ENDBRANCH  22  23
ENDBRANCH   1  22
TORSDOF 4
ENDMDL
MODEL 3
REMARK VINA RESULT:      -8.0      3.554      5.992
REMARK  4 active torsions:
REMARK  status: ('A' for Active; 'I' for Inactive)
REMARK    1  A    between atoms: O1_1  and  O2_2 
REMARK    2  A    between atoms: O2_2  and  N1_3 
REMARK    3  A    between atoms: N2_11  and  C8_12 
REMARK    4  A    between atoms: C9_13  and  C10_14 
ROOT
HETATM    1  N1  UNL     1      20.758   2.425  51.188  1.00  0.00    -0.057 NA
HETATM    2  C1  UNL     1      22.218   2.551  51.091  1.00  0.00     0.165 C 
HETATM    3  C2  UNL     1      22.739   3.862  51.417  1.00  0.00    -0.002 C 
HETATM    4  C3  UNL     1      23.437   4.533  50.492  1.00  0.00    -0.025 C 
HETATM    5  C4  UNL     1      23.744   4.067  49.130  1.00  0.00     0.054 C 
HETATM    6  C5  UNL     1      23.037   2.834  48.743  1.00  0.00    -0.016 C 
HETATM    7  C6  UNL     1      22.349   2.166  49.655  1.00  0.00    -0.039 C 
HETATM    8  C7  UNL     1      21.502   0.913  49.640  1.00  0.00     0.182 C 
HETATM    9  N2  UNL     1      20.662   1.046  50.842  1.00  0.00    -0.280 N 
ENDROOT
BRANCH   9  10
HETATM   10  C8  UNL     1      19.853   0.249  51.693  1.00  0.00     0.055 A 
HETATM   11  C9  UNL     1      20.142  -0.453  52.773  1.00  0.00    -0.020 A 
HETATM   12  C16 UNL     1      19.175  -1.214  53.561  1.00  0.00     0.045 A 
HETATM   13  C17 UNL     1      17.778  -1.247  53.064  1.00  0.00     0.032 A 
HETATM   14  C18 UNL     1      17.519  -0.440  51.850  1.00  0.00    -0.024 A 
HETATM   15  C19 UNL     1      18.471   0.238  51.233  1.00  0.00     0.027 A 
BRANCH  11  16
HETATM   16  C10 UNL     1      21.480  -0.550  53.348  1.00  0.00    -0.028 A 
HETATM   17  C11 UNL     1      22.696  -0.238  52.779  1.00  0.00     0.012 A 
HETATM   18  C12 UNL     1      23.889  -0.410  53.407  1.00  0.00     0.001 A 
HETATM   19  C13 UNL     1      23.965  -0.915  54.680  1.00  0.00     0.000 A 
HETATM   20  C14 UNL     1      22.786  -1.243  55.299  1.00  0.00     0.001 A 
HETATM   21  C15 UNL     1      21.580  -1.060  54.640  1.00  0.00     0.012 A 
ENDBRANCH  11  16
ENDBRANCH   9  10
BRANCH   1  22
HETATM   22  O2  UNL     1      20.258   2.738  52.366  1.00  0.00    -0.120 OA
BRANCH  22  23
HETATM   23  O1  UNL     1      19.274   3.615  52.150  1.00  0.00    -0.230 OA
HETATM   24  H1  UNL     1      18.640   3.301  51.445  1.00  0.00     0.255 HD
ENDBRANCH  22  23
ENDBRANCH   1  22
TORSDOF 4
ENDMDL
MODEL 4
REMARK VINA RESULT:      -8.0      2.574      5.620
REMARK  4 active torsions:
REMARK  status: ('A' for Active; 'I' for Inactive)
REMARK    1  A    between atoms: O1_1  and  O2_2 
REMARK    2  A    between atoms: O2_2  and  N1_3 
REMARK    3  A    between atoms: N2_11  and  C8_12 
REMARK    4  A    between atoms: C9_13  and  C10_14 
ROOT
HETATM    1  N1  UNL     1      21.599   2.790  51.231  1.00  0.00    -0.057 NA
HETATM    2  C1  UNL     1      22.725   3.316  50.448  1.00  0.00     0.165 C 
HETATM    3  C2  UNL     1      22.809   4.761  50.396  1.00  0.00    -0.002 C 
HETATM    4  C3  UNL     1      22.755   5.374  49.208  1.00  0.00    -0.025 C 
HETATM    5  C4  UNL     1      22.615   4.716  47.898  1.00  0.00     0.054 C 
HETATM    6  C5  UNL     1      22.322   3.275  47.978  1.00  0.00    -0.016 C 
HETATM    7  C6  UNL     1      22.378   2.664  49.150  1.00  0.00    -0.039 C 
HETATM    8  C7  UNL     1      22.131   1.248  49.625  1.00  0.00     0.182 C 
HETATM    9  N2  UNL     1      21.886   1.404  51.069  1.00  0.00    -0.280 N 
ENDROOT
BRANCH   9  10
HETATM   10  C8  UNL     1      21.863   0.624  52.254  1.00  0.00     0.055 A 
HETATM   11  C9  UNL     1      22.821   0.276  53.094  1.00  0.00    -0.020 A 
HETATM   12  C16 UNL     1      22.627  -0.527  54.299  1.00  0.00     0.045 A 
HETATM   13  C17 UNL     1      21.259  -1.039  54.555  1.00  0.00     0.032 A 
HETATM   14  C18 UNL     1      20.231  -0.615  53.577  1.00  0.00    -0.024 A 
HETATM   15  C19 UNL     1      20.517   0.142  52.532  1.00  0.00     0.027 A 
BRANCH  11  16
HETATM   16  C10 UNL     1      24.219   0.668  52.943  1.00  0.00    -0.028 A 
HETATM   17  C11 UNL     1      24.782   1.924  53.007  1.00  0.00     0.012 A 
HETATM   18  C12 UNL     1      26.104   2.169  52.809  1.00  0.00     0.001 A 
HETATM   19  C13 UNL     1      26.988   1.159  52.527  1.00  0.00     0.000 A 
HETATM   20  C14 UNL     1      26.485  -0.114  52.451  1.00  0.00     0.001 A 
HETATM   21  C15 UNL     1      25.133  -0.342  52.656  1.00  0.00     0.012 A 
ENDBRANCH  11  16
ENDBRANCH   9  10
BRANCH   1  22
HETATM   22  O2  UNL     1      21.560   3.206  52.480  1.00  0.00    -0.120 OA
BRANCH  22  23
HETATM   23  O1  UNL     1      20.319   3.644  52.704  1.00  0.00    -0.230 OA
HETATM   24  H1  UNL     1      20.303   4.427  53.323  1.00  0.00     0.255 HD
ENDBRANCH  22  23
ENDBRANCH   1  22
TORSDOF 4
ENDMDL
MODEL 5
REMARK VINA RESULT:      -7.7      3.395      5.756
REMARK  4 active torsions:
REMARK  status: ('A' for Active; 'I' for Inactive)
REMARK    1  A    between atoms: O1_1  and  O2_2 
REMARK    2  A    between atoms: O2_2  and  N1_3 
REMARK    3  A    between atoms: N2_11  and  C8_12 
REMARK    4  A    between atoms: C9_13  and  C10_14 
ROOT
HETATM    1  N1  UNL     1      24.891   4.499  51.190  1.00  0.00    -0.057 NA
HETATM    2  C1  UNL     1      24.827   3.086  51.588  1.00  0.00     0.165 C 
HETATM    3  C2  UNL     1      24.531   2.860  52.988  1.00  0.00    -0.002 C 
HETATM    4  C3  UNL     1      25.412   2.187  53.738  1.00  0.00    -0.025 C 
HETATM    5  C4  UNL     1      26.695   1.630  53.280  1.00  0.00     0.054 C 
HETATM    6  C5  UNL     1      27.079   2.044  51.920  1.00  0.00    -0.016 C 
HETATM    7  C6  UNL     1      26.210   2.706  51.173  1.00  0.00    -0.039 C 
HETATM    8  C7  UNL     1      26.239   3.301  49.782  1.00  0.00     0.182 C 
HETATM    9  N2  UNL     1      25.153   4.295  49.805  1.00  0.00    -0.280 N 
ENDROOT
BRANCH   9  10
HETATM   10  C8  UNL     1      24.350   5.044  48.906  1.00  0.00     0.055 A 
HETATM   11  C9  UNL     1      23.179   4.787  48.354  1.00  0.00    -0.020 A 
HETATM   12  C16 UNL     1      22.464   5.687  47.451  1.00  0.00     0.045 A 
HETATM   13  C17 UNL     1      23.143   6.952  47.083  1.00  0.00     0.032 A 
HETATM   14  C18 UNL     1      24.452   7.181  47.736  1.00  0.00    -0.024 A 
HETATM   15  C19 UNL     1      24.994   6.305  48.564  1.00  0.00     0.027 A 
BRANCH  11  16
HETATM   16  C10 UNL     1      22.419   3.563  48.587  1.00  0.00    -0.028 A 
HETATM   17  C11 UNL     1      22.554   2.328  47.992  1.00  0.00     0.012 A 
HETATM   18  C12 UNL     1      21.753   1.266  48.269  1.00  0.00     0.001 A 
HETATM   19  C13 UNL     1      20.732   1.353  49.182  1.00  0.00     0.000 A 
HETATM   20  C14 UNL     1      20.550   2.559  49.808  1.00  0.00     0.001 A 
HETATM   21  C15 UNL     1      21.378   3.630  49.511  1.00  0.00     0.012 A 
ENDBRANCH  11  16
ENDBRANCH   9  10
BRANCH   1  22
HETATM   22  O2  UNL     1      23.802   5.191  51.453  1.00  0.00    -0.120 OA
BRANCH  22  23
HETATM   23  O1  UNL     1      24.178   6.243  52.185  1.00  0.00    -0.230 OA
HETATM   24  H1  UNL     1      25.042   6.082  52.658  1.00  0.00     0.255 HD
ENDBRANCH  22  23
ENDBRANCH   1  22
TORSDOF 4
ENDMDL
MODEL 6
REMARK VINA RESULT:      -7.6      8.285     11.239
REMARK  4 active torsions:
REMARK  status: ('A' for Active; 'I' for Inactive)
REMARK    1  A    between atoms: O1_1  and  O2_2 
REMARK    2  A    between atoms: O2_2  and  N1_3 
REMARK    3  A    between atoms: N2_11  and  C8_12 
REMARK    4  A    between atoms: C9_13  and  C10_14 
ROOT
HETATM    1  N1  UNL     1      27.385   9.816  49.097  1.00  0.00    -0.057 NA
HETATM    2  C1  UNL     1      28.011  10.845  48.257  1.00  0.00     0.165 C 
HETATM    3  C2  UNL     1      28.600  11.951  48.984  1.00  0.00    -0.002 C 
HETATM    4  C3  UNL     1      28.155  13.192  48.753  1.00  0.00    -0.025 C 
HETATM    5  C4  UNL     1      27.094  13.570  47.804  1.00  0.00     0.054 C 
HETATM    6  C5  UNL     1      26.366  12.427  47.229  1.00  0.00    -0.016 C 
HETATM    7  C6  UNL     1      26.805  11.198  47.452  1.00  0.00    -0.039 C 
HETATM    8  C7  UNL     1      26.333   9.814  47.064  1.00  0.00     0.182 C 
HETATM    9  N2  UNL     1      26.984   8.936  48.051  1.00  0.00    -0.280 N 
ENDROOT
BRANCH   9  10
HETATM   10  C8  UNL     1      27.305   7.566  48.238  1.00  0.00     0.055 A 
HETATM   11  C9  UNL     1      28.403   6.880  47.979  1.00  0.00    -0.020 A 
HETATM   12  C16 UNL     1      28.585   5.456  48.254  1.00  0.00     0.045 A 
HETATM   13  C17 UNL     1      27.420   4.722  48.804  1.00  0.00     0.032 A 
HETATM   14  C18 UNL     1      26.220   5.547  49.070  1.00  0.00    -0.024 A 
HETATM   15  C19 UNL     1      26.178   6.842  48.808  1.00  0.00     0.027 A 
BRANCH  11  16
HETATM   16  C10 UNL     1      29.609   7.461  47.397  1.00  0.00    -0.028 A 
HETATM   17  C11 UNL     1      29.826   7.907  46.111  1.00  0.00     0.012 A 
HETATM   18  C12 UNL     1      31.016   8.397  45.674  1.00  0.00     0.001 A 
HETATM   19  C13 UNL     1      32.106   8.484  46.501  1.00  0.00     0.000 A 
HETATM   20  C14 UNL     1      31.949   8.056  47.794  1.00  0.00     0.001 A 
HETATM   21  C15 UNL     1      30.727   7.559  48.221  1.00  0.00     0.012 A 
ENDBRANCH  11  16
ENDBRANCH   9  10
BRANCH   1  22
HETATM   22  O2  UNL     1      28.185   9.282  49.996  1.00  0.00    -0.120 OA
BRANCH  22  23
HETATM   23  O1  UNL     1      27.633   9.508  51.190  1.00  0.00    -0.230 OA
HETATM   24  H1  UNL     1      26.818  10.080  51.124  1.00  0.00     0.255 HD
ENDBRANCH  22  23
ENDBRANCH   1  22
TORSDOF 4
ENDMDL
MODEL 7
REMARK VINA RESULT:      -7.6      3.172      7.005
REMARK  4 active torsions:
REMARK  status: ('A' for Active; 'I' for Inactive)
REMARK    1  A    between atoms: O1_1  and  O2_2 
REMARK    2  A    between atoms: O2_2  and  N1_3 
REMARK    3  A    between atoms: N2_11  and  C8_12 
REMARK    4  A    between atoms: C9_13  and  C10_14 
ROOT
HETATM    1  N1  UNL     1      22.062   2.568  49.875  1.00  0.00    -0.057 NA
HETATM    2  C1  UNL     1      21.438   1.723  50.902  1.00  0.00     0.165 C 
HETATM    3  C2  UNL     1      20.561   0.690  50.391  1.00  0.00    -0.002 C 
HETATM    4  C3  UNL     1      19.276   0.683  50.766  1.00  0.00    -0.025 C 
HETATM    5  C4  UNL     1      18.633   1.646  51.676  1.00  0.00     0.054 C 
HETATM    6  C5  UNL     1      19.476   2.803  52.020  1.00  0.00    -0.016 C 
HETATM    7  C6  UNL     1      20.748   2.812  51.654  1.00  0.00    -0.039 C 
HETATM    8  C7  UNL     1      21.889   3.796  51.798  1.00  0.00     0.182 C 
HETATM    9  N2  UNL     1      22.835   3.387  50.747  1.00  0.00    -0.280 N 
ENDROOT
BRANCH   9  10
HETATM   10  C8  UNL     1      24.197   3.560  50.387  1.00  0.00     0.055 A 
HETATM   11  C9  UNL     1      25.285   2.892  50.726  1.00  0.00    -0.020 A 
HETATM   12  C16 UNL     1      26.633   3.189  50.245  1.00  0.00     0.045 A 
HETATM   13  C17 UNL     1      26.789   4.370  49.363  1.00  0.00     0.032 A 
HETATM   14  C18 UNL     1      25.533   5.076  49.023  1.00  0.00    -0.024 A 
HETATM   15  C19 UNL     1      24.358   4.700  49.495  1.00  0.00     0.027 A 
BRANCH  11  16
HETATM   16  C10 UNL     1      25.287   1.738  51.620  1.00  0.00    -0.028 A 
HETATM   17  C11 UNL     1      24.354   1.366  52.563  1.00  0.00     0.012 A 
HETATM   18  C12 UNL     1      24.489   0.281  53.369  1.00  0.00     0.001 A 
HETATM   19  C13 UNL     1      25.587  -0.538  53.297  1.00  0.00     0.000 A 
HETATM   20  C14 UNL     1      26.550  -0.218  52.375  1.00  0.00     0.001 A 
HETATM   21  C15 UNL     1      26.394   0.894  51.562  1.00  0.00     0.012 A 
ENDBRANCH  11  16
ENDBRANCH   9  10
BRANCH   1  22
HETATM   22  O2  UNL     1      22.757   1.908  48.972  1.00  0.00    -0.120 OA
BRANCH  22  23
HETATM   23  O1  UNL     1      22.281   2.267  47.777  1.00  0.00    -0.230 OA
HETATM   24  H1  UNL     1      22.957   2.148  47.052  1.00  0.00     0.255 HD
ENDBRANCH  22  23
ENDBRANCH   1  22
TORSDOF 4
ENDMDL
MODEL 8
REMARK VINA RESULT:      -7.4      2.918      6.142
REMARK  4 active torsions:
REMARK  status: ('A' for Active; 'I' for Inactive)
REMARK    1  A    between atoms: O1_1  and  O2_2 
REMARK    2  A    between atoms: O2_2  and  N1_3 
REMARK    3  A    between atoms: N2_11  and  C8_12 
REMARK    4  A    between atoms: C9_13  and  C10_14 
ROOT
HETATM    1  N1  UNL     1      23.736   4.585  51.170  1.00  0.00    -0.057 NA
HETATM    2  C1  UNL     1      24.496   5.653  50.507  1.00  0.00     0.165 C 
HETATM    3  C2  UNL     1      24.217   6.990  50.988  1.00  0.00    -0.002 C 
HETATM    4  C3  UNL     1      23.751   7.906  50.130  1.00  0.00    -0.025 C 
HETATM    5  C4  UNL     1      23.484   7.695  48.697  1.00  0.00     0.054 C 
HETATM    6  C5  UNL     1      23.572   6.289  48.269  1.00  0.00    -0.016 C 
HETATM    7  C6  UNL     1      24.035   5.381  49.113  1.00  0.00    -0.039 C 
HETATM    8  C7  UNL     1      24.248   3.884  49.053  1.00  0.00     0.182 C 
HETATM    9  N2  UNL     1      24.303   3.483  50.469  1.00  0.00    -0.280 N 
ENDROOT
BRANCH   9  10
HETATM   10  C8  UNL     1      24.735   2.395  51.271  1.00  0.00     0.055 A 
HETATM   11  C9  UNL     1      24.064   1.439  51.886  1.00  0.00    -0.020 A 
HETATM   12  C16 UNL     1      24.668   0.362  52.669  1.00  0.00     0.045 A 
HETATM   13  C17 UNL     1      26.142   0.393  52.831  1.00  0.00     0.032 A 
HETATM   14  C18 UNL     1      26.835   1.489  52.118  1.00  0.00    -0.024 A 
HETATM   15  C19 UNL     1      26.185   2.397  51.410  1.00  0.00     0.027 A 
BRANCH  11  16
HETATM   16  C10 UNL     1      22.611   1.312  51.852  1.00  0.00    -0.028 A 
HETATM   17  C11 UNL     1      21.698   1.477  52.871  1.00  0.00     0.012 A 
HETATM   18  C12 UNL     1      20.360   1.291  52.723  1.00  0.00     0.001 A 
HETATM   19  C13 UNL     1      19.814   0.920  51.521  1.00  0.00     0.000 A 
HETATM   20  C14 UNL     1      20.674   0.741  50.469  1.00  0.00     0.001 A 
HETATM   21  C15 UNL     1      22.036   0.935  50.640  1.00  0.00     0.012 A 
ENDBRANCH  11  16
ENDBRANCH   9  10
BRANCH   1  22
HETATM   22  O2  UNL     1      23.878   4.544  52.479  1.00  0.00    -0.120 OA
BRANCH  22  23
HETATM   23  O1  UNL     1      22.714   4.928  53.008  1.00  0.00    -0.230 OA
HETATM   24  H1  UNL     1      22.838   5.433  53.860  1.00  0.00     0.255 HD
ENDBRANCH  22  23
ENDBRANCH   1  22
TORSDOF 4
ENDMDL
MODEL 9
REMARK VINA RESULT:      -7.3      2.362      5.745
REMARK  4 active torsions:
REMARK  status: ('A' for Active; 'I' for Inactive)
REMARK    1  A    between atoms: O1_1  and  O2_2 
REMARK    2  A    between atoms: O2_2  and  N1_3 
REMARK    3  A    between atoms: N2_11  and  C8_12 
REMARK    4  A    between atoms: C9_13  and  C10_14 
ROOT
HETATM    1  N1  UNL     1      23.025   2.188  51.231  1.00  0.00    -0.057 NA
HETATM    2  C1  UNL     1      22.507   3.562  51.281  1.00  0.00     0.165 C 
HETATM    3  C2  UNL     1      21.957   4.052  50.035  1.00  0.00    -0.002 C 
HETATM    4  C3  UNL     1      22.492   5.143  49.472  1.00  0.00    -0.025 C 
HETATM    5  C4  UNL     1      23.619   5.928  50.003  1.00  0.00     0.054 C 
HETATM    6  C5  UNL     1      24.299   5.305  51.150  1.00  0.00    -0.016 C 
HETATM    7  C6  UNL     1      23.771   4.228  51.712  1.00  0.00    -0.039 C 
HETATM    8  C7  UNL     1      24.171   3.322  52.855  1.00  0.00     0.182 C 
HETATM    9  N2  UNL     1      23.419   2.083  52.596  1.00  0.00    -0.280 N 
ENDROOT
BRANCH   9  10
HETATM   10  C8  UNL     1      23.001   0.906  53.271  1.00  0.00     0.055 A 
HETATM   11  C9  UNL     1      23.679  -0.133  53.722  1.00  0.00    -0.020 A 
HETATM   12  C16 UNL     1      23.094  -1.272  54.427  1.00  0.00     0.045 A 
HETATM   13  C17 UNL     1      21.620  -1.282  54.584  1.00  0.00     0.032 A 
HETATM   14  C18 UNL     1      20.919  -0.090  54.056  1.00  0.00    -0.024 A 
HETATM   15  C19 UNL     1      21.557   0.902  53.460  1.00  0.00     0.027 A 
BRANCH  11  16
HETATM   16  C10 UNL     1      25.126  -0.279  53.597  1.00  0.00    -0.028 A 
HETATM   17  C11 UNL     1      25.852  -0.967  52.649  1.00  0.00     0.012 A 
HETATM   18  C12 UNL     1      27.208  -1.063  52.661  1.00  0.00     0.001 A 
HETATM   19  C13 UNL     1      27.963  -0.466  53.639  1.00  0.00     0.000 A 
HETATM   20  C14 UNL     1      27.294   0.234  54.610  1.00  0.00     0.001 A 
HETATM   21  C15 UNL     1      25.911   0.319  54.580  1.00  0.00     0.012 A 
ENDBRANCH  11  16
ENDBRANCH   9  10
BRANCH   1  22
HETATM   22  O2  UNL     1      22.150   1.287  50.834  1.00  0.00    -0.120 OA
BRANCH  22  23
HETATM   23  O1  UNL     1      22.292   1.164  49.512  1.00  0.00    -0.230 OA
HETATM   24  H1  UNL     1      21.652   0.502  49.126  1.00  0.00     0.255 HD
ENDBRANCH  22  23
ENDBRANCH   1  22
TORSDOF 4
ENDMDL
