MODEL 1
REMARK VINA RESULT:      -7.4      0.000      0.000
REMARK  6 active torsions:
REMARK  status: ('A' for Active; 'I' for Inactive)
REMARK    1  A    between atoms: O1_2  and  C2_3 
REMARK    2  A    between atoms: C2_3  and  C3_4 
REMARK    3  A    between atoms: C3_4  and  N1_5 
REMARK    4  A    between atoms: C7_10  and  O3_11 
REMARK    5  A    between atoms: C13_18  and  N3_19 
REMARK    6  A    between atoms: C18_26  and  O4_27 
ROOT
HETATM    1  N1  UNL     1      24.836   1.195  52.150  1.00  0.00     0.095 N 
HETATM    2  C4  UNL     1      25.406   2.478  51.767  1.00  0.00     0.298 C 
HETATM    3  C5  UNL     1      26.417   2.302  50.685  1.00  0.00     0.198 C 
HETATM    4  O2  UNL     1      26.941   3.549  50.251  1.00  0.00    -0.383 OA
HETATM    5  C6  UNL     1      25.898   4.258  49.699  1.00  0.00     0.231 C 
HETATM    6  C7  UNL     1      26.342   5.618  49.278  1.00  0.00     0.066 C 
HETATM    7  C9  UNL     1      25.717   6.659  49.879  1.00  0.00     0.012 C 
HETATM    8  C10 UNL     1      24.659   6.668  50.905  1.00  0.00     0.068 C 
HETATM    9  C11 UNL     1      23.360   7.203  50.436  1.00  0.00    -0.024 A 
HETATM   10  C12 UNL     1      22.079   6.776  50.485  1.00  0.00     0.128 A 
HETATM   11  N2  UNL     1      21.256   7.772  49.836  1.00  0.00    -0.218 NA
HETATM   12  C13 UNL     1      21.976   8.748  49.414  1.00  0.00     0.104 A 
HETATM   13  C14 UNL     1      23.396   8.509  49.736  1.00  0.00     0.116 A 
HETATM   14  N4  UNL     1      21.402   5.604  51.007  1.00  0.00    -0.371 N 
HETATM   15  C15 UNL     1      21.828   4.828  52.135  1.00  0.00     0.150 C 
HETATM   16  C16 UNL     1      20.909   3.654  52.365  1.00  0.00     0.015 C 
HETATM   17  C17 UNL     1      21.274   2.348  52.227  1.00  0.00     0.040 C 
HETATM   18 CL1  UNL     1      20.549   0.782  52.402  1.00  0.00    -0.086 Cl
HETATM   19  C18 UNL     1      22.594   1.948  51.697  1.00  0.00     0.193 C 
HETATM   20  C20 UNL     1      23.512   1.370  52.721  1.00  0.00     0.310 C 
HETATM   21  H24 UNL     1      20.532   5.244  50.561  1.00  0.00     0.161 HD
ENDROOT
BRANCH   1  22
HETATM   22  C3  UNL     1      25.741   0.395  52.883  1.00  0.00     0.298 C 
BRANCH  22  23
HETATM   23  C2  UNL     1      25.165  -0.525  53.904  1.00  0.00     0.197 C 
BRANCH  23  24
HETATM   24  O1  UNL     1      25.925  -0.722  55.036  1.00  0.00    -0.394 OA
HETATM   25  C1  UNL     1      26.996   0.196  54.921  1.00  0.00     0.201 C 
ENDBRANCH  23  24
ENDBRANCH  22  23
ENDBRANCH   1  22
BRANCH  19  26
HETATM   26  O4  UNL     1      22.439   1.067  50.599  1.00  0.00    -0.383 OA
HETATM   27  C19 UNL     1      22.275   1.737  49.407  1.00  0.00     0.202 C 
ENDBRANCH  19  26
BRANCH   6  28
HETATM   28  O3  UNL     1      27.315   5.862  48.348  1.00  0.00    -0.358 OA
HETATM   29  C8  UNL     1      27.940   7.129  48.204  1.00  0.00     0.209 C 
ENDBRANCH   6  28
BRANCH  12  30
HETATM   30  N3  UNL     1      21.466   9.898  48.727  1.00  0.00    -0.387 N 
HETATM   31  H20 UNL     1      22.275  10.192  48.120  1.00  0.00     0.157 HD
HETATM   32  H21 UNL     1      20.557  10.403  48.739  1.00  0.00     0.157 HD
ENDBRANCH  12  30
TORSDOF 6
ENDMDL
MODEL 2
REMARK VINA RESULT:      -6.9      3.139      6.254
REMARK  6 active torsions:
REMARK  status: ('A' for Active; 'I' for Inactive)
REMARK    1  A    between atoms: O1_2  and  C2_3 
REMARK    2  A    between atoms: C2_3  and  C3_4 
REMARK    3  A    between atoms: C3_4  and  N1_5 
REMARK    4  A    between atoms: C7_10  and  O3_11 
REMARK    5  A    between atoms: C13_18  and  N3_19 
REMARK    6  A    between atoms: C18_26  and  O4_27 
ROOT
HETATM    1  N1  UNL     1      20.938   1.882  49.913  1.00  0.00     0.095 N 
HETATM    2  C4  UNL     1      22.316   2.245  49.615  1.00  0.00     0.298 C 
HETATM    3  C5  UNL     1      22.395   3.652  49.127  1.00  0.00     0.198 C 
HETATM    4  O2  UNL     1      23.738   4.049  48.891  1.00  0.00    -0.383 OA
HETATM    5  C6  UNL     1      24.390   4.019  50.104  1.00  0.00     0.231 C 
HETATM    6  C7  UNL     1      25.834   4.354  49.942  1.00  0.00     0.066 C 
HETATM    7  C9  UNL     1      26.712   3.394  50.319  1.00  0.00     0.012 C 
HETATM    8  C10 UNL     1      26.470   2.047  50.865  1.00  0.00     0.068 C 
HETATM    9  C11 UNL     1      26.910   1.869  52.268  1.00  0.00    -0.024 A 
HETATM   10  C12 UNL     1      26.338   1.387  53.394  1.00  0.00     0.128 A 
HETATM   11  N2  UNL     1      27.309   1.486  54.461  1.00  0.00    -0.218 NA
HETATM   12  C13 UNL     1      28.406   1.993  54.027  1.00  0.00     0.104 A 
HETATM   13  C14 UNL     1      28.290   2.303  52.589  1.00  0.00     0.116 A 
HETATM   14  N4  UNL     1      25.040   0.838  53.737  1.00  0.00    -0.371 N 
HETATM   15  C15 UNL     1      24.179   0.114  52.847  1.00  0.00     0.150 C 
HETATM   16  C16 UNL     1      22.889  -0.267  53.530  1.00  0.00     0.015 C 
HETATM   17  C17 UNL     1      21.661   0.215  53.187  1.00  0.00     0.040 C 
HETATM   18 CL1  UNL     1      20.013   0.025  53.695  1.00  0.00    -0.086 Cl
HETATM   19  C18 UNL     1      21.484   1.282  52.179  1.00  0.00     0.193 C 
HETATM   20  C20 UNL     1      20.888   0.814  50.895  1.00  0.00     0.310 C 
HETATM   21  H24 UNL     1      24.643   0.956  54.693  1.00  0.00     0.161 HD
ENDROOT
BRANCH   1  22
HETATM   22  C3  UNL     1      20.159   1.708  48.747  1.00  0.00     0.298 C 
BRANCH  22  23
HETATM   23  C2  UNL     1      18.907   2.509  48.639  1.00  0.00     0.197 C 
BRANCH  23  24
HETATM   24  O1  UNL     1      18.561   3.243  49.753  1.00  0.00    -0.394 OA
HETATM   25  C1  UNL     1      17.360   2.656  50.218  1.00  0.00     0.201 C 
ENDBRANCH  23  24
ENDBRANCH  22  23
ENDBRANCH   1  22
BRANCH  19  26
HETATM   26  O4  UNL     1      20.739   2.356  52.724  1.00  0.00    -0.383 OA
HETATM   27  C19 UNL     1      21.444   3.539  52.722  1.00  0.00     0.202 C 
ENDBRANCH  19  26
BRANCH   6  28
HETATM   28  O3  UNL     1      26.303   5.540  49.447  1.00  0.00    -0.358 OA
HETATM   29  C8  UNL     1      27.382   5.616  48.526  1.00  0.00     0.209 C 
ENDBRANCH   6  28
BRANCH  12  30
HETATM   30  N3  UNL     1      29.569   2.225  54.831  1.00  0.00    -0.387 N 
HETATM   31  H20 UNL     1      29.821   3.222  54.606  1.00  0.00     0.157 HD
HETATM   32  H21 UNL     1      30.114   1.643  55.500  1.00  0.00     0.157 HD
ENDBRANCH  12  30
TORSDOF 6
ENDMDL
MODEL 3
REMARK VINA RESULT:      -6.9      3.565      7.526
REMARK  6 active torsions:
REMARK  status: ('A' for Active; 'I' for Inactive)
REMARK    1  A    between atoms: O1_2  and  C2_3 
REMARK    2  A    between atoms: C2_3  and  C3_4 
REMARK    3  A    between atoms: C3_4  and  N1_5 
REMARK    4  A    between atoms: C7_10  and  O3_11 
REMARK    5  A    between atoms: C13_18  and  N3_19 
REMARK    6  A    between atoms: C18_26  and  O4_27 
ROOT
HETATM    1  N1  UNL     1      19.685   3.225  49.366  1.00  0.00     0.095 N 
HETATM    2  C4  UNL     1      20.232   2.579  50.550  1.00  0.00     0.298 C 
HETATM    3  C5  UNL     1      19.774   1.163  50.636  1.00  0.00     0.198 C 
HETATM    4  O2  UNL     1      20.347   0.494  51.750  1.00  0.00    -0.383 OA
HETATM    5  C6  UNL     1      21.708   0.452  51.543  1.00  0.00     0.231 C 
HETATM    6  C7  UNL     1      22.405  -0.172  52.704  1.00  0.00     0.066 C 
HETATM    7  C9  UNL     1      23.305   0.610  53.347  1.00  0.00     0.012 C 
HETATM    8  C10 UNL     1      23.708   2.004  53.088  1.00  0.00     0.068 C 
HETATM    9  C11 UNL     1      25.108   2.158  52.631  1.00  0.00    -0.024 A 
HETATM   10  C12 UNL     1      25.712   2.799  51.606  1.00  0.00     0.128 A 
HETATM   11  N2  UNL     1      27.134   2.561  51.711  1.00  0.00    -0.218 NA
HETATM   12  C13 UNL     1      27.394   1.824  52.730  1.00  0.00     0.104 A 
HETATM   13  C14 UNL     1      26.147   1.473  53.436  1.00  0.00     0.116 A 
HETATM   14  N4  UNL     1      25.264   3.613  50.492  1.00  0.00    -0.371 N 
HETATM   15  C15 UNL     1      24.099   4.451  50.486  1.00  0.00     0.150 C 
HETATM   16  C16 UNL     1      23.914   5.115  49.144  1.00  0.00     0.015 C 
HETATM   17  C17 UNL     1      22.874   4.872  48.298  1.00  0.00     0.040 C 
HETATM   18 CL1  UNL     1      22.322   5.413  46.745  1.00  0.00    -0.086 Cl
HETATM   19  C18 UNL     1      21.875   3.814  48.557  1.00  0.00     0.193 C 
HETATM   20  C20 UNL     1      20.529   4.329  48.945  1.00  0.00     0.310 C 
HETATM   21  H24 UNL     1      25.787   3.624  49.590  1.00  0.00     0.161 HD
ENDROOT
BRANCH   1  22
HETATM   22  C3  UNL     1      18.303   3.494  49.484  1.00  0.00     0.298 C 
BRANCH  22  23
HETATM   23  C2  UNL     1      17.835   4.110  50.757  1.00  0.00     0.197 C 
BRANCH  23  24
HETATM   24  O1  UNL     1      16.957   3.357  51.506  1.00  0.00    -0.394 OA
HETATM   25  C1  UNL     1      16.169   4.303  52.205  1.00  0.00     0.201 C 
ENDBRANCH  23  24
ENDBRANCH  22  23
ENDBRANCH   1  22
BRANCH  19  26
HETATM   26  O4  UNL     1      21.784   2.939  47.447  1.00  0.00    -0.383 OA
HETATM   27  C19 UNL     1      22.504   1.780  47.632  1.00  0.00     0.202 C 
ENDBRANCH  19  26
BRANCH   6  28
HETATM   28  O3  UNL     1      22.190  -1.451  53.140  1.00  0.00    -0.358 OA
HETATM   29  C8  UNL     1      21.546  -1.745  54.371  1.00  0.00     0.209 C 
ENDBRANCH   6  28
BRANCH  12  30
HETATM   30  N3  UNL     1      28.709   1.404  53.115  1.00  0.00    -0.387 N 
HETATM   31  H20 UNL     1      28.827   1.834  54.069  1.00  0.00     0.157 HD
HETATM   32  H21 UNL     1      29.446   0.827  52.662  1.00  0.00     0.157 HD
ENDBRANCH  12  30
TORSDOF 6
ENDMDL
MODEL 4
REMARK VINA RESULT:      -6.7      3.237      6.186
REMARK  6 active torsions:
REMARK  status: ('A' for Active; 'I' for Inactive)
REMARK    1  A    between atoms: O1_2  and  C2_3 
REMARK    2  A    between atoms: C2_3  and  C3_4 
REMARK    3  A    between atoms: C3_4  and  N1_5 
REMARK    4  A    between atoms: C7_10  and  O3_11 
REMARK    5  A    between atoms: C13_18  and  N3_19 
REMARK    6  A    between atoms: C18_26  and  O4_27 
ROOT
HETATM    1  N1  UNL     1      25.740   2.435  51.563  1.00  0.00     0.095 N 
HETATM    2  C4  UNL     1      24.589   1.549  51.659  1.00  0.00     0.298 C 
HETATM    3  C5  UNL     1      24.311   1.201  53.082  1.00  0.00     0.198 C 
HETATM    4  O2  UNL     1      23.153   0.388  53.204  1.00  0.00    -0.383 OA
HETATM    5  C6  UNL     1      22.082   1.137  52.770  1.00  0.00     0.231 C 
HETATM    6  C7  UNL     1      20.825   0.336  52.795  1.00  0.00     0.066 C 
HETATM    7  C9  UNL     1      20.203   0.169  51.603  1.00  0.00     0.012 C 
HETATM    8  C10 UNL     1      20.577   0.650  50.261  1.00  0.00     0.068 C 
HETATM    9  C11 UNL     1      19.649   1.655  49.693  1.00  0.00    -0.024 A 
HETATM   10  C12 UNL     1      19.791   2.872  49.125  1.00  0.00     0.128 A 
HETATM   11  N2  UNL     1      18.474   3.352  48.770  1.00  0.00    -0.218 NA
HETATM   12  C13 UNL     1      17.578   2.492  49.096  1.00  0.00     0.104 A 
HETATM   13  C14 UNL     1      18.206   1.314  49.724  1.00  0.00     0.116 A 
HETATM   14  N4  UNL     1      20.910   3.745  48.824  1.00  0.00    -0.371 N 
HETATM   15  C15 UNL     1      22.245   3.316  48.521  1.00  0.00     0.150 C 
HETATM   16  C16 UNL     1      23.160   4.496  48.306  1.00  0.00     0.015 C 
HETATM   17  C17 UNL     1      24.207   4.820  49.116  1.00  0.00     0.040 C 
HETATM   18 CL1  UNL     1      25.444   6.033  49.201  1.00  0.00    -0.086 Cl
HETATM   19  C18 UNL     1      24.474   4.110  50.385  1.00  0.00     0.193 C 
HETATM   20  C20 UNL     1      25.678   3.231  50.349  1.00  0.00     0.310 C 
HETATM   21  H24 UNL     1      20.798   4.781  48.822  1.00  0.00     0.161 HD
ENDROOT
BRANCH   1  22
HETATM   22  C3  UNL     1      26.959   1.771  51.823  1.00  0.00     0.298 C 
BRANCH  22  23
HETATM   23  C2  UNL     1      27.802   2.303  52.932  1.00  0.00     0.197 C 
BRANCH  23  24
HETATM   24  O1  UNL     1      27.477   1.868  54.198  1.00  0.00    -0.394 OA
HETATM   25  C1  UNL     1      28.163   0.639  54.349  1.00  0.00     0.201 C 
ENDBRANCH  23  24
ENDBRANCH  22  23
ENDBRANCH   1  22
BRANCH  19  26
HETATM   26  O4  UNL     1      24.549   5.031  51.459  1.00  0.00    -0.383 OA
HETATM   27  C19 UNL     1      23.375   5.096  52.178  1.00  0.00     0.202 C 
ENDBRANCH  19  26
BRANCH   6  28
HETATM   28  O3  UNL     1      20.285  -0.222  53.921  1.00  0.00    -0.358 OA
HETATM   29  C8  UNL     1      20.553  -1.558  54.321  1.00  0.00     0.209 C 
ENDBRANCH   6  28
BRANCH  12  30
HETATM   30  N3  UNL     1      16.171   2.663  48.881  1.00  0.00    -0.387 N 
HETATM   31  H20 UNL     1      16.063   2.473  47.850  1.00  0.00     0.157 HD
HETATM   32  H21 UNL     1      15.370   2.907  49.496  1.00  0.00     0.157 HD
ENDBRANCH  12  30
TORSDOF 6
ENDMDL
MODEL 5
REMARK VINA RESULT:      -6.6      3.489      7.039
REMARK  6 active torsions:
REMARK  status: ('A' for Active; 'I' for Inactive)
REMARK    1  A    between atoms: O1_2  and  C2_3 
REMARK    2  A    between atoms: C2_3  and  C3_4 
REMARK    3  A    between atoms: C3_4  and  N1_5 
REMARK    4  A    between atoms: C7_10  and  O3_11 
REMARK    5  A    between atoms: C13_18  and  N3_19 
REMARK    6  A    between atoms: C18_26  and  O4_27 
ROOT
HETATM    1  N1  UNL     1      24.644   3.695  50.110  1.00  0.00     0.095 N 
HETATM    2  C4  UNL     1      24.061   2.523  50.746  1.00  0.00     0.298 C 
HETATM    3  C5  UNL     1      24.536   2.398  52.154  1.00  0.00     0.198 C 
HETATM    4  O2  UNL     1      23.930   1.296  52.814  1.00  0.00    -0.383 OA
HETATM    5  C6  UNL     1      22.579   1.554  52.879  1.00  0.00     0.231 C 
HETATM    6  C7  UNL     1      21.847   0.411  53.497  1.00  0.00     0.066 C 
HETATM    7  C9  UNL     1      20.912  -0.186  52.719  1.00  0.00     0.012 C 
HETATM    8  C10 UNL     1      20.500   0.109  51.335  1.00  0.00     0.068 C 
HETATM    9  C11 UNL     1      19.116   0.622  51.208  1.00  0.00    -0.024 A 
HETATM   10  C12 UNL     1      18.543   1.679  50.591  1.00  0.00     0.128 A 
HETATM   11  N2  UNL     1      17.121   1.623  50.848  1.00  0.00    -0.218 NA
HETATM   12  C13 UNL     1      16.833   0.604  51.574  1.00  0.00     0.104 A 
HETATM   13  C14 UNL     1      18.057  -0.154  51.896  1.00  0.00     0.116 A 
HETATM   14  N4  UNL     1      19.021   2.787  49.787  1.00  0.00    -0.371 N 
HETATM   15  C15 UNL     1      20.174   2.762  48.932  1.00  0.00     0.150 C 
HETATM   16  C16 UNL     1      20.400   4.105  48.285  1.00  0.00     0.015 C 
HETATM   17  C17 UNL     1      21.475   4.908  48.525  1.00  0.00     0.040 C 
HETATM   18 CL1  UNL     1      22.077   6.447  48.000  1.00  0.00    -0.086 Cl
HETATM   19  C18 UNL     1      22.478   4.595  49.565  1.00  0.00     0.193 C 
HETATM   20  C20 UNL     1      23.800   4.165  49.025  1.00  0.00     0.310 C 
HETATM   21  H24 UNL     1      18.533   3.708  49.797  1.00  0.00     0.161 HD
ENDROOT
BRANCH   1  22
HETATM   22  C3  UNL     1      26.016   3.529  49.819  1.00  0.00     0.298 C 
BRANCH  22  23
HETATM   23  C2  UNL     1      26.688   4.618  49.056  1.00  0.00     0.197 C 
BRANCH  23  24
HETATM   24  O1  UNL     1      28.021   4.421  48.767  1.00  0.00    -0.394 OA
HETATM   25  C1  UNL     1      28.459   5.647  48.213  1.00  0.00     0.201 C 
ENDBRANCH  23  24
ENDBRANCH  22  23
ENDBRANCH   1  22
BRANCH  19  26
HETATM   26  O4  UNL     1      22.624   5.687  50.455  1.00  0.00    -0.383 OA
HETATM   27  C19 UNL     1      21.937   5.498  51.634  1.00  0.00     0.202 C 
ENDBRANCH  19  26
BRANCH   6  28
HETATM   28  O3  UNL     1      22.063  -0.052  54.766  1.00  0.00    -0.358 OA
HETATM   29  C8  UNL     1      22.744  -1.270  55.034  1.00  0.00     0.209 C 
ENDBRANCH   6  28
BRANCH  12  30
HETATM   30  N3  UNL     1      15.510   0.262  52.008  1.00  0.00    -0.387 N 
HETATM   31  H20 UNL     1      15.667  -0.117  52.977  1.00  0.00     0.157 HD
HETATM   32  H21 UNL     1      14.568   0.325  51.573  1.00  0.00     0.157 HD
ENDBRANCH  12  30
TORSDOF 6
ENDMDL
MODEL 6
REMARK VINA RESULT:      -6.6      3.147      4.900
REMARK  6 active torsions:
REMARK  status: ('A' for Active; 'I' for Inactive)
REMARK    1  A    between atoms: O1_2  and  C2_3 
REMARK    2  A    between atoms: C2_3  and  C3_4 
REMARK    3  A    between atoms: C3_4  and  N1_5 
REMARK    4  A    between atoms: C7_10  and  O3_11 
REMARK    5  A    between atoms: C13_18  and  N3_19 
REMARK    6  A    between atoms: C18_26  and  O4_27 
ROOT
HETATM    1  N1  UNL     1      21.989   1.779  51.772  1.00  0.00     0.095 N 
HETATM    2  C4  UNL     1      21.766   2.938  50.919  1.00  0.00     0.298 C 
HETATM    3  C5  UNL     1      20.737   3.839  51.516  1.00  0.00     0.198 C 
HETATM    4  O2  UNL     1      20.549   5.008  50.732  1.00  0.00    -0.383 OA
HETATM    5  C6  UNL     1      21.736   5.706  50.751  1.00  0.00     0.231 C 
HETATM    6  C7  UNL     1      21.655   6.920  49.890  1.00  0.00     0.066 C 
HETATM    7  C9  UNL     1      22.530   6.976  48.858  1.00  0.00     0.012 C 
HETATM    8  C10 UNL     1      23.561   6.012  48.433  1.00  0.00     0.068 C 
HETATM    9  C11 UNL     1      24.951   6.500  48.585  1.00  0.00    -0.024 A 
HETATM   10  C12 UNL     1      26.080   6.007  49.141  1.00  0.00     0.128 A 
HETATM   11  N2  UNL     1      27.127   6.987  48.957  1.00  0.00    -0.218 NA
HETATM   12  C13 UNL     1      26.680   8.015  48.331  1.00  0.00     0.104 A 
HETATM   13  C14 UNL     1      25.248   7.839  48.021  1.00  0.00     0.116 A 
HETATM   14  N4  UNL     1      26.435   4.790  49.845  1.00  0.00    -0.371 N 
HETATM   15  C15 UNL     1      25.830   3.504  49.646  1.00  0.00     0.150 C 
HETATM   16  C16 UNL     1      26.417   2.477  50.582  1.00  0.00     0.015 C 
HETATM   17  C17 UNL     1      25.728   1.859  51.582  1.00  0.00     0.040 C 
HETATM   18 CL1  UNL     1      26.027   0.670  52.809  1.00  0.00    -0.086 Cl
HETATM   19  C18 UNL     1      24.346   2.239  51.943  1.00  0.00     0.193 C 
HETATM   20  C20 UNL     1      23.317   1.231  51.557  1.00  0.00     0.310 C 
HETATM   21  H24 UNL     1      27.181   4.789  50.573  1.00  0.00     0.161 HD
ENDROOT
BRANCH   1  22
HETATM   22  C3  UNL     1      20.913   0.865  51.738  1.00  0.00     0.298 C 
BRANCH  22  23
HETATM   23  C2  UNL     1      20.448   0.312  53.040  1.00  0.00     0.197 C 
BRANCH  23  24
HETATM   24  O1  UNL     1      21.229   0.608  54.136  1.00  0.00    -0.394 OA
HETATM   25  C1  UNL     1      21.674  -0.648  54.616  1.00  0.00     0.201 C 
ENDBRANCH  23  24
ENDBRANCH  22  23
ENDBRANCH   1  22
BRANCH  19  26
HETATM   26  O4  UNL     1      24.263   2.549  53.322  1.00  0.00    -0.383 OA
HETATM   27  C19 UNL     1      24.167   3.903  53.552  1.00  0.00     0.202 C 
ENDBRANCH  19  26
BRANCH   6  28
HETATM   28  O3  UNL     1      20.772   7.947  50.082  1.00  0.00    -0.358 OA
HETATM   29  C8  UNL     1      19.668   8.182  49.220  1.00  0.00     0.209 C 
ENDBRANCH   6  28
BRANCH  12  30
HETATM   30  N3  UNL     1      27.464   9.164  47.990  1.00  0.00    -0.387 N 
HETATM   31  H20 UNL     1      28.031   9.334  48.862  1.00  0.00     0.157 HD
HETATM   32  H21 UNL     1      27.543   9.760  47.142  1.00  0.00     0.157 HD
ENDBRANCH  12  30
TORSDOF 6
ENDMDL
MODEL 7
REMARK VINA RESULT:      -6.4      3.025      8.187
REMARK  6 active torsions:
REMARK  status: ('A' for Active; 'I' for Inactive)
REMARK    1  A    between atoms: O1_2  and  C2_3 
REMARK    2  A    between atoms: C2_3  and  C3_4 
REMARK    3  A    between atoms: C3_4  and  N1_5 
REMARK    4  A    between atoms: C7_10  and  O3_11 
REMARK    5  A    between atoms: C13_18  and  N3_19 
REMARK    6  A    between atoms: C18_26  and  O4_27 
ROOT
HETATM    1  N1  UNL     1      20.878   5.218  50.072  1.00  0.00     0.095 N 
HETATM    2  C4  UNL     1      20.898   4.181  51.093  1.00  0.00     0.298 C 
HETATM    3  C5  UNL     1      19.732   3.264  50.934  1.00  0.00     0.198 C 
HETATM    4  O2  UNL     1      19.766   2.207  51.882  1.00  0.00    -0.383 OA
HETATM    5  C6  UNL     1      20.891   1.458  51.616  1.00  0.00     0.231 C 
HETATM    6  C7  UNL     1      21.049   0.360  52.613  1.00  0.00     0.066 C 
HETATM    7  C9  UNL     1      22.183   0.388  53.352  1.00  0.00     0.012 C 
HETATM    8  C10 UNL     1      23.302   1.347  53.339  1.00  0.00     0.068 C 
HETATM    9  C11 UNL     1      24.585   0.781  52.861  1.00  0.00    -0.024 A 
HETATM   10  C12 UNL     1      25.510   1.151  51.949  1.00  0.00     0.128 A 
HETATM   11  N2  UNL     1      26.557   0.154  51.951  1.00  0.00    -0.218 NA
HETATM   12  C13 UNL     1      26.299  -0.770  52.805  1.00  0.00     0.104 A 
HETATM   13  C14 UNL     1      25.019  -0.492  53.484  1.00  0.00     0.116 A 
HETATM   14  N4  UNL     1      25.661   2.258  51.023  1.00  0.00    -0.371 N 
HETATM   15  C15 UNL     1      25.151   3.585  51.219  1.00  0.00     0.150 C 
HETATM   16  C16 UNL     1      25.454   4.464  50.032  1.00  0.00     0.015 C 
HETATM   17  C17 UNL     1      24.512   4.989  49.198  1.00  0.00     0.040 C 
HETATM   18 CL1  UNL     1      24.456   6.007  47.795  1.00  0.00    -0.086 Cl
HETATM   19  C18 UNL     1      23.081   4.632  49.298  1.00  0.00     0.193 C 
HETATM   20  C20 UNL     1      22.216   5.726  49.828  1.00  0.00     0.310 C 
HETATM   21  H24 UNL     1      26.164   2.137  50.119  1.00  0.00     0.161 HD
ENDROOT
BRANCH   1  22
HETATM   22  C3  UNL     1      19.866   6.179  50.293  1.00  0.00     0.298 C 
BRANCH  22  23
HETATM   23  C2  UNL     1      19.857   7.375  49.406  1.00  0.00     0.197 C 
BRANCH  23  24
HETATM   24  O1  UNL     1      20.059   8.589  50.027  1.00  0.00    -0.394 OA
HETATM   25  C1  UNL     1      20.991   9.268  49.205  1.00  0.00     0.201 C 
ENDBRANCH  23  24
ENDBRANCH  22  23
ENDBRANCH   1  22
BRANCH  19  26
HETATM   26  O4  UNL     1      22.601   4.164  48.050  1.00  0.00    -0.383 OA
HETATM   27  C19 UNL     1      22.566   2.789  47.984  1.00  0.00     0.202 C 
ENDBRANCH  19  26
BRANCH   6  28
HETATM   28  O3  UNL     1      20.138  -0.641  52.813  1.00  0.00    -0.358 OA
HETATM   29  C8  UNL     1      20.186  -1.510  53.935  1.00  0.00     0.209 C 
ENDBRANCH   6  28
BRANCH  12  30
HETATM   30  N3  UNL     1      27.137  -1.906  53.053  1.00  0.00    -0.387 N 
HETATM   31  H20 UNL     1      27.790  -1.561  53.804  1.00  0.00     0.157 HD
HETATM   32  H21 UNL     1      27.185  -2.868  52.662  1.00  0.00     0.157 HD
ENDBRANCH  12  30
TORSDOF 6
ENDMDL
MODEL 8
REMARK VINA RESULT:      -6.3      2.305      2.867
REMARK  6 active torsions:
REMARK  status: ('A' for Active; 'I' for Inactive)
REMARK    1  A    between atoms: O1_2  and  C2_3 
REMARK    2  A    between atoms: C2_3  and  C3_4 
REMARK    3  A    between atoms: C3_4  and  N1_5 
REMARK    4  A    between atoms: C7_10  and  O3_11 
REMARK    5  A    between atoms: C13_18  and  N3_19 
REMARK    6  A    between atoms: C18_26  and  O4_27 
ROOT
HETATM    1  N1  UNL     1      21.944   0.891  52.369  1.00  0.00     0.095 N 
HETATM    2  C4  UNL     1      22.492   2.238  52.319  1.00  0.00     0.298 C 
HETATM    3  C5  UNL     1      23.917   2.210  51.877  1.00  0.00     0.198 C 
HETATM    4  O2  UNL     1      24.454   3.519  51.760  1.00  0.00    -0.383 OA
HETATM    5  C6  UNL     1      23.750   4.160  50.765  1.00  0.00     0.231 C 
HETATM    6  C7  UNL     1      24.200   5.574  50.620  1.00  0.00     0.066 C 
HETATM    7  C9  UNL     1      23.257   6.522  50.834  1.00  0.00     0.012 C 
HETATM    8  C10 UNL     1      21.837   6.383  51.202  1.00  0.00     0.068 C 
HETATM    9  C11 UNL     1      20.888   6.823  50.153  1.00  0.00    -0.024 A 
HETATM   10  C12 UNL     1      19.801   6.281  49.562  1.00  0.00     0.128 A 
HETATM   11  N2  UNL     1      19.305   7.232  48.592  1.00  0.00    -0.218 NA
HETATM   12  C13 UNL     1      20.034   8.289  48.582  1.00  0.00     0.104 A 
HETATM   13  C14 UNL     1      21.128   8.162  49.564  1.00  0.00     0.116 A 
HETATM   14  N4  UNL     1      19.080   5.028  49.681  1.00  0.00    -0.371 N 
HETATM   15  C15 UNL     1      18.974   4.236  50.872  1.00  0.00     0.150 C 
HETATM   16  C16 UNL     1      18.188   2.974  50.617  1.00  0.00     0.015 C 
HETATM   17  C17 UNL     1      18.707   1.714  50.676  1.00  0.00     0.040 C 
HETATM   18 CL1  UNL     1      18.156   0.083  50.468  1.00  0.00    -0.086 Cl
HETATM   19  C18 UNL     1      20.150   1.462  50.867  1.00  0.00     0.193 C 
HETATM   20  C20 UNL     1      20.500   0.917  52.211  1.00  0.00     0.310 C 
HETATM   21  H24 UNL     1      18.584   4.614  48.862  1.00  0.00     0.161 HD
ENDROOT
BRANCH   1  22
HETATM   22  C3  UNL     1      22.449   0.139  53.452  1.00  0.00     0.298 C 
BRANCH  22  23
HETATM   23  C2  UNL     1      21.485  -0.250  54.520  1.00  0.00     0.197 C 
BRANCH  23  24
HETATM   24  O1  UNL     1      21.772  -1.414  55.199  1.00  0.00    -0.394 OA
HETATM   25  C1  UNL     1      23.172  -1.378  55.407  1.00  0.00     0.201 C 
ENDBRANCH  23  24
ENDBRANCH  22  23
ENDBRANCH   1  22
BRANCH  19  26
HETATM   26  O4  UNL     1      20.647   0.629  49.835  1.00  0.00    -0.383 OA
HETATM   27  C19 UNL     1      21.213   1.348  48.806  1.00  0.00     0.202 C 
ENDBRANCH  19  26
BRANCH   6  28
HETATM   28  O3  UNL     1      25.473   5.952  50.292  1.00  0.00    -0.358 OA
HETATM   29  C8  UNL     1      25.843   7.307  50.084  1.00  0.00     0.209 C 
ENDBRANCH   6  28
BRANCH  12  30
HETATM   30  N3  UNL     1      19.811   9.422  47.734  1.00  0.00    -0.387 N 
HETATM   31  H20 UNL     1      19.017   9.924  48.209  1.00  0.00     0.157 HD
HETATM   32  H21 UNL     1      20.251   9.767  46.857  1.00  0.00     0.157 HD
ENDBRANCH  12  30
TORSDOF 6
ENDMDL
MODEL 9
REMARK VINA RESULT:      -6.0      3.384      5.504
REMARK  6 active torsions:
REMARK  status: ('A' for Active; 'I' for Inactive)
REMARK    1  A    between atoms: O1_2  and  C2_3 
REMARK    2  A    between atoms: C2_3  and  C3_4 
REMARK    3  A    between atoms: C3_4  and  N1_5 
REMARK    4  A    between atoms: C7_10  and  O3_11 
REMARK    5  A    between atoms: C13_18  and  N3_19 
REMARK    6  A    between atoms: C18_26  and  O4_27 
ROOT
HETATM    1  N1  UNL     1      21.831   3.394  49.656  1.00  0.00     0.095 N 
HETATM    2  C4  UNL     1      21.872   4.730  49.079  1.00  0.00     0.298 C 
HETATM    3  C5  UNL     1      20.739   5.556  49.587  1.00  0.00     0.198 C 
HETATM    4  O2  UNL     1      20.796   6.885  49.087  1.00  0.00    -0.383 OA
HETATM    5  C6  UNL     1      21.948   7.456  49.580  1.00  0.00     0.231 C 
HETATM    6  C7  UNL     1      22.130   8.836  49.046  1.00  0.00     0.066 C 
HETATM    7  C9  UNL     1      23.253   9.049  48.321  1.00  0.00     0.012 C 
HETATM    8  C10 UNL     1      24.340   8.122  47.959  1.00  0.00     0.068 C 
HETATM    9  C11 UNL     1      25.647   8.442  48.579  1.00  0.00    -0.024 A 
HETATM   10  C12 UNL     1      26.571   7.742  49.273  1.00  0.00     0.128 A 
HETATM   11  N2  UNL     1      27.650   8.644  49.608  1.00  0.00    -0.218 NA
HETATM   12  C13 UNL     1      27.411   9.822  49.154  1.00  0.00     0.104 A 
HETATM   13  C14 UNL     1      26.115   9.843  48.450  1.00  0.00     0.116 A 
HETATM   14  N4  UNL     1      26.696   6.371  49.730  1.00  0.00    -0.371 N 
HETATM   15  C15 UNL     1      26.140   5.220  49.078  1.00  0.00     0.150 C 
HETATM   16  C16 UNL     1      26.429   3.962  49.858  1.00  0.00     0.015 C 
HETATM   17  C17 UNL     1      25.481   3.194  50.467  1.00  0.00     0.040 C 
HETATM   18 CL1  UNL     1      25.409   1.738  51.406  1.00  0.00    -0.086 Cl
HETATM   19  C18 UNL     1      24.061   3.600  50.537  1.00  0.00     0.193 C 
HETATM   20  C20 UNL     1      23.155   2.797  49.667  1.00  0.00     0.310 C 
HETATM   21  H24 UNL     1      27.215   6.142  50.604  1.00  0.00     0.161 HD
ENDROOT
BRANCH   1  22
HETATM   22  C3  UNL     1      20.785   2.606  49.125  1.00  0.00     0.298 C 
BRANCH  22  23
HETATM   23  C2  UNL     1      19.958   1.831  50.091  1.00  0.00     0.197 C 
BRANCH  23  24
HETATM   24  O1  UNL     1      20.478   0.621  50.498  1.00  0.00    -0.394 OA
HETATM   25  C1  UNL     1      20.650   0.750  51.897  1.00  0.00     0.201 C 
ENDBRANCH  23  24
ENDBRANCH  22  23
ENDBRANCH   1  22
BRANCH  19  26
HETATM   26  O4  UNL     1      23.613   3.596  51.881  1.00  0.00    -0.383 OA
HETATM   27  C19 UNL     1      23.512   4.865  52.405  1.00  0.00     0.202 C 
ENDBRANCH  19  26
BRANCH   6  28
HETATM   28  O3  UNL     1      21.250   9.865  49.244  1.00  0.00    -0.358 OA
HETATM   29  C8  UNL     1      21.194  11.002  48.394  1.00  0.00     0.209 C 
ENDBRANCH   6  28
BRANCH  12  30
HETATM   30  N3  UNL     1      28.283  10.947  49.315  1.00  0.00    -0.387 N 
HETATM   31  H20 UNL     1      27.661  11.669  49.765  1.00  0.00     0.157 HD
HETATM   32  H21 UNL     1      29.282  11.126  49.089  1.00  0.00     0.157 HD
ENDBRANCH  12  30
TORSDOF 6
ENDMDL
