MODEL 1
REMARK VINA RESULT:      -6.9      0.000      0.000
REMARK  6 active torsions:
REMARK  status: ('A' for Active; 'I' for Inactive)
REMARK    1  A    between atoms: C2_2  and  C3_3 
REMARK    2  A    between atoms: C2_2  and  C6_8 
REMARK    3  A    between atoms: C3_3  and  N1_4 
REMARK    4  A    between atoms: C13_17  and  C14_18 
REMARK    5  A    between atoms: C14_18  and  C15_19 
REMARK    6  A    between atoms: C15_19  and  N4_20 
ROOT
HETATM    1  N1  UNL     1      21.683   1.411  50.458  1.00  0.00    -0.374 N 
HETATM    2  C4  UNL     1      20.946   1.331  49.212  1.00  0.00     0.150 C 
HETATM    3  C5  UNL     1      20.799   1.180  51.577  1.00  0.00     0.471 C 
HETATM    4  O1  UNL     1      20.093   0.987  52.598  1.00  0.00    -0.392 OA
ENDROOT
BRANCH   1   5
HETATM    5  C3  UNL     1      23.053   1.656  50.787  1.00  0.00     0.132 C 
BRANCH   5   6
HETATM    6  C2  UNL     1      23.230   1.967  52.278  1.00  0.00     0.033 C 
HETATM    7  C1  UNL     1      23.393   3.453  52.463  1.00  0.00     0.017 C 
BRANCH   6   8
HETATM    8  C6  UNL     1      24.459   1.286  52.746  1.00  0.00    -0.046 C 
HETATM    9  C7  UNL     1      25.752   1.694  52.687  1.00  0.00     0.010 C 
HETATM   10  C8  UNL     1      26.955   1.020  53.289  1.00  0.00     0.091 C 
HETATM   11  C9  UNL     1      27.980   1.890  53.723  1.00  0.00     0.078 C 
HETATM   12  C10 UNL     1      27.420  -0.192  52.567  1.00  0.00     0.019 C 
HETATM   13  C16 UNL     1      26.285   0.415  54.575  1.00  0.00     0.090 C 
HETATM   14  N2  UNL     1      28.807   2.610  54.068  1.00  0.00    -0.196 NA
HETATM   15  C11 UNL     1      27.067  -1.505  52.659  1.00  0.00     0.086 C 
HETATM   16  N3  UNL     1      25.809  -1.820  53.354  1.00  0.00    -0.369 N 
HETATM   17  C12 UNL     1      25.332  -0.486  53.749  1.00  0.00     0.018 C 
HETATM   18  H14 UNL     1      25.116  -2.533  53.659  1.00  0.00     0.165 HD
HETATM   19  C13 UNL     1      24.099  -0.017  53.360  1.00  0.00    -0.027 C 
BRANCH  19  20
HETATM   20  C14 UNL     1      22.982  -0.889  53.594  1.00  0.00     0.070 C 
BRANCH  20  21
HETATM   21  C15 UNL     1      22.325  -0.867  54.951  1.00  0.00     0.271 C 
BRANCH  21  22
HETATM   22  N4  UNL     1      20.901  -1.182  54.665  1.00  0.00     0.078 N 
HETATM   23  H19 UNL     1      20.410  -1.481  55.527  1.00  0.00     0.312 HD
HETATM   24  H20 UNL     1      20.436  -0.372  54.190  1.00  0.00     0.312 HD
ENDBRANCH  21  22
ENDBRANCH  20  21
ENDBRANCH  19  20
ENDBRANCH   6   8
ENDBRANCH   5   6
ENDBRANCH   1   5
TORSDOF 6
ENDMDL
MODEL 2
REMARK VINA RESULT:      -6.7      2.677      6.306
REMARK  6 active torsions:
REMARK  status: ('A' for Active; 'I' for Inactive)
REMARK    1  A    between atoms: C2_2  and  C3_3 
REMARK    2  A    between atoms: C2_2  and  C6_8 
REMARK    3  A    between atoms: C3_3  and  N1_4 
REMARK    4  A    between atoms: C13_17  and  C14_18 
REMARK    5  A    between atoms: C14_18  and  C15_19 
REMARK    6  A    between atoms: C15_19  and  N4_20 
ROOT
HETATM    1  N1  UNL     1      27.561  -0.465  53.145  1.00  0.00    -0.374 N 
HETATM    2  C4  UNL     1      28.399   0.676  53.454  1.00  0.00     0.150 C 
HETATM    3  C5  UNL     1      28.327  -1.687  53.234  1.00  0.00     0.471 C 
HETATM    4  O1  UNL     1      28.927  -2.790  53.293  1.00  0.00    -0.392 OA
ENDROOT
BRANCH   1   5
HETATM    5  C3  UNL     1      26.183  -0.618  52.791  1.00  0.00     0.132 C 
BRANCH   5   6
HETATM    6  C2  UNL     1      25.259   0.075  53.798  1.00  0.00     0.033 C 
HETATM    7  C1  UNL     1      24.899  -0.893  54.895  1.00  0.00     0.017 C 
BRANCH   6   8
HETATM    8  C6  UNL     1      24.023   0.476  53.086  1.00  0.00    -0.046 C 
HETATM    9  C7  UNL     1      22.841  -0.179  52.967  1.00  0.00     0.010 C 
HETATM   10  C8  UNL     1      21.572   0.328  52.336  1.00  0.00     0.091 C 
HETATM   11  C9  UNL     1      20.377  -0.147  52.921  1.00  0.00     0.078 C 
HETATM   12  C10 UNL     1      21.580   0.357  50.851  1.00  0.00     0.019 C 
HETATM   13  C16 UNL     1      21.698   1.850  52.709  1.00  0.00     0.090 C 
HETATM   14  N2  UNL     1      19.413  -0.544  53.404  1.00  0.00    -0.196 NA
HETATM   15  C11 UNL     1      21.993   1.298  49.956  1.00  0.00     0.086 C 
HETATM   16  N3  UNL     1      22.868   2.370  50.456  1.00  0.00    -0.369 N 
HETATM   17  C12 UNL     1      22.996   2.025  51.880  1.00  0.00     0.018 C 
HETATM   18  H14 UNL     1      23.438   3.217  50.260  1.00  0.00     0.165 HD
HETATM   19  C13 UNL     1      24.223   1.808  52.462  1.00  0.00    -0.027 C 
BRANCH  19  20
HETATM   20  C14 UNL     1      25.222   2.817  52.240  1.00  0.00     0.070 C 
BRANCH  20  21
HETATM   21  C15 UNL     1      26.232   2.598  51.143  1.00  0.00     0.271 C 
BRANCH  21  22
HETATM   22  N4  UNL     1      26.372   3.937  50.513  1.00  0.00     0.078 N 
HETATM   23  H19 UNL     1      26.028   3.921  49.535  1.00  0.00     0.312 HD
HETATM   24  H20 UNL     1      25.903   4.668  51.099  1.00  0.00     0.312 HD
ENDBRANCH  21  22
ENDBRANCH  20  21
ENDBRANCH  19  20
ENDBRANCH   6   8
ENDBRANCH   5   6
ENDBRANCH   1   5
TORSDOF 6
ENDMDL
MODEL 3
REMARK VINA RESULT:      -6.7      1.221      1.280
REMARK  6 active torsions:
REMARK  status: ('A' for Active; 'I' for Inactive)
REMARK    1  A    between atoms: C2_2  and  C3_3 
REMARK    2  A    between atoms: C2_2  and  C6_8 
REMARK    3  A    between atoms: C3_3  and  N1_4 
REMARK    4  A    between atoms: C13_17  and  C14_18 
REMARK    5  A    between atoms: C14_18  and  C15_19 
REMARK    6  A    between atoms: C15_19  and  N4_20 
ROOT
HETATM    1  N1  UNL     1      23.118   2.521  49.665  1.00  0.00    -0.374 N 
HETATM    2  C4  UNL     1      22.686   3.207  48.464  1.00  0.00     0.150 C 
HETATM    3  C5  UNL     1      22.183   1.474  50.008  1.00  0.00     0.471 C 
HETATM    4  O1  UNL     1      21.416   0.546  50.367  1.00  0.00    -0.392 OA
ENDROOT
BRANCH   1   5
HETATM    5  C3  UNL     1      24.242   2.662  50.539  1.00  0.00     0.132 C 
BRANCH   5   6
HETATM    6  C2  UNL     1      23.863   2.379  51.998  1.00  0.00     0.033 C 
HETATM    7  C1  UNL     1      23.749   3.682  52.746  1.00  0.00     0.017 C 
BRANCH   6   8
HETATM    8  C6  UNL     1      24.946   1.570  52.603  1.00  0.00    -0.046 C 
HETATM    9  C7  UNL     1      26.272   1.836  52.707  1.00  0.00     0.010 C 
HETATM   10  C8  UNL     1      27.313   1.037  53.444  1.00  0.00     0.091 C 
HETATM   11  C9  UNL     1      28.364   1.792  54.010  1.00  0.00     0.078 C 
HETATM   12  C10 UNL     1      27.730  -0.219  52.770  1.00  0.00     0.019 C 
HETATM   13  C16 UNL     1      26.429   0.510  54.632  1.00  0.00     0.090 C 
HETATM   14  N2  UNL     1      29.215   2.418  54.461  1.00  0.00    -0.196 NA
HETATM   15  C11 UNL     1      27.229  -1.487  52.803  1.00  0.00     0.086 C 
HETATM   16  N3  UNL     1      25.868  -1.663  53.335  1.00  0.00    -0.369 N 
HETATM   17  C12 UNL     1      25.493  -0.284  53.685  1.00  0.00     0.018 C 
HETATM   18  H14 UNL     1      25.070  -2.296  53.545  1.00  0.00     0.165 HD
HETATM   19  C13 UNL     1      24.375   0.315  53.154  1.00  0.00    -0.027 C 
BRANCH  19  20
HETATM   20  C14 UNL     1      23.150  -0.430  53.240  1.00  0.00     0.070 C 
BRANCH  20  21
HETATM   21  C15 UNL     1      22.109   0.010  54.238  1.00  0.00     0.271 C 
BRANCH  21  22
HETATM   22  N4  UNL     1      21.060   0.649  53.401  1.00  0.00     0.078 N 
HETATM   23  H19 UNL     1      20.113   0.402  53.745  1.00  0.00     0.312 HD
HETATM   24  H20 UNL     1      21.216   1.684  53.345  1.00  0.00     0.312 HD
ENDBRANCH  21  22
ENDBRANCH  20  21
ENDBRANCH  19  20
ENDBRANCH   6   8
ENDBRANCH   5   6
ENDBRANCH   1   5
TORSDOF 6
ENDMDL
MODEL 4
REMARK VINA RESULT:      -6.3      2.311      5.326
REMARK  6 active torsions:
REMARK  status: ('A' for Active; 'I' for Inactive)
REMARK    1  A    between atoms: C2_2  and  C3_3 
REMARK    2  A    between atoms: C2_2  and  C6_8 
REMARK    3  A    between atoms: C3_3  and  N1_4 
REMARK    4  A    between atoms: C13_17  and  C14_18 
REMARK    5  A    between atoms: C14_18  and  C15_19 
REMARK    6  A    between atoms: C15_19  and  N4_20 
ROOT
HETATM    1  N1  UNL     1      26.784   0.479  54.712  1.00  0.00    -0.374 N 
HETATM    2  C4  UNL     1      28.203   0.305  54.951  1.00  0.00     0.150 C 
HETATM    3  C5  UNL     1      26.021  -0.408  55.561  1.00  0.00     0.471 C 
HETATM    4  O1  UNL     1      25.292  -1.148  56.267  1.00  0.00    -0.392 OA
ENDROOT
BRANCH   1   5
HETATM    5  C3  UNL     1      26.019   1.322  53.846  1.00  0.00     0.132 C 
BRANCH   5   6
HETATM    6  C2  UNL     1      25.389   0.528  52.696  1.00  0.00     0.033 C 
HETATM    7  C1  UNL     1      26.427   0.278  51.632  1.00  0.00     0.017 C 
BRANCH   6   8
HETATM    8  C6  UNL     1      24.296   1.345  52.119  1.00  0.00    -0.046 C 
HETATM    9  C7  UNL     1      24.351   2.550  51.499  1.00  0.00     0.010 C 
HETATM   10  C8  UNL     1      23.226   3.283  50.818  1.00  0.00     0.091 C 
HETATM   11  C9  UNL     1      23.603   4.065  49.703  1.00  0.00     0.078 C 
HETATM   12  C10 UNL     1      22.250   3.924  51.737  1.00  0.00     0.019 C 
HETATM   13  C16 UNL     1      22.420   2.050  50.270  1.00  0.00     0.090 C 
HETATM   14  N2  UNL     1      23.924   4.699  48.801  1.00  0.00    -0.196 NA
HETATM   15  C11 UNL     1      21.122   3.459  52.343  1.00  0.00     0.086 C 
HETATM   16  N3  UNL     1      20.929   2.000  52.388  1.00  0.00    -0.369 N 
HETATM   17  C12 UNL     1      22.128   1.509  51.692  1.00  0.00     0.018 C 
HETATM   18  H14 UNL     1      20.361   1.187  52.701  1.00  0.00     0.165 HD
HETATM   19  C13 UNL     1      23.004   0.636  52.293  1.00  0.00    -0.027 C 
BRANCH  19  20
HETATM   20  C14 UNL     1      22.426  -0.534  52.895  1.00  0.00     0.070 C 
BRANCH  20  21
HETATM   21  C15 UNL     1      22.323  -0.593  54.398  1.00  0.00     0.271 C 
BRANCH  21  22
HETATM   22  N4  UNL     1      20.974  -1.167  54.642  1.00  0.00     0.078 N 
HETATM   23  H19 UNL     1      20.300  -0.842  53.924  1.00  0.00     0.312 HD
HETATM   24  H20 UNL     1      21.028  -2.212  54.707  1.00  0.00     0.312 HD
ENDBRANCH  21  22
ENDBRANCH  20  21
ENDBRANCH  19  20
ENDBRANCH   6   8
ENDBRANCH   5   6
ENDBRANCH   1   5
TORSDOF 6
ENDMDL
MODEL 5
REMARK VINA RESULT:      -6.2      2.928      4.854
REMARK  6 active torsions:
REMARK  status: ('A' for Active; 'I' for Inactive)
REMARK    1  A    between atoms: C2_2  and  C3_3 
REMARK    2  A    between atoms: C2_2  and  C6_8 
REMARK    3  A    between atoms: C3_3  and  N1_4 
REMARK    4  A    between atoms: C13_17  and  C14_18 
REMARK    5  A    between atoms: C14_18  and  C15_19 
REMARK    6  A    between atoms: C15_19  and  N4_20 
ROOT
HETATM    1  N1  UNL     1      22.569   5.104  50.669  1.00  0.00    -0.374 N 
HETATM    2  C4  UNL     1      21.712   5.222  49.506  1.00  0.00     0.150 C 
HETATM    3  C5  UNL     1      23.230   6.361  50.933  1.00  0.00     0.471 C 
HETATM    4  O1  UNL     1      23.839   7.421  51.226  1.00  0.00    -0.392 OA
ENDROOT
BRANCH   1   5
HETATM    5  C3  UNL     1      22.874   4.038  51.573  1.00  0.00     0.132 C 
BRANCH   5   6
HETATM    6  C2  UNL     1      23.365   2.790  50.832  1.00  0.00     0.033 C 
HETATM    7  C1  UNL     1      22.255   1.771  50.779  1.00  0.00     0.017 C 
BRANCH   6   8
HETATM    8  C6  UNL     1      24.502   2.222  51.592  1.00  0.00    -0.046 C 
HETATM    9  C7  UNL     1      24.506   1.538  52.764  1.00  0.00     0.010 C 
HETATM   10  C8  UNL     1      25.678   0.873  53.434  1.00  0.00     0.091 C 
HETATM   11  C9  UNL     1      25.372  -0.297  54.164  1.00  0.00     0.078 C 
HETATM   12  C10 UNL     1      26.627   1.802  54.100  1.00  0.00     0.019 C 
HETATM   13  C16 UNL     1      26.477   0.428  52.156  1.00  0.00     0.090 C 
HETATM   14  N2  UNL     1      25.107  -1.245  54.757  1.00  0.00    -0.196 NA
HETATM   15  C11 UNL     1      27.715   2.484  53.643  1.00  0.00     0.086 C 
HETATM   16  N3  UNL     1      27.869   2.613  52.185  1.00  0.00    -0.369 N 
HETATM   17  C12 UNL     1      26.690   1.889  51.685  1.00  0.00     0.018 C 
HETATM   18  H14 UNL     1      28.401   2.994  51.377  1.00  0.00     0.165 HD
HETATM   19  C13 UNL     1      25.767   2.493  50.864  1.00  0.00    -0.027 C 
BRANCH  19  20
HETATM   20  C14 UNL     1      26.288   3.181  49.715  1.00  0.00     0.070 C 
BRANCH  20  21
HETATM   21  C15 UNL     1      26.183   4.684  49.669  1.00  0.00     0.271 C 
BRANCH  21  22
HETATM   22  N4  UNL     1      27.547   5.125  49.274  1.00  0.00     0.078 N 
HETATM   23  H19 UNL     1      28.066   4.352  48.818  1.00  0.00     0.312 HD
HETATM   24  H20 UNL     1      27.495   5.988  48.682  1.00  0.00     0.312 HD
ENDBRANCH  21  22
ENDBRANCH  20  21
ENDBRANCH  19  20
ENDBRANCH   6   8
ENDBRANCH   5   6
ENDBRANCH   1   5
TORSDOF 6
ENDMDL
MODEL 6
REMARK VINA RESULT:      -6.1      2.618      6.124
REMARK  6 active torsions:
REMARK  status: ('A' for Active; 'I' for Inactive)
REMARK    1  A    between atoms: C2_2  and  C3_3 
REMARK    2  A    between atoms: C2_2  and  C6_8 
REMARK    3  A    between atoms: C3_3  and  N1_4 
REMARK    4  A    between atoms: C13_17  and  C14_18 
REMARK    5  A    between atoms: C14_18  and  C15_19 
REMARK    6  A    between atoms: C15_19  and  N4_20 
ROOT
HETATM    1  N1  UNL     1      26.550   1.759  51.857  1.00  0.00    -0.374 N 
HETATM    2  C4  UNL     1      26.765   2.633  50.721  1.00  0.00     0.150 C 
HETATM    3  C5  UNL     1      27.423   2.132  52.947  1.00  0.00     0.471 C 
HETATM    4  O1  UNL     1      28.149   2.397  53.937  1.00  0.00    -0.392 OA
ENDROOT
BRANCH   1   5
HETATM    5  C3  UNL     1      25.679   0.653  52.107  1.00  0.00     0.132 C 
BRANCH   5   6
HETATM    6  C2  UNL     1      24.771   0.909  53.315  1.00  0.00     0.033 C 
HETATM    7  C1  UNL     1      24.853  -0.263  54.259  1.00  0.00     0.017 C 
BRANCH   6   8
HETATM    8  C6  UNL     1      23.379   1.035  52.825  1.00  0.00    -0.046 C 
HETATM    9  C7  UNL     1      22.395   0.103  52.763  1.00  0.00     0.010 C 
HETATM   10  C8  UNL     1      20.957   0.313  52.371  1.00  0.00     0.091 C 
HETATM   11  C9  UNL     1      20.025  -0.521  53.027  1.00  0.00     0.078 C 
HETATM   12  C10 UNL     1      20.725   0.495  50.915  1.00  0.00     0.019 C 
HETATM   13  C16 UNL     1      20.754   1.767  52.933  1.00  0.00     0.090 C 
HETATM   14  N2  UNL     1      19.278  -1.209  53.566  1.00  0.00    -0.196 NA
HETATM   15  C11 UNL     1      20.746   1.598  50.115  1.00  0.00     0.086 C 
HETATM   16  N3  UNL     1      21.391   2.808  50.647  1.00  0.00    -0.369 N 
HETATM   17  C12 UNL     1      21.822   2.367  51.983  1.00  0.00     0.018 C 
HETATM   18  H14 UNL     1      21.693   3.793  50.502  1.00  0.00     0.165 HD
HETATM   19  C13 UNL     1      23.139   2.428  52.373  1.00  0.00    -0.027 C 
BRANCH  19  20
HETATM   20  C14 UNL     1      23.806   3.685  52.171  1.00  0.00     0.070 C 
BRANCH  20  21
HETATM   21  C15 UNL     1      23.356   4.875  52.978  1.00  0.00     0.271 C 
BRANCH  21  22
HETATM   22  N4  UNL     1      23.984   6.033  52.289  1.00  0.00     0.078 N 
HETATM   23  H19 UNL     1      24.156   5.817  51.290  1.00  0.00     0.312 HD
HETATM   24  H20 UNL     1      23.407   6.897  52.427  1.00  0.00     0.312 HD
ENDBRANCH  21  22
ENDBRANCH  20  21
ENDBRANCH  19  20
ENDBRANCH   6   8
ENDBRANCH   5   6
ENDBRANCH   1   5
TORSDOF 6
ENDMDL
MODEL 7
REMARK VINA RESULT:      -5.8      2.530      5.139
REMARK  6 active torsions:
REMARK  status: ('A' for Active; 'I' for Inactive)
REMARK    1  A    between atoms: C2_2  and  C3_3 
REMARK    2  A    between atoms: C2_2  and  C6_8 
REMARK    3  A    between atoms: C3_3  and  N1_4 
REMARK    4  A    between atoms: C13_17  and  C14_18 
REMARK    5  A    between atoms: C14_18  and  C15_19 
REMARK    6  A    between atoms: C15_19  and  N4_20 
ROOT
HETATM    1  N1  UNL     1      23.102   5.083  51.461  1.00  0.00    -0.374 N 
HETATM    2  C4  UNL     1      22.094   4.907  50.435  1.00  0.00     0.150 C 
HETATM    3  C5  UNL     1      23.956   6.203  51.136  1.00  0.00     0.471 C 
HETATM    4  O1  UNL     1      24.737   7.163  50.921  1.00  0.00    -0.392 OA
ENDROOT
BRANCH   1   5
HETATM    5  C3  UNL     1      23.405   4.403  52.682  1.00  0.00     0.132 C 
BRANCH   5   6
HETATM    6  C2  UNL     1      24.233   3.137  52.435  1.00  0.00     0.033 C 
HETATM    7  C1  UNL     1      24.679   3.104  50.996  1.00  0.00     0.017 C 
BRANCH   6   8
HETATM    8  C6  UNL     1      23.367   1.964  52.697  1.00  0.00    -0.046 C 
HETATM    9  C7  UNL     1      22.020   1.843  52.600  1.00  0.00     0.010 C 
HETATM   10  C8  UNL     1      21.197   0.592  52.757  1.00  0.00     0.091 C 
HETATM   11  C9  UNL     1      20.033   0.532  51.960  1.00  0.00     0.078 C 
HETATM   12  C10 UNL     1      21.027   0.128  54.158  1.00  0.00     0.019 C 
HETATM   13  C16 UNL     1      22.215  -0.452  52.172  1.00  0.00     0.090 C 
HETATM   14  N2  UNL     1      19.087   0.498  51.308  1.00  0.00    -0.196 NA
HETATM   15  C11 UNL     1      21.783  -0.682  54.953  1.00  0.00     0.086 C 
HETATM   16  N3  UNL     1      23.169  -0.940  54.531  1.00  0.00    -0.369 N 
HETATM   17  C12 UNL     1      23.261  -0.170  53.281  1.00  0.00     0.018 C 
HETATM   18  H14 UNL     1      24.089  -1.385  54.724  1.00  0.00     0.165 HD
HETATM   19  C13 UNL     1      24.208   0.811  53.107  1.00  0.00    -0.027 C 
BRANCH  19  20
HETATM   20  C14 UNL     1      25.564   0.450  53.414  1.00  0.00     0.070 C 
BRANCH  20  21
HETATM   21  C15 UNL     1      26.313  -0.426  52.442  1.00  0.00     0.271 C 
BRANCH  21  22
HETATM   22  N4  UNL     1      26.828  -1.536  53.285  1.00  0.00     0.078 N 
HETATM   23  H19 UNL     1      26.112  -1.842  53.969  1.00  0.00     0.312 HD
HETATM   24  H20 UNL     1      27.179  -2.319  52.684  1.00  0.00     0.312 HD
ENDBRANCH  21  22
ENDBRANCH  20  21
ENDBRANCH  19  20
ENDBRANCH   6   8
ENDBRANCH   5   6
ENDBRANCH   1   5
TORSDOF 6
ENDMDL
MODEL 8
REMARK VINA RESULT:      -5.6      2.311      6.366
REMARK  6 active torsions:
REMARK  status: ('A' for Active; 'I' for Inactive)
REMARK    1  A    between atoms: C2_2  and  C3_3 
REMARK    2  A    between atoms: C2_2  and  C6_8 
REMARK    3  A    between atoms: C3_3  and  N1_4 
REMARK    4  A    between atoms: C13_17  and  C14_18 
REMARK    5  A    between atoms: C14_18  and  C15_19 
REMARK    6  A    between atoms: C15_19  and  N4_20 
ROOT
HETATM    1  N1  UNL     1      24.492  -0.848  54.263  1.00  0.00    -0.374 N 
HETATM    2  C4  UNL     1      24.690  -1.116  55.674  1.00  0.00     0.150 C 
HETATM    3  C5  UNL     1      25.756  -0.556  53.627  1.00  0.00     0.471 C 
HETATM    4  O1  UNL     1      26.816  -0.294  53.006  1.00  0.00    -0.392 OA
ENDROOT
BRANCH   1   5
HETATM    5  C3  UNL     1      23.345  -0.822  53.409  1.00  0.00     0.132 C 
BRANCH   5   6
HETATM    6  C2  UNL     1      22.370   0.292  53.804  1.00  0.00     0.033 C 
HETATM    7  C1  UNL     1      21.258  -0.289  54.639  1.00  0.00     0.017 C 
BRANCH   6   8
HETATM    8  C6  UNL     1      21.793   0.858  52.563  1.00  0.00    -0.046 C 
HETATM    9  C7  UNL     1      20.574   0.654  52.002  1.00  0.00     0.010 C 
HETATM   10  C8  UNL     1      19.988   1.351  50.803  1.00  0.00     0.091 C 
HETATM   11  C9  UNL     1      18.587   1.527  50.834  1.00  0.00     0.078 C 
HETATM   12  C10 UNL     1      20.541   0.916  49.495  1.00  0.00     0.019 C 
HETATM   13  C16 UNL     1      20.638   2.768  50.995  1.00  0.00     0.090 C 
HETATM   14  N2  UNL     1      17.446   1.660  50.871  1.00  0.00    -0.196 NA
HETATM   15  C11 UNL     1      21.622   1.328  48.775  1.00  0.00     0.086 C 
HETATM   16  N3  UNL     1      22.639   2.127  49.478  1.00  0.00    -0.369 N 
HETATM   17  C12 UNL     1      22.077   2.216  50.835  1.00  0.00     0.018 C 
HETATM   18  H14 UNL     1      23.555   2.618  49.457  1.00  0.00     0.165 HD
HETATM   19  C13 UNL     1      22.776   1.776  51.935  1.00  0.00    -0.027 C 
BRANCH  19  20
HETATM   20  C14 UNL     1      24.125   2.252  52.066  1.00  0.00     0.070 C 
BRANCH  20  21
HETATM   21  C15 UNL     1      24.461   3.151  53.229  1.00  0.00     0.271 C 
BRANCH  21  22
HETATM   22  N4  UNL     1      25.847   2.758  53.596  1.00  0.00     0.078 N 
HETATM   23  H19 UNL     1      26.157   1.940  53.039  1.00  0.00     0.312 HD
HETATM   24  H20 UNL     1      26.493   3.579  53.512  1.00  0.00     0.312 HD
ENDBRANCH  21  22
ENDBRANCH  20  21
ENDBRANCH  19  20
ENDBRANCH   6   8
ENDBRANCH   5   6
ENDBRANCH   1   5
TORSDOF 6
ENDMDL
MODEL 9
REMARK VINA RESULT:      -5.5      2.743      6.036
REMARK  6 active torsions:
REMARK  status: ('A' for Active; 'I' for Inactive)
REMARK    1  A    between atoms: C2_2  and  C3_3 
REMARK    2  A    between atoms: C2_2  and  C6_8 
REMARK    3  A    between atoms: C3_3  and  N1_4 
REMARK    4  A    between atoms: C13_17  and  C14_18 
REMARK    5  A    between atoms: C14_18  and  C15_19 
REMARK    6  A    between atoms: C15_19  and  N4_20 
ROOT
HETATM    1  N1  UNL     1      26.457   2.081  51.851  1.00  0.00    -0.374 N 
HETATM    2  C4  UNL     1      27.620   2.028  52.714  1.00  0.00     0.150 C 
HETATM    3  C5  UNL     1      26.733   2.896  50.690  1.00  0.00     0.471 C 
HETATM    4  O1  UNL     1      26.898   3.589  49.656  1.00  0.00    -0.392 OA
ENDROOT
BRANCH   1   5
HETATM    5  C3  UNL     1      25.149   1.507  51.912  1.00  0.00     0.132 C 
BRANCH   5   6
HETATM    6  C2  UNL     1      24.077   2.568  52.185  1.00  0.00     0.033 C 
HETATM    7  C1  UNL     1      24.459   3.361  53.408  1.00  0.00     0.017 C 
BRANCH   6   8
HETATM    8  C6  UNL     1      22.796   1.871  52.445  1.00  0.00    -0.046 C 
HETATM    9  C7  UNL     1      22.568   0.579  52.793  1.00  0.00     0.010 C 
HETATM   10  C8  UNL     1      21.254  -0.051  53.168  1.00  0.00     0.091 C 
HETATM   11  C9  UNL     1      21.333  -1.088  54.124  1.00  0.00     0.078 C 
HETATM   12  C10 UNL     1      20.337  -0.312  52.028  1.00  0.00     0.019 C 
HETATM   13  C16 UNL     1      20.579   1.180  53.874  1.00  0.00     0.090 C 
HETATM   14  N2  UNL     1      21.413  -1.933  54.899  1.00  0.00    -0.196 NA
HETATM   15  C11 UNL     1      19.399   0.461  51.412  1.00  0.00     0.086 C 
HETATM   16  N3  UNL     1      19.446   1.911  51.661  1.00  0.00    -0.369 N 
HETATM   17  C12 UNL     1      20.590   2.029  52.578  1.00  0.00     0.018 C 
HETATM   18  H14 UNL     1      19.066   2.859  51.468  1.00  0.00     0.165 HD
HETATM   19  C13 UNL     1      21.672   2.826  52.282  1.00  0.00    -0.027 C 
BRANCH  19  20
HETATM   20  C14 UNL     1      21.380   4.175  51.885  1.00  0.00     0.070 C 
BRANCH  20  21
HETATM   21  C15 UNL     1      21.530   4.545  50.431  1.00  0.00     0.271 C 
BRANCH  21  22
HETATM   22  N4  UNL     1      20.294   5.313  50.128  1.00  0.00     0.078 N 
HETATM   23  H19 UNL     1      19.744   4.846  49.383  1.00  0.00     0.312 HD
HETATM   24  H20 UNL     1      19.741   5.475  51.003  1.00  0.00     0.312 HD
ENDBRANCH  21  22
ENDBRANCH  20  21
ENDBRANCH  19  20
ENDBRANCH   6   8
ENDBRANCH   5   6
ENDBRANCH   1   5
TORSDOF 6
ENDMDL
