MODEL 1
REMARK VINA RESULT:      -8.0      0.000      0.000
REMARK  3 active torsions:
REMARK  status: ('A' for Active; 'I' for Inactive)
REMARK    1  A    between atoms: C2_2  and  C3_3 
REMARK    2  A    between atoms: C4_4  and  C5_5 
REMARK    3  A    between atoms: C5_5  and  C6_6 
ROOT
HETATM    1  C6  UNL     1      24.636  -0.495  53.698  1.00  0.00     0.070 A 
HETATM    2  N1  UNL     1      24.938  -1.226  54.795  1.00  0.00    -0.244 NA
HETATM    3  C7  UNL     1      24.049  -1.609  55.724  1.00  0.00     0.236 A 
HETATM    4  N2  UNL     1      22.755  -1.265  55.597  1.00  0.00    -0.215 NA
HETATM    5  C8  UNL     1      22.341  -0.530  54.532  1.00  0.00     0.200 A 
HETATM    6  C9  UNL     1      23.300  -0.157  53.596  1.00  0.00     0.107 A 
HETATM    7  N3  UNL     1      23.029   0.610  52.434  1.00  0.00    -0.380 N 
HETATM    8  C10 UNL     1      21.856   1.289  51.936  1.00  0.00     0.161 C 
HETATM    9  C11 UNL     1      20.624   0.514  52.230  1.00  0.00    -0.004 A 
HETATM   10  C12 UNL     1      19.760   0.507  51.129  1.00  0.00     0.054 A 
HETATM   11  C13 UNL     1      18.544  -0.138  51.135  1.00  0.00     0.117 A 
HETATM   12  F1  UNL     1      17.735  -0.129  50.062  1.00  0.00    -0.206 F 
HETATM   13  C14 UNL     1      18.149  -0.812  52.274  1.00  0.00     0.045 A 
HETATM   14  C15 UNL     1      18.968  -0.826  53.369  1.00  0.00     0.041 A 
HETATM   15  C16 UNL     1      20.205  -0.169  53.364  1.00  0.00     0.086 A 
HETATM   16  O1  UNL     1      20.959  -0.253  54.545  1.00  0.00    -0.289 OA
HETATM   17  H9  UNL     1      23.825   0.715  51.801  1.00  0.00     0.160 HD
ENDROOT
BRANCH   1  18
HETATM   18  C5  UNL     1      25.649  -0.086  52.688  1.00  0.00     0.089 C 
BRANCH  18  19
HETATM   19  C4  UNL     1      27.006  -0.530  53.035  1.00  0.00    -0.021 C 
HETATM   20  C3  UNL     1      27.987   0.261  53.380  1.00  0.00    -0.008 C 
BRANCH  20  21
HETATM   21  C2  UNL     1      29.379   0.065  53.758  1.00  0.00    -0.027 C 
HETATM   22  C1  UNL     1      30.080  -1.073  53.692  1.00  0.00     0.031 C 
ENDBRANCH  20  21
ENDBRANCH  18  19
ENDBRANCH   1  18
TORSDOF 3
ENDMDL
MODEL 2
REMARK VINA RESULT:      -7.7      3.360      4.137
REMARK  3 active torsions:
REMARK  status: ('A' for Active; 'I' for Inactive)
REMARK    1  A    between atoms: C2_2  and  C3_3 
REMARK    2  A    between atoms: C4_4  and  C5_5 
REMARK    3  A    between atoms: C5_5  and  C6_6 
ROOT
HETATM    1  C6  UNL     1      25.564   1.739  51.453  1.00  0.00     0.070 A 
HETATM    2  N1  UNL     1      26.722   1.054  51.578  1.00  0.00    -0.244 NA
HETATM    3  C7  UNL     1      26.926   0.054  52.450  1.00  0.00     0.236 A 
HETATM    4  N2  UNL     1      25.937  -0.327  53.278  1.00  0.00    -0.215 NA
HETATM    5  C8  UNL     1      24.730   0.294  53.237  1.00  0.00     0.200 A 
HETATM    6  C9  UNL     1      24.567   1.324  52.317  1.00  0.00     0.107 A 
HETATM    7  N3  UNL     1      23.371   2.071  52.153  1.00  0.00    -0.380 N 
HETATM    8  C10 UNL     1      22.114   2.110  52.861  1.00  0.00     0.161 C 
HETATM    9  C11 UNL     1      21.710   0.755  53.312  1.00  0.00    -0.004 A 
HETATM   10  C12 UNL     1      20.344   0.541  53.096  1.00  0.00     0.054 A 
HETATM   11  C13 UNL     1      19.709  -0.636  53.427  1.00  0.00     0.117 A 
HETATM   12  F1  UNL     1      18.396  -0.814  53.208  1.00  0.00    -0.206 F 
HETATM   13  C14 UNL     1      20.444  -1.656  53.998  1.00  0.00     0.045 A 
HETATM   14  C15 UNL     1      21.781  -1.481  54.223  1.00  0.00     0.041 A 
HETATM   15  C16 UNL     1      22.428  -0.285  53.887  1.00  0.00     0.086 A 
HETATM   16  O1  UNL     1      23.803  -0.222  54.165  1.00  0.00    -0.289 OA
HETATM   17  H9  UNL     1      23.387   2.727  51.369  1.00  0.00     0.160 HD
ENDROOT
BRANCH   1  18
HETATM   18  C5  UNL     1      25.372   2.845  50.476  1.00  0.00     0.089 C 
BRANCH  18  19
HETATM   19  C4  UNL     1      26.636   3.298  49.879  1.00  0.00    -0.021 C 
HETATM   20  C3  UNL     1      26.789   4.402  49.198  1.00  0.00    -0.008 C 
BRANCH  20  21
HETATM   21  C2  UNL     1      27.908   5.048  48.528  1.00  0.00    -0.027 C 
HETATM   22  C1  UNL     1      27.997   6.333  48.162  1.00  0.00     0.031 C 
ENDBRANCH  20  21
ENDBRANCH  18  19
ENDBRANCH   1  18
TORSDOF 3
ENDMDL
MODEL 3
REMARK VINA RESULT:      -7.7      3.433      7.804
REMARK  3 active torsions:
REMARK  status: ('A' for Active; 'I' for Inactive)
REMARK    1  A    between atoms: C2_2  and  C3_3 
REMARK    2  A    between atoms: C4_4  and  C5_5 
REMARK    3  A    between atoms: C5_5  and  C6_6 
ROOT
HETATM    1  C6  UNL     1      22.673   1.286  52.399  1.00  0.00     0.070 A 
HETATM    2  N1  UNL     1      22.254   2.531  52.078  1.00  0.00    -0.244 NA
HETATM    3  C7  UNL     1      22.933   3.657  52.348  1.00  0.00     0.236 A 
HETATM    4  N2  UNL     1      24.119   3.591  52.979  1.00  0.00    -0.215 NA
HETATM    5  C8  UNL     1      24.635   2.389  53.347  1.00  0.00     0.200 A 
HETATM    6  C9  UNL     1      23.894   1.252  53.046  1.00  0.00     0.107 A 
HETATM    7  N3  UNL     1      24.294  -0.073  53.364  1.00  0.00    -0.380 N 
HETATM    8  C10 UNL     1      25.393  -0.631  54.115  1.00  0.00     0.161 C 
HETATM    9  C11 UNL     1      26.638   0.149  53.902  1.00  0.00    -0.004 A 
HETATM   10  C12 UNL     1      27.739  -0.699  53.733  1.00  0.00     0.054 A 
HETATM   11  C13 UNL     1      29.017  -0.233  53.520  1.00  0.00     0.117 A 
HETATM   12  F1  UNL     1      30.055  -1.072  53.360  1.00  0.00    -0.206 F 
HETATM   13  C14 UNL     1      29.234   1.129  53.468  1.00  0.00     0.045 A 
HETATM   14  C15 UNL     1      28.182   1.987  53.629  1.00  0.00     0.041 A 
HETATM   15  C16 UNL     1      26.881   1.515  53.846  1.00  0.00     0.086 A 
HETATM   16  O1  UNL     1      25.882   2.490  53.996  1.00  0.00    -0.289 OA
HETATM   17  H9  UNL     1      23.682  -0.801  52.989  1.00  0.00     0.160 HD
ENDROOT
BRANCH   1  18
HETATM   18  C5  UNL     1      21.893   0.058  52.086  1.00  0.00     0.089 C 
BRANCH  18  19
HETATM   19  C4  UNL     1      20.607   0.354  51.441  1.00  0.00    -0.021 C 
HETATM   20  C3  UNL     1      19.440  -0.033  51.884  1.00  0.00    -0.008 C 
BRANCH  20  21
HETATM   21  C2  UNL     1      18.066   0.130  51.434  1.00  0.00    -0.027 C 
HETATM   22  C1  UNL     1      17.631   0.182  50.169  1.00  0.00     0.031 C 
ENDBRANCH  20  21
ENDBRANCH  18  19
ENDBRANCH   1  18
TORSDOF 3
ENDMDL
MODEL 4
REMARK VINA RESULT:      -7.7      3.220      7.357
REMARK  3 active torsions:
REMARK  status: ('A' for Active; 'I' for Inactive)
REMARK    1  A    between atoms: C2_2  and  C3_3 
REMARK    2  A    between atoms: C4_4  and  C5_5 
REMARK    3  A    between atoms: C5_5  and  C6_6 
ROOT
HETATM    1  C6  UNL     1      22.406   0.069  53.678  1.00  0.00     0.070 A 
HETATM    2  N1  UNL     1      21.915  -0.722  54.659  1.00  0.00    -0.244 NA
HETATM    3  C7  UNL     1      22.664  -1.502  55.454  1.00  0.00     0.236 A 
HETATM    4  N2  UNL     1      24.000  -1.531  55.302  1.00  0.00    -0.215 NA
HETATM    5  C8  UNL     1      24.598  -0.774  54.345  1.00  0.00     0.200 A 
HETATM    6  C9  UNL     1      23.781   0.017  53.546  1.00  0.00     0.107 A 
HETATM    7  N3  UNL     1      24.251   0.859  52.505  1.00  0.00    -0.380 N 
HETATM    8  C10 UNL     1      25.545   1.076  51.904  1.00  0.00     0.161 C 
HETATM    9  C11 UNL     1      26.626   1.013  52.920  1.00  0.00    -0.004 A 
HETATM   10  C12 UNL     1      27.564   2.032  52.719  1.00  0.00     0.054 A 
HETATM   11  C13 UNL     1      28.671   2.200  53.521  1.00  0.00     0.117 A 
HETATM   12  F1  UNL     1      29.555   3.188  53.305  1.00  0.00    -0.206 F 
HETATM   13  C14 UNL     1      28.872   1.330  54.575  1.00  0.00     0.045 A 
HETATM   14  C15 UNL     1      27.976   0.324  54.801  1.00  0.00     0.041 A 
HETATM   15  C16 UNL     1      26.850   0.151  53.985  1.00  0.00     0.086 A 
HETATM   16  O1  UNL     1      26.000  -0.917  54.315  1.00  0.00    -0.289 OA
HETATM   17  H9  UNL     1      23.531   1.446  52.078  1.00  0.00     0.160 HD
ENDROOT
BRANCH   1  18
HETATM   18  C5  UNL     1      21.546   0.921  52.812  1.00  0.00     0.089 C 
BRANCH  18  19
HETATM   19  C4  UNL     1      20.153   0.457  52.766  1.00  0.00    -0.021 C 
HETATM   20  C3  UNL     1      19.452   0.300  51.675  1.00  0.00    -0.008 C 
BRANCH  20  21
HETATM   21  C2  UNL     1      18.094  -0.134  51.382  1.00  0.00    -0.027 C 
HETATM   22  C1  UNL     1      17.312  -0.910  52.142  1.00  0.00     0.031 C 
ENDBRANCH  20  21
ENDBRANCH  18  19
ENDBRANCH   1  18
TORSDOF 3
ENDMDL
MODEL 5
REMARK VINA RESULT:      -7.5      2.174      3.391
REMARK  3 active torsions:
REMARK  status: ('A' for Active; 'I' for Inactive)
REMARK    1  A    between atoms: C2_2  and  C3_3 
REMARK    2  A    between atoms: C4_4  and  C5_5 
REMARK    3  A    between atoms: C5_5  and  C6_6 
ROOT
HETATM    1  C6  UNL     1      25.030   2.284  52.517  1.00  0.00     0.070 A 
HETATM    2  N1  UNL     1      25.323   3.209  51.576  1.00  0.00    -0.244 NA
HETATM    3  C7  UNL     1      24.656   3.361  50.422  1.00  0.00     0.236 A 
HETATM    4  N2  UNL     1      23.614   2.558  50.138  1.00  0.00    -0.215 NA
HETATM    5  C8  UNL     1      23.233   1.592  51.015  1.00  0.00     0.200 A 
HETATM    6  C9  UNL     1      23.956   1.475  52.196  1.00  0.00     0.107 A 
HETATM    7  N3  UNL     1      23.685   0.518  53.209  1.00  0.00    -0.380 N 
HETATM    8  C10 UNL     1      22.774  -0.597  53.312  1.00  0.00     0.161 C 
HETATM    9  C11 UNL     1      21.476  -0.290  52.660  1.00  0.00    -0.004 A 
HETATM   10  C12 UNL     1      20.404  -0.738  53.440  1.00  0.00     0.054 A 
HETATM   11  C13 UNL     1      19.088  -0.582  53.065  1.00  0.00     0.117 A 
HETATM   12  F1  UNL     1      18.079  -1.021  53.835  1.00  0.00    -0.206 F 
HETATM   13  C14 UNL     1      18.803   0.044  51.867  1.00  0.00     0.045 A 
HETATM   14  C15 UNL     1      19.826   0.494  51.080  1.00  0.00     0.041 A 
HETATM   15  C16 UNL     1      21.165   0.336  51.460  1.00  0.00     0.086 A 
HETATM   16  O1  UNL     1      22.128   0.838  50.571  1.00  0.00    -0.289 OA
HETATM   17  H9  UNL     1      24.248   0.628  54.056  1.00  0.00     0.160 HD
ENDROOT
BRANCH   1  18
HETATM   18  C5  UNL     1      25.793   2.143  53.786  1.00  0.00     0.089 C 
BRANCH  18  19
HETATM   19  C4  UNL     1      27.200   1.782  53.564  1.00  0.00    -0.021 C 
HETATM   20  C3  UNL     1      27.809   0.768  54.118  1.00  0.00    -0.008 C 
BRANCH  20  21
HETATM   21  C2  UNL     1      29.157   0.222  54.058  1.00  0.00    -0.027 C 
HETATM   22  C1  UNL     1      29.538  -0.927  53.487  1.00  0.00     0.031 C 
ENDBRANCH  20  21
ENDBRANCH  18  19
ENDBRANCH   1  18
TORSDOF 3
ENDMDL
MODEL 6
REMARK VINA RESULT:      -7.2      5.676      7.840
REMARK  3 active torsions:
REMARK  status: ('A' for Active; 'I' for Inactive)
REMARK    1  A    between atoms: C2_2  and  C3_3 
REMARK    2  A    between atoms: C4_4  and  C5_5 
REMARK    3  A    between atoms: C5_5  and  C6_6 
ROOT
HETATM    1  C6  UNL     1      24.608   2.647  52.262  1.00  0.00     0.070 A 
HETATM    2  N1  UNL     1      25.530   1.943  52.956  1.00  0.00    -0.244 NA
HETATM    3  C7  UNL     1      26.811   1.793  52.585  1.00  0.00     0.236 A 
HETATM    4  N2  UNL     1      27.254   2.365  51.451  1.00  0.00    -0.215 NA
HETATM    5  C8  UNL     1      26.410   3.097  50.677  1.00  0.00     0.200 A 
HETATM    6  C9  UNL     1      25.093   3.223  51.103  1.00  0.00     0.107 A 
HETATM    7  N3  UNL     1      24.092   3.950  50.407  1.00  0.00    -0.380 N 
HETATM    8  C10 UNL     1      24.051   4.620  49.129  1.00  0.00     0.161 C 
HETATM    9  C11 UNL     1      25.344   5.287  48.832  1.00  0.00    -0.004 A 
HETATM   10  C12 UNL     1      25.139   6.560  48.289  1.00  0.00     0.054 A 
HETATM   11  C13 UNL     1      26.172   7.393  47.921  1.00  0.00     0.117 A 
HETATM   12  F1  UNL     1      25.945   8.611  47.402  1.00  0.00    -0.206 F 
HETATM   13  C14 UNL     1      27.473   6.962  48.093  1.00  0.00     0.045 A 
HETATM   14  C15 UNL     1      27.710   5.724  48.621  1.00  0.00     0.041 A 
HETATM   15  C16 UNL     1      26.660   4.876  48.995  1.00  0.00     0.086 A 
HETATM   16  O1  UNL     1      27.026   3.629  49.526  1.00  0.00    -0.289 OA
HETATM   17  H9  UNL     1      23.201   4.024  50.903  1.00  0.00     0.160 HD
ENDROOT
BRANCH   1  18
HETATM   18  C5  UNL     1      23.194   2.792  52.702  1.00  0.00     0.089 C 
BRANCH  18  19
HETATM   19  C4  UNL     1      22.421   1.553  52.541  1.00  0.00    -0.021 C 
HETATM   20  C3  UNL     1      22.356   0.590  53.422  1.00  0.00    -0.008 C 
BRANCH  20  21
HETATM   21  C2  UNL     1      21.679  -0.696  53.489  1.00  0.00    -0.027 C 
HETATM   22  C1  UNL     1      21.655  -1.542  54.526  1.00  0.00     0.031 C 
ENDBRANCH  20  21
ENDBRANCH  18  19
ENDBRANCH   1  18
TORSDOF 3
ENDMDL
MODEL 7
REMARK VINA RESULT:      -7.1      4.786      7.452
REMARK  3 active torsions:
REMARK  status: ('A' for Active; 'I' for Inactive)
REMARK    1  A    between atoms: C2_2  and  C3_3 
REMARK    2  A    between atoms: C4_4  and  C5_5 
REMARK    3  A    between atoms: C5_5  and  C6_6 
ROOT
HETATM    1  C6  UNL     1      21.647   2.136  51.153  1.00  0.00     0.070 A 
HETATM    2  N1  UNL     1      20.486   2.816  51.287  1.00  0.00    -0.244 NA
HETATM    3  C7  UNL     1      20.393   4.152  51.384  1.00  0.00     0.236 A 
HETATM    4  N2  UNL     1      21.506   4.907  51.350  1.00  0.00    -0.215 NA
HETATM    5  C8  UNL     1      22.727   4.325  51.217  1.00  0.00     0.200 A 
HETATM    6  C9  UNL     1      22.771   2.939  51.121  1.00  0.00     0.107 A 
HETATM    7  N3  UNL     1      23.965   2.184  50.981  1.00  0.00    -0.380 N 
HETATM    8  C10 UNL     1      25.368   2.520  51.008  1.00  0.00     0.161 C 
HETATM    9  C11 UNL     1      25.617   3.832  50.360  1.00  0.00    -0.004 A 
HETATM   10  C12 UNL     1      26.754   3.781  49.545  1.00  0.00     0.054 A 
HETATM   11  C13 UNL     1      27.211   4.865  48.828  1.00  0.00     0.117 A 
HETATM   12  F1  UNL     1      28.305   4.787  48.053  1.00  0.00    -0.206 F 
HETATM   13  C14 UNL     1      26.523   6.060  48.909  1.00  0.00     0.045 A 
HETATM   14  C15 UNL     1      25.408   6.145  49.696  1.00  0.00     0.041 A 
HETATM   15  C16 UNL     1      24.943   5.044  50.425  1.00  0.00     0.086 A 
HETATM   16  O1  UNL     1      23.789   5.251  51.197  1.00  0.00    -0.289 OA
HETATM   17  H9  UNL     1      23.817   1.184  50.828  1.00  0.00     0.160 HD
ENDROOT
BRANCH   1  18
HETATM   18  C5  UNL     1      21.714   0.653  51.050  1.00  0.00     0.089 C 
BRANCH  18  19
HETATM   19  C4  UNL     1      22.095   0.014  52.317  1.00  0.00    -0.021 C 
HETATM   20  C3  UNL     1      21.256  -0.391  53.234  1.00  0.00    -0.008 C 
BRANCH  20  21
HETATM   21  C2  UNL     1      21.387  -1.032  54.534  1.00  0.00    -0.027 C 
HETATM   22  C1  UNL     1      22.523  -1.345  55.168  1.00  0.00     0.031 C 
ENDBRANCH  20  21
ENDBRANCH  18  19
ENDBRANCH   1  18
TORSDOF 3
ENDMDL
MODEL 8
REMARK VINA RESULT:      -7.1      3.758      7.277
REMARK  3 active torsions:
REMARK  status: ('A' for Active; 'I' for Inactive)
REMARK    1  A    between atoms: C2_2  and  C3_3 
REMARK    2  A    between atoms: C4_4  and  C5_5 
REMARK    3  A    between atoms: C5_5  and  C6_6 
ROOT
HETATM    1  C6  UNL     1      22.235   2.490  51.705  1.00  0.00     0.070 A 
HETATM    2  N1  UNL     1      22.076   3.831  51.647  1.00  0.00    -0.244 NA
HETATM    3  C7  UNL     1      22.875   4.720  52.259  1.00  0.00     0.236 A 
HETATM    4  N2  UNL     1      23.919   4.292  52.991  1.00  0.00    -0.215 NA
HETATM    5  C8  UNL     1      24.172   2.962  53.115  1.00  0.00     0.200 A 
HETATM    6  C9  UNL     1      23.316   2.082  52.463  1.00  0.00     0.107 A 
HETATM    7  N3  UNL     1      23.443   0.668  52.497  1.00  0.00    -0.380 N 
HETATM    8  C10 UNL     1      24.306  -0.240  53.214  1.00  0.00     0.161 C 
HETATM    9  C11 UNL     1      25.677   0.313  53.344  1.00  0.00    -0.004 A 
HETATM   10  C12 UNL     1      26.641  -0.673  53.106  1.00  0.00     0.054 A 
HETATM   11  C13 UNL     1      27.995  -0.427  53.164  1.00  0.00     0.117 A 
HETATM   12  F1  UNL     1      28.897  -1.395  52.930  1.00  0.00    -0.206 F 
HETATM   13  C14 UNL     1      28.432   0.847  53.469  1.00  0.00     0.045 A 
HETATM   14  C15 UNL     1      27.518   1.835  53.708  1.00  0.00     0.041 A 
HETATM   15  C16 UNL     1      26.141   1.586  53.649  1.00  0.00     0.086 A 
HETATM   16  O1  UNL     1      25.299   2.679  53.912  1.00  0.00    -0.289 OA
HETATM   17  H9  UNL     1      22.791   0.171  51.887  1.00  0.00     0.160 HD
ENDROOT
BRANCH   1  18
HETATM   18  C5  UNL     1      21.329   1.533  51.014  1.00  0.00     0.089 C 
BRANCH  18  19
HETATM   19  C4  UNL     1      21.291   1.737  49.560  1.00  0.00    -0.021 C 
HETATM   20  C3  UNL     1      22.310   2.099  48.828  1.00  0.00    -0.008 C 
BRANCH  20  21
HETATM   21  C2  UNL     1      22.516   2.359  47.410  1.00  0.00    -0.027 C 
HETATM   22  C1  UNL     1      21.800   3.176  46.628  1.00  0.00     0.031 C 
ENDBRANCH  20  21
ENDBRANCH  18  19
ENDBRANCH   1  18
TORSDOF 3
ENDMDL
MODEL 9
REMARK VINA RESULT:      -7.0      5.968      8.396
REMARK  3 active torsions:
REMARK  status: ('A' for Active; 'I' for Inactive)
REMARK    1  A    between atoms: C2_2  and  C3_3 
REMARK    2  A    between atoms: C4_4  and  C5_5 
REMARK    3  A    between atoms: C5_5  and  C6_6 
ROOT
HETATM    1  C6  UNL     1      24.524   3.096  52.044  1.00  0.00     0.070 A 
HETATM    2  N1  UNL     1      25.282   2.221  52.742  1.00  0.00    -0.244 NA
HETATM    3  C7  UNL     1      26.517   1.832  52.389  1.00  0.00     0.236 A 
HETATM    4  N2  UNL     1      27.080   2.320  51.269  1.00  0.00    -0.215 NA
HETATM    5  C8  UNL     1      26.406   3.207  50.492  1.00  0.00     0.200 A 
HETATM    6  C9  UNL     1      25.130   3.580  50.900  1.00  0.00     0.107 A 
HETATM    7  N3  UNL     1      24.299   4.492  50.198  1.00  0.00    -0.380 N 
HETATM    8  C10 UNL     1      24.410   5.170  48.929  1.00  0.00     0.161 C 
HETATM    9  C11 UNL     1      25.812   5.579  48.660  1.00  0.00    -0.004 A 
HETATM   10  C12 UNL     1      25.864   6.873  48.130  1.00  0.00     0.054 A 
HETATM   11  C13 UNL     1      27.044   7.496  47.789  1.00  0.00     0.117 A 
HETATM   12  F1  UNL     1      27.064   8.740  47.283  1.00  0.00    -0.206 F 
HETATM   13  C14 UNL     1      28.235   6.822  47.975  1.00  0.00     0.045 A 
HETATM   14  C15 UNL     1      28.222   5.556  48.490  1.00  0.00     0.041 A 
HETATM   15  C16 UNL     1      27.022   4.921  48.837  1.00  0.00     0.086 A 
HETATM   16  O1  UNL     1      27.133   3.622  49.358  1.00  0.00    -0.289 OA
HETATM   17  H9  UNL     1      23.431   4.731  50.682  1.00  0.00     0.160 HD
ENDROOT
BRANCH   1  18
HETATM   18  C5  UNL     1      23.156   3.506  52.464  1.00  0.00     0.089 C 
BRANCH  18  19
HETATM   19  C4  UNL     1      22.193   2.398  52.412  1.00  0.00    -0.021 C 
HETATM   20  C3  UNL     1      22.095   1.537  51.435  1.00  0.00    -0.008 C 
BRANCH  20  21
HETATM   21  C2  UNL     1      21.245   0.386  51.162  1.00  0.00    -0.027 C 
HETATM   22  C1  UNL     1      19.908   0.367  51.102  1.00  0.00     0.031 C 
ENDBRANCH  20  21
ENDBRANCH  18  19
ENDBRANCH   1  18
TORSDOF 3
ENDMDL
