MODEL 1
REMARK VINA RESULT:      -8.4      0.000      0.000
REMARK  8 active torsions:
REMARK  status: ('A' for Active; 'I' for Inactive)
REMARK    1  A    between atoms: C3_3  and  C4_4 
REMARK    2  A    between atoms: C5_5  and  C6_6 
REMARK    3  A    between atoms: C6_6  and  N1_7 
REMARK       I    between atoms: N1_7  and  C7_8 
REMARK       I    between atoms: C7_8  and  N2_10 
REMARK    4  A    between atoms: N2_10  and  C8_11 
REMARK    5  A    between atoms: N2_10  and  C15_19 
REMARK    6  A    between atoms: C8_11  and  C9_12 
REMARK    7  A    between atoms: C15_19  and  C16_20 
REMARK    8  A    between atoms: C21_26  and  O2_27 
ROOT
HETATM    1  N1  UNL     1      24.259   4.165  51.606  1.00  0.00    -0.340 N 
HETATM    2  C7  UNL     1      23.507   3.030  51.198  1.00  0.00     0.319 C 
HETATM    3  O1  UNL     1      22.920   3.077  50.086  1.00  0.00    -0.247 OA
HETATM    4  N2  UNL     1      23.290   1.790  51.853  1.00  0.00    -0.326 N 
HETATM    5  H10 UNL     1      24.718   4.045  52.532  1.00  0.00     0.164 HD
ENDROOT
BRANCH   4   6
HETATM    6  C8  UNL     1      22.502   0.833  51.105  1.00  0.00     0.166 C 
BRANCH   6   7
HETATM    7  C9  UNL     1      21.323   0.323  51.810  1.00  0.00    -0.040 A 
HETATM    8  C10 UNL     1      20.067   0.582  51.253  1.00  0.00     0.012 A 
HETATM    9  C11 UNL     1      18.897   0.152  51.830  1.00  0.00     0.043 A 
HETATM   10  C12 UNL     1      18.911  -0.571  53.013  1.00  0.00     0.116 A 
HETATM   11  F1  UNL     1      17.795  -1.019  53.628  1.00  0.00    -0.206 F 
HETATM   12  C13 UNL     1      20.131  -0.842  53.586  1.00  0.00     0.043 A 
HETATM   13  C14 UNL     1      21.271  -0.395  52.976  1.00  0.00     0.012 A 
ENDBRANCH   6   7
ENDBRANCH   4   6
BRANCH   4  14
HETATM   14  C15 UNL     1      23.679   1.276  53.162  1.00  0.00     0.169 C 
BRANCH  14  15
HETATM   15  C16 UNL     1      25.092   0.890  53.253  1.00  0.00    -0.006 A 
HETATM   16  C17 UNL     1      25.268  -0.483  53.030  1.00  0.00     0.012 A 
HETATM   17  C18 UNL     1      26.494  -1.110  53.061  1.00  0.00     0.002 A 
HETATM   18  C19 UNL     1      27.621  -0.362  53.323  1.00  0.00     0.022 A 
HETATM   19  C20 UNL     1      27.486   1.005  53.548  1.00  0.00     0.044 A 
HETATM   20 BR1  UNL     1      28.969   2.114  53.916  1.00  0.00    -0.048 Br
HETATM   21  C21 UNL     1      26.241   1.588  53.507  1.00  0.00     0.090 A 
BRANCH  21  22
HETATM   22  O2  UNL     1      26.045   2.928  53.721  1.00  0.00    -0.359 OA
HETATM   23  H22 UNL     1      26.621   3.369  54.436  1.00  0.00     0.217 HD
ENDBRANCH  21  22
ENDBRANCH  14  15
ENDBRANCH   4  14
BRANCH   1  24
HETATM   24  C6  UNL     1      24.375   5.359  50.800  1.00  0.00     0.151 C 
BRANCH  24  25
HETATM   25  C5  UNL     1      25.620   5.298  50.013  1.00  0.00    -0.007 C 
HETATM   26  C4  UNL     1      26.284   4.402  49.307  1.00  0.00    -0.003 C 
BRANCH  26  27
HETATM   27  C3  UNL     1      27.533   4.798  48.666  1.00  0.00    -0.005 C 
HETATM   28  C2  UNL     1      27.710   6.074  48.391  1.00  0.00    -0.031 C 
HETATM   29  C1  UNL     1      28.967   6.512  47.740  1.00  0.00     0.036 C 
ENDBRANCH  26  27
ENDBRANCH  24  25
ENDBRANCH   1  24
TORSDOF 8
ENDMDL
MODEL 2
REMARK VINA RESULT:      -8.2      3.434      5.674
REMARK  8 active torsions:
REMARK  status: ('A' for Active; 'I' for Inactive)
REMARK    1  A    between atoms: C3_3  and  C4_4 
REMARK    2  A    between atoms: C5_5  and  C6_6 
REMARK    3  A    between atoms: C6_6  and  N1_7 
REMARK       I    between atoms: N1_7  and  C7_8 
REMARK       I    between atoms: C7_8  and  N2_10 
REMARK    4  A    between atoms: N2_10  and  C8_11 
REMARK    5  A    between atoms: N2_10  and  C15_19 
REMARK    6  A    between atoms: C8_11  and  C9_12 
REMARK    7  A    between atoms: C15_19  and  C16_20 
REMARK    8  A    between atoms: C21_26  and  O2_27 
ROOT
HETATM    1  N1  UNL     1      23.419   3.512  50.128  1.00  0.00    -0.340 N 
HETATM    2  C7  UNL     1      24.033   3.409  51.406  1.00  0.00     0.319 C 
HETATM    3  O1  UNL     1      24.448   4.465  51.951  1.00  0.00    -0.247 OA
HETATM    4  N2  UNL     1      24.272   2.271  52.218  1.00  0.00    -0.326 N 
HETATM    5  H10 UNL     1      23.098   2.598  49.748  1.00  0.00     0.164 HD
ENDROOT
BRANCH   4   6
HETATM    6  C8  UNL     1      24.881   2.553  53.501  1.00  0.00     0.166 C 
BRANCH   6   7
HETATM    7  C9  UNL     1      26.121   1.819  53.768  1.00  0.00    -0.040 A 
HETATM    8  C10 UNL     1      27.264   2.187  53.051  1.00  0.00     0.012 A 
HETATM    9  C11 UNL     1      28.478   1.566  53.220  1.00  0.00     0.043 A 
HETATM   10  C12 UNL     1      28.624   0.528  54.127  1.00  0.00     0.116 A 
HETATM   11  F1  UNL     1      29.791  -0.121  54.337  1.00  0.00    -0.206 F 
HETATM   12  C13 UNL     1      27.519   0.141  54.847  1.00  0.00     0.043 A 
HETATM   13  C14 UNL     1      26.330   0.788  54.647  1.00  0.00     0.012 A 
ENDBRANCH   6   7
ENDBRANCH   4   6
BRANCH   4  14
HETATM   14  C15 UNL     1      24.055   0.842  52.017  1.00  0.00     0.169 C 
BRANCH  14  15
HETATM   15  C16 UNL     1      22.757   0.364  52.510  1.00  0.00    -0.006 A 
HETATM   16  C17 UNL     1      22.890  -0.348  53.711  1.00  0.00     0.012 A 
HETATM   17  C18 UNL     1      21.829  -0.909  54.386  1.00  0.00     0.002 A 
HETATM   18  C19 UNL     1      20.560  -0.773  53.869  1.00  0.00     0.022 A 
HETATM   19  C20 UNL     1      20.388  -0.072  52.678  1.00  0.00     0.044 A 
HETATM   20 BR1  UNL     1      18.690   0.167  51.890  1.00  0.00    -0.048 Br
HETATM   21  C21 UNL     1      21.477   0.471  52.038  1.00  0.00     0.090 A 
BRANCH  21  22
HETATM   22  O2  UNL     1      21.371   1.172  50.864  1.00  0.00    -0.359 OA
HETATM   23  H22 UNL     1      22.045   1.921  50.712  1.00  0.00     0.217 HD
ENDBRANCH  21  22
ENDBRANCH  14  15
ENDBRANCH   4  14
BRANCH   1  24
HETATM   24  C6  UNL     1      23.254   4.771  49.437  1.00  0.00     0.151 C 
BRANCH  24  25
HETATM   25  C5  UNL     1      24.574   5.276  49.017  1.00  0.00    -0.007 C 
HETATM   26  C4  UNL     1      25.103   6.425  48.641  1.00  0.00    -0.003 C 
BRANCH  26  27
HETATM   27  C3  UNL     1      26.521   6.467  48.300  1.00  0.00    -0.005 C 
HETATM   28  C2  UNL     1      27.268   5.433  48.631  1.00  0.00    -0.031 C 
HETATM   29  C1  UNL     1      28.712   5.441  48.301  1.00  0.00     0.036 C 
ENDBRANCH  26  27
ENDBRANCH  24  25
ENDBRANCH   1  24
TORSDOF 8
ENDMDL
MODEL 3
REMARK VINA RESULT:      -8.1      1.408      2.112
REMARK  8 active torsions:
REMARK  status: ('A' for Active; 'I' for Inactive)
REMARK    1  A    between atoms: C3_3  and  C4_4 
REMARK    2  A    between atoms: C5_5  and  C6_6 
REMARK    3  A    between atoms: C6_6  and  N1_7 
REMARK       I    between atoms: N1_7  and  C7_8 
REMARK       I    between atoms: C7_8  and  N2_10 
REMARK    4  A    between atoms: N2_10  and  C8_11 
REMARK    5  A    between atoms: N2_10  and  C15_19 
REMARK    6  A    between atoms: C8_11  and  C9_12 
REMARK    7  A    between atoms: C15_19  and  C16_20 
REMARK    8  A    between atoms: C21_26  and  O2_27 
ROOT
HETATM    1  N1  UNL     1      26.194   3.270  50.456  1.00  0.00    -0.340 N 
HETATM    2  C7  UNL     1      24.817   3.560  50.652  1.00  0.00     0.319 C 
HETATM    3  O1  UNL     1      24.142   3.928  49.656  1.00  0.00    -0.247 OA
HETATM    4  N2  UNL     1      24.028   3.505  51.829  1.00  0.00    -0.326 N 
HETATM    5  H10 UNL     1      26.681   2.966  51.324  1.00  0.00     0.164 HD
ENDROOT
BRANCH   4   6
HETATM    6  C8  UNL     1      22.628   3.823  51.642  1.00  0.00     0.166 C 
BRANCH   6   7
HETATM    7  C9  UNL     1      21.735   2.661  51.595  1.00  0.00    -0.040 A 
HETATM    8  C10 UNL     1      20.677   2.613  52.510  1.00  0.00     0.012 A 
HETATM    9  C11 UNL     1      19.783   1.572  52.554  1.00  0.00     0.043 A 
HETATM   10  C12 UNL     1      19.891   0.503  51.678  1.00  0.00     0.116 A 
HETATM   11  F1  UNL     1      19.043  -0.549  51.674  1.00  0.00    -0.206 F 
HETATM   12  C13 UNL     1      20.920   0.520  50.767  1.00  0.00     0.043 A 
HETATM   13  C14 UNL     1      21.788   1.578  50.758  1.00  0.00     0.012 A 
ENDBRANCH   6   7
ENDBRANCH   4   6
BRANCH   4  14
HETATM   14  C15 UNL     1      24.342   3.215  53.225  1.00  0.00     0.169 C 
BRANCH  14  15
HETATM   15  C16 UNL     1      25.075   1.958  53.420  1.00  0.00    -0.006 A 
HETATM   16  C17 UNL     1      24.254   0.843  53.198  1.00  0.00     0.012 A 
HETATM   17  C18 UNL     1      24.689  -0.459  53.317  1.00  0.00     0.002 A 
HETATM   18  C19 UNL     1      25.998  -0.697  53.673  1.00  0.00     0.022 A 
HETATM   19  C20 UNL     1      26.843   0.387  53.901  1.00  0.00     0.044 A 
HETATM   20 BR1  UNL     1      28.652   0.163  54.393  1.00  0.00    -0.048 Br
HETATM   21  C21 UNL     1      26.365   1.669  53.770  1.00  0.00     0.090 A 
BRANCH  21  22
HETATM   22  O2  UNL     1      27.148   2.775  53.981  1.00  0.00    -0.359 OA
HETATM   23  H22 UNL     1      27.043   3.249  54.876  1.00  0.00     0.217 HD
ENDBRANCH  21  22
ENDBRANCH  14  15
ENDBRANCH   4  14
BRANCH   1  24
HETATM   24  C6  UNL     1      26.843   3.379  49.168  1.00  0.00     0.151 C 
BRANCH  24  25
HETATM   25  C5  UNL     1      27.366   4.746  48.999  1.00  0.00    -0.007 C 
HETATM   26  C4  UNL     1      26.950   5.894  48.495  1.00  0.00    -0.003 C 
BRANCH  26  27
HETATM   27  C3  UNL     1      27.842   7.046  48.544  1.00  0.00    -0.005 C 
HETATM   28  C2  UNL     1      29.075   6.893  48.107  1.00  0.00    -0.031 C 
HETATM   29  C1  UNL     1      30.009   8.043  48.141  1.00  0.00     0.036 C 
ENDBRANCH  26  27
ENDBRANCH  24  25
ENDBRANCH   1  24
TORSDOF 8
ENDMDL
MODEL 4
REMARK VINA RESULT:      -8.0      3.698      6.139
REMARK  8 active torsions:
REMARK  status: ('A' for Active; 'I' for Inactive)
REMARK    1  A    between atoms: C3_3  and  C4_4 
REMARK    2  A    between atoms: C5_5  and  C6_6 
REMARK    3  A    between atoms: C6_6  and  N1_7 
REMARK       I    between atoms: N1_7  and  C7_8 
REMARK       I    between atoms: C7_8  and  N2_10 
REMARK    4  A    between atoms: N2_10  and  C8_11 
REMARK    5  A    between atoms: N2_10  and  C15_19 
REMARK    6  A    between atoms: C8_11  and  C9_12 
REMARK    7  A    between atoms: C15_19  and  C16_20 
REMARK    8  A    between atoms: C21_26  and  O2_27 
ROOT
HETATM    1  N1  UNL     1      22.286   1.238  51.359  1.00  0.00    -0.340 N 
HETATM    2  C7  UNL     1      23.007   0.504  52.339  1.00  0.00     0.319 C 
HETATM    3  O1  UNL     1      22.674  -0.691  52.549  1.00  0.00    -0.247 OA
HETATM    4  N2  UNL     1      24.092   0.898  53.164  1.00  0.00    -0.326 N 
HETATM    5  H10 UNL     1      22.625   2.214  51.240  1.00  0.00     0.164 HD
ENDROOT
BRANCH   4   6
HETATM    6  C8  UNL     1      24.619  -0.144  54.020  1.00  0.00     0.166 C 
BRANCH   6   7
HETATM    7  C9  UNL     1      26.069  -0.342  53.926  1.00  0.00    -0.040 A 
HETATM    8  C10 UNL     1      26.550  -1.162  52.899  1.00  0.00     0.012 A 
HETATM    9  C11 UNL     1      27.887  -1.417  52.720  1.00  0.00     0.043 A 
HETATM   10  C12 UNL     1      28.836  -0.863  53.564  1.00  0.00     0.116 A 
HETATM   11  F1  UNL     1      30.164  -1.077  53.439  1.00  0.00    -0.206 F 
HETATM   12  C13 UNL     1      28.396  -0.052  54.584  1.00  0.00     0.043 A 
HETATM   13  C14 UNL     1      27.054   0.175  54.726  1.00  0.00     0.012 A 
ENDBRANCH   6   7
ENDBRANCH   4   6
BRANCH   4  14
HETATM   14  C15 UNL     1      24.787   2.167  53.356  1.00  0.00     0.169 C 
BRANCH  14  15
HETATM   15  C16 UNL     1      25.071   2.883  52.106  1.00  0.00    -0.006 A 
HETATM   16  C17 UNL     1      26.285   2.470  51.539  1.00  0.00     0.012 A 
HETATM   17  C18 UNL     1      26.793   2.983  50.365  1.00  0.00     0.002 A 
HETATM   18  C19 UNL     1      26.082   3.956  49.699  1.00  0.00     0.022 A 
HETATM   19  C20 UNL     1      24.872   4.392  50.232  1.00  0.00     0.044 A 
HETATM   20 BR1  UNL     1      23.826   5.721  49.393  1.00  0.00    -0.048 Br
HETATM   21  C21 UNL     1      24.404   3.851  51.406  1.00  0.00     0.090 A 
BRANCH  21  22
HETATM   22  O2  UNL     1      23.219   4.239  51.978  1.00  0.00    -0.359 OA
HETATM   23  H22 UNL     1      22.553   4.719  51.376  1.00  0.00     0.217 HD
ENDBRANCH  21  22
ENDBRANCH  14  15
ENDBRANCH   4  14
BRANCH   1  24
HETATM   24  C6  UNL     1      21.194   0.670  50.601  1.00  0.00     0.151 C 
BRANCH  24  25
HETATM   25  C5  UNL     1      21.145   1.299  49.269  1.00  0.00    -0.007 C 
HETATM   26  C4  UNL     1      21.788   2.249  48.615  1.00  0.00    -0.003 C 
BRANCH  26  27
HETATM   27  C3  UNL     1      21.385   2.555  47.247  1.00  0.00    -0.005 C 
HETATM   28  C2  UNL     1      21.920   3.610  46.665  1.00  0.00    -0.031 C 
HETATM   29  C1  UNL     1      21.534   3.950  45.276  1.00  0.00     0.036 C 
ENDBRANCH  26  27
ENDBRANCH  24  25
ENDBRANCH   1  24
TORSDOF 8
ENDMDL
MODEL 5
REMARK VINA RESULT:      -8.0      2.371      5.637
REMARK  8 active torsions:
REMARK  status: ('A' for Active; 'I' for Inactive)
REMARK    1  A    between atoms: C3_3  and  C4_4 
REMARK    2  A    between atoms: C5_5  and  C6_6 
REMARK    3  A    between atoms: C6_6  and  N1_7 
REMARK       I    between atoms: N1_7  and  C7_8 
REMARK       I    between atoms: C7_8  and  N2_10 
REMARK    4  A    between atoms: N2_10  and  C8_11 
REMARK    5  A    between atoms: N2_10  and  C15_19 
REMARK    6  A    between atoms: C8_11  and  C9_12 
REMARK    7  A    between atoms: C15_19  and  C16_20 
REMARK    8  A    between atoms: C21_26  and  O2_27 
ROOT
HETATM    1  N1  UNL     1      27.141   2.556  52.428  1.00  0.00    -0.340 N 
HETATM    2  C7  UNL     1      25.764   2.794  52.686  1.00  0.00     0.319 C 
HETATM    3  O1  UNL     1      25.391   2.868  53.885  1.00  0.00    -0.247 OA
HETATM    4  N2  UNL     1      24.681   2.975  51.787  1.00  0.00    -0.326 N 
HETATM    5  H10 UNL     1      27.371   2.515  51.414  1.00  0.00     0.164 HD
ENDROOT
BRANCH   4   6
HETATM    6  C8  UNL     1      23.407   3.255  52.415  1.00  0.00     0.166 C 
BRANCH   6   7
HETATM    7  C9  UNL     1      22.360   2.264  52.148  1.00  0.00    -0.040 A 
HETATM    8  C10 UNL     1      21.127   2.728  51.676  1.00  0.00     0.012 A 
HETATM    9  C11 UNL     1      20.077   1.888  51.395  1.00  0.00     0.043 A 
HETATM   10  C12 UNL     1      20.196   0.519  51.570  1.00  0.00     0.116 A 
HETATM   11  F1  UNL     1      19.200  -0.357  51.311  1.00  0.00    -0.206 F 
HETATM   12  C13 UNL     1      21.395   0.030  52.032  1.00  0.00     0.043 A 
HETATM   13  C14 UNL     1      22.415   0.903  52.299  1.00  0.00     0.012 A 
ENDBRANCH   6   7
ENDBRANCH   4   6
BRANCH   4  14
HETATM   14  C15 UNL     1      24.573   2.910  50.334  1.00  0.00     0.169 C 
BRANCH  14  15
HETATM   15  C16 UNL     1      24.984   4.144  49.652  1.00  0.00    -0.006 A 
HETATM   16  C17 UNL     1      23.876   4.902  49.245  1.00  0.00     0.012 A 
HETATM   17  C18 UNL     1      23.977   6.104  48.580  1.00  0.00     0.002 A 
HETATM   18  C19 UNL     1      25.227   6.604  48.290  1.00  0.00     0.022 A 
HETATM   19  C20 UNL     1      26.351   5.879  48.678  1.00  0.00     0.044 A 
HETATM   20 BR1  UNL     1      28.105   6.481  48.326  1.00  0.00    -0.048 Br
HETATM   21  C21 UNL     1      26.201   4.684  49.341  1.00  0.00     0.090 A 
BRANCH  21  22
HETATM   22  O2  UNL     1      27.269   3.926  49.749  1.00  0.00    -0.359 OA
HETATM   23  H22 UNL     1      27.164   3.417  50.625  1.00  0.00     0.217 HD
ENDBRANCH  21  22
ENDBRANCH  14  15
ENDBRANCH   4  14
BRANCH   1  24
HETATM   24  C6  UNL     1      28.120   2.397  53.479  1.00  0.00     0.151 C 
BRANCH  24  25
HETATM   25  C5  UNL     1      28.616   1.009  53.480  1.00  0.00    -0.007 C 
HETATM   26  C4  UNL     1      29.767   0.385  53.656  1.00  0.00    -0.003 C 
BRANCH  26  27
HETATM   27  C3  UNL     1      29.797  -1.070  53.564  1.00  0.00    -0.005 C 
HETATM   28  C2  UNL     1      28.695  -1.690  53.195  1.00  0.00    -0.031 C 
HETATM   29  C1  UNL     1      28.690  -3.168  53.091  1.00  0.00     0.036 C 
ENDBRANCH  26  27
ENDBRANCH  24  25
ENDBRANCH   1  24
TORSDOF 8
ENDMDL
MODEL 6
REMARK VINA RESULT:      -7.9      3.063      7.097
REMARK  8 active torsions:
REMARK  status: ('A' for Active; 'I' for Inactive)
REMARK    1  A    between atoms: C3_3  and  C4_4 
REMARK    2  A    between atoms: C5_5  and  C6_6 
REMARK    3  A    between atoms: C6_6  and  N1_7 
REMARK       I    between atoms: N1_7  and  C7_8 
REMARK       I    between atoms: C7_8  and  N2_10 
REMARK    4  A    between atoms: N2_10  and  C8_11 
REMARK    5  A    between atoms: N2_10  and  C15_19 
REMARK    6  A    between atoms: C8_11  and  C9_12 
REMARK    7  A    between atoms: C15_19  and  C16_20 
REMARK    8  A    between atoms: C21_26  and  O2_27 
ROOT
HETATM    1  N1  UNL     1      21.015   3.194  51.284  1.00  0.00    -0.340 N 
HETATM    2  C7  UNL     1      22.242   2.904  50.628  1.00  0.00     0.319 C 
HETATM    3  O1  UNL     1      22.202   2.579  49.414  1.00  0.00    -0.247 OA
HETATM    4  N2  UNL     1      23.571   2.916  51.125  1.00  0.00    -0.326 N 
HETATM    5  H10 UNL     1      21.132   3.460  52.283  1.00  0.00     0.164 HD
ENDROOT
BRANCH   4   6
HETATM    6  C8  UNL     1      24.592   2.614  50.144  1.00  0.00     0.166 C 
BRANCH   6   7
HETATM    7  C9  UNL     1      25.309   3.782  49.623  1.00  0.00    -0.040 A 
HETATM    8  C10 UNL     1      26.676   3.646  49.362  1.00  0.00     0.012 A 
HETATM    9  C11 UNL     1      27.444   4.675  48.874  1.00  0.00     0.043 A 
HETATM   10  C12 UNL     1      26.885   5.916  48.614  1.00  0.00     0.116 A 
HETATM   11  F1  UNL     1      27.588   6.966  48.135  1.00  0.00    -0.206 F 
HETATM   12  C13 UNL     1      25.543   6.083  48.860  1.00  0.00     0.043 A 
HETATM   13  C14 UNL     1      24.817   5.030  49.346  1.00  0.00     0.012 A 
ENDBRANCH   6   7
ENDBRANCH   4   6
BRANCH   4  14
HETATM   14  C15 UNL     1      24.136   3.147  52.450  1.00  0.00     0.169 C 
BRANCH  14  15
HETATM   15  C16 UNL     1      24.747   1.955  53.051  1.00  0.00    -0.006 A 
HETATM   16  C17 UNL     1      23.829   0.900  53.153  1.00  0.00     0.012 A 
HETATM   17  C18 UNL     1      24.139  -0.332  53.683  1.00  0.00     0.002 A 
HETATM   18  C19 UNL     1      25.417  -0.559  54.145  1.00  0.00     0.022 A 
HETATM   19  C20 UNL     1      26.356   0.466  54.061  1.00  0.00     0.044 A 
HETATM   20 BR1  UNL     1      28.131   0.253  54.667  1.00  0.00    -0.048 Br
HETATM   21  C21 UNL     1      26.001   1.680  53.523  1.00  0.00     0.090 A 
BRANCH  21  22
HETATM   22  O2  UNL     1      26.882   2.726  53.413  1.00  0.00    -0.359 OA
HETATM   23  H22 UNL     1      27.872   2.491  53.380  1.00  0.00     0.217 HD
ENDBRANCH  21  22
ENDBRANCH  14  15
ENDBRANCH   4  14
BRANCH   1  24
HETATM   24  C6  UNL     1      19.735   3.133  50.615  1.00  0.00     0.151 C 
BRANCH  24  25
HETATM   25  C5  UNL     1      19.038   1.894  51.004  1.00  0.00    -0.007 C 
HETATM   26  C4  UNL     1      18.573   0.809  50.411  1.00  0.00    -0.003 C 
BRANCH  26  27
HETATM   27  C3  UNL     1      17.924  -0.212  51.224  1.00  0.00    -0.005 C 
HETATM   28  C2  UNL     1      18.427  -0.468  52.415  1.00  0.00    -0.031 C 
HETATM   29  C1  UNL     1      17.793  -1.499  53.268  1.00  0.00     0.036 C 
ENDBRANCH  26  27
ENDBRANCH  24  25
ENDBRANCH   1  24
TORSDOF 8
ENDMDL
MODEL 7
REMARK VINA RESULT:      -7.9      1.701      2.216
REMARK  8 active torsions:
REMARK  status: ('A' for Active; 'I' for Inactive)
REMARK    1  A    between atoms: C3_3  and  C4_4 
REMARK    2  A    between atoms: C5_5  and  C6_6 
REMARK    3  A    between atoms: C6_6  and  N1_7 
REMARK       I    between atoms: N1_7  and  C7_8 
REMARK       I    between atoms: C7_8  and  N2_10 
REMARK    4  A    between atoms: N2_10  and  C8_11 
REMARK    5  A    between atoms: N2_10  and  C15_19 
REMARK    6  A    between atoms: C8_11  and  C9_12 
REMARK    7  A    between atoms: C15_19  and  C16_20 
REMARK    8  A    between atoms: C21_26  and  O2_27 
ROOT
HETATM    1  N1  UNL     1      24.507   3.315  50.092  1.00  0.00    -0.340 N 
HETATM    2  C7  UNL     1      24.096   2.953  51.404  1.00  0.00     0.319 C 
HETATM    3  O1  UNL     1      23.386   3.767  52.048  1.00  0.00    -0.247 OA
HETATM    4  N2  UNL     1      24.356   1.777  52.154  1.00  0.00    -0.326 N 
HETATM    5  H10 UNL     1      25.084   2.587  49.624  1.00  0.00     0.164 HD
ENDROOT
BRANCH   4   6
HETATM    6  C8  UNL     1      23.723   1.729  53.455  1.00  0.00     0.166 C 
BRANCH   6   7
HETATM    7  C9  UNL     1      22.674   0.714  53.591  1.00  0.00    -0.040 A 
HETATM    8  C10 UNL     1      21.411   1.007  53.066  1.00  0.00     0.012 A 
HETATM    9  C11 UNL     1      20.357   0.130  53.140  1.00  0.00     0.043 A 
HETATM   10  C12 UNL     1      20.502  -1.107  53.749  1.00  0.00     0.116 A 
HETATM   11  F1  UNL     1      19.503  -2.011  53.852  1.00  0.00    -0.206 F 
HETATM   12  C13 UNL     1      21.731  -1.425  54.275  1.00  0.00     0.043 A 
HETATM   13  C14 UNL     1      22.754  -0.521  54.179  1.00  0.00     0.012 A 
ENDBRANCH   6   7
ENDBRANCH   4   6
BRANCH   4  14
HETATM   14  C15 UNL     1      25.168   0.592  51.895  1.00  0.00     0.169 C 
BRANCH  14  15
HETATM   15  C16 UNL     1      26.511   0.651  52.485  1.00  0.00    -0.006 A 
HETATM   16  C17 UNL     1      26.900   1.972  52.751  1.00  0.00     0.012 A 
HETATM   17  C18 UNL     1      28.115   2.313  53.302  1.00  0.00     0.002 A 
HETATM   18  C19 UNL     1      29.011   1.314  53.615  1.00  0.00     0.022 A 
HETATM   19  C20 UNL     1      28.660  -0.009  53.365  1.00  0.00     0.044 A 
HETATM   20 BR1  UNL     1      29.818  -1.447  53.759  1.00  0.00    -0.048 Br
HETATM   21  C21 UNL     1      27.434  -0.302  52.814  1.00  0.00     0.090 A 
BRANCH  21  22
HETATM   22  O2  UNL     1      27.032  -1.586  52.546  1.00  0.00    -0.359 OA
HETATM   23  H22 UNL     1      26.502  -1.733  51.689  1.00  0.00     0.217 HD
ENDBRANCH  21  22
ENDBRANCH  14  15
ENDBRANCH   4  14
BRANCH   1  24
HETATM   24  C6  UNL     1      24.142   4.570  49.475  1.00  0.00     0.151 C 
BRANCH  24  25
HETATM   25  C5  UNL     1      25.356   5.242  48.979  1.00  0.00    -0.007 C 
HETATM   26  C4  UNL     1      26.664   5.125  49.123  1.00  0.00    -0.003 C 
BRANCH  26  27
HETATM   27  C3  UNL     1      27.535   6.051  48.409  1.00  0.00    -0.005 C 
HETATM   28  C2  UNL     1      28.801   5.719  48.258  1.00  0.00    -0.031 C 
HETATM   29  C1  UNL     1      29.714   6.635  47.537  1.00  0.00     0.036 C 
ENDBRANCH  26  27
ENDBRANCH  24  25
ENDBRANCH   1  24
TORSDOF 8
ENDMDL
MODEL 8
REMARK VINA RESULT:      -7.8      3.487      7.044
REMARK  8 active torsions:
REMARK  status: ('A' for Active; 'I' for Inactive)
REMARK    1  A    between atoms: C3_3  and  C4_4 
REMARK    2  A    between atoms: C5_5  and  C6_6 
REMARK    3  A    between atoms: C6_6  and  N1_7 
REMARK       I    between atoms: N1_7  and  C7_8 
REMARK       I    between atoms: C7_8  and  N2_10 
REMARK    4  A    between atoms: N2_10  and  C8_11 
REMARK    5  A    between atoms: N2_10  and  C15_19 
REMARK    6  A    between atoms: C8_11  and  C9_12 
REMARK    7  A    between atoms: C15_19  and  C16_20 
REMARK    8  A    between atoms: C21_26  and  O2_27 
ROOT
HETATM    1  N1  UNL     1      22.138   0.957  51.483  1.00  0.00    -0.340 N 
HETATM    2  C7  UNL     1      22.913   0.358  52.513  1.00  0.00     0.319 C 
HETATM    3  O1  UNL     1      22.648  -0.827  52.841  1.00  0.00    -0.247 OA
HETATM    4  N2  UNL     1      23.988   0.885  53.275  1.00  0.00    -0.326 N 
HETATM    5  H10 UNL     1      22.423   1.934  51.266  1.00  0.00     0.164 HD
ENDROOT
BRANCH   4   6
HETATM    6  C8  UNL     1      24.583  -0.042  54.214  1.00  0.00     0.166 C 
BRANCH   6   7
HETATM    7  C9  UNL     1      26.027  -0.241  54.051  1.00  0.00    -0.040 A 
HETATM    8  C10 UNL     1      26.459  -1.042  52.989  1.00  0.00     0.012 A 
HETATM    9  C11 UNL     1      27.786  -1.296  52.744  1.00  0.00     0.043 A 
HETATM   10  C12 UNL     1      28.774  -0.758  53.555  1.00  0.00     0.116 A 
HETATM   11  F1  UNL     1      30.095  -0.971  53.365  1.00  0.00    -0.206 F 
HETATM   12  C13 UNL     1      28.382   0.035  54.608  1.00  0.00     0.043 A 
HETATM   13  C14 UNL     1      27.048   0.261  54.814  1.00  0.00     0.012 A 
ENDBRANCH   6   7
ENDBRANCH   4   6
BRANCH   4  14
HETATM   14  C15 UNL     1      24.616   2.201  53.332  1.00  0.00     0.169 C 
BRANCH  14  15
HETATM   15  C16 UNL     1      24.899   2.781  52.014  1.00  0.00    -0.006 A 
HETATM   16  C17 UNL     1      26.154   2.381  51.532  1.00  0.00     0.012 A 
HETATM   17  C18 UNL     1      26.669   2.783  50.320  1.00  0.00     0.002 A 
HETATM   18  C19 UNL     1      25.925   3.626  49.523  1.00  0.00     0.022 A 
HETATM   19  C20 UNL     1      24.674   4.044  49.969  1.00  0.00     0.044 A 
HETATM   20 BR1  UNL     1      23.581   5.198  48.950  1.00  0.00    -0.048 Br
HETATM   21  C21 UNL     1      24.200   3.616  51.186  1.00  0.00     0.090 A 
BRANCH  21  22
HETATM   22  O2  UNL     1      22.976   3.994  51.677  1.00  0.00    -0.359 OA
HETATM   23  H22 UNL     1      22.166   3.476  51.341  1.00  0.00     0.217 HD
ENDBRANCH  21  22
ENDBRANCH  14  15
ENDBRANCH   4  14
BRANCH   1  24
HETATM   24  C6  UNL     1      21.067   0.263  50.804  1.00  0.00     0.151 C 
BRANCH  24  25
HETATM   25  C5  UNL     1      19.788   0.936  51.091  1.00  0.00    -0.007 C 
HETATM   26  C4  UNL     1      18.635   1.138  50.481  1.00  0.00    -0.003 C 
BRANCH  26  27
HETATM   27  C3  UNL     1      17.598   1.896  51.173  1.00  0.00    -0.005 C 
HETATM   28  C2  UNL     1      17.654   3.211  51.121  1.00  0.00    -0.031 C 
HETATM   29  C1  UNL     1      16.618   4.013  51.813  1.00  0.00     0.036 C 
ENDBRANCH  26  27
ENDBRANCH  24  25
ENDBRANCH   1  24
TORSDOF 8
ENDMDL
MODEL 9
REMARK VINA RESULT:      -7.8      3.930      6.402
REMARK  8 active torsions:
REMARK  status: ('A' for Active; 'I' for Inactive)
REMARK    1  A    between atoms: C3_3  and  C4_4 
REMARK    2  A    between atoms: C5_5  and  C6_6 
REMARK    3  A    between atoms: C6_6  and  N1_7 
REMARK       I    between atoms: N1_7  and  C7_8 
REMARK       I    between atoms: C7_8  and  N2_10 
REMARK    4  A    between atoms: N2_10  and  C8_11 
REMARK    5  A    between atoms: N2_10  and  C15_19 
REMARK    6  A    between atoms: C8_11  and  C9_12 
REMARK    7  A    between atoms: C15_19  and  C16_20 
REMARK    8  A    between atoms: C21_26  and  O2_27 
ROOT
HETATM    1  N1  UNL     1      24.125   5.592  51.633  1.00  0.00    -0.340 N 
HETATM    2  C7  UNL     1      24.818   4.421  51.220  1.00  0.00     0.319 C 
HETATM    3  O1  UNL     1      25.511   4.482  50.172  1.00  0.00    -0.247 OA
HETATM    4  N2  UNL     1      24.871   3.132  51.810  1.00  0.00    -0.326 N 
HETATM    5  H10 UNL     1      23.582   5.463  52.511  1.00  0.00     0.164 HD
ENDROOT
BRANCH   4   6
HETATM    6  C8  UNL     1      25.733   2.185  51.134  1.00  0.00     0.166 C 
BRANCH   6   7
HETATM    7  C9  UNL     1      26.702   1.509  52.001  1.00  0.00    -0.040 A 
HETATM    8  C10 UNL     1      26.659   0.112  52.063  1.00  0.00     0.012 A 
HETATM    9  C11 UNL     1      27.518  -0.623  52.843  1.00  0.00     0.043 A 
HETATM   10  C12 UNL     1      28.484   0.001  53.617  1.00  0.00     0.116 A 
HETATM   11  F1  UNL     1      29.356  -0.667  54.405  1.00  0.00    -0.206 F 
HETATM   12  C13 UNL     1      28.552   1.373  53.579  1.00  0.00     0.043 A 
HETATM   13  C14 UNL     1      27.676   2.065  52.788  1.00  0.00     0.012 A 
ENDBRANCH   6   7
ENDBRANCH   4   6
BRANCH   4  14
HETATM   14  C15 UNL     1      24.203   2.537  52.964  1.00  0.00     0.169 C 
BRANCH  14  15
HETATM   15  C16 UNL     1      22.902   1.933  52.651  1.00  0.00    -0.006 A 
HETATM   16  C17 UNL     1      22.958   0.533  52.700  1.00  0.00     0.012 A 
HETATM   17  C18 UNL     1      21.878  -0.283  52.445  1.00  0.00     0.002 A 
HETATM   18  C19 UNL     1      20.668   0.291  52.122  1.00  0.00     0.022 A 
HETATM   19  C20 UNL     1      20.575   1.679  52.064  1.00  0.00     0.044 A 
HETATM   20 BR1  UNL     1      18.962   2.559  51.630  1.00  0.00    -0.048 Br
HETATM   21  C21 UNL     1      21.680   2.454  52.327  1.00  0.00     0.090 A 
BRANCH  21  22
HETATM   22  O2  UNL     1      21.648   3.824  52.287  1.00  0.00    -0.359 OA
HETATM   23  H22 UNL     1      22.380   4.317  52.796  1.00  0.00     0.217 HD
ENDBRANCH  21  22
ENDBRANCH  14  15
ENDBRANCH   4  14
BRANCH   1  24
HETATM   24  C6  UNL     1      24.187   6.837  50.903  1.00  0.00     0.151 C 
BRANCH  24  25
HETATM   25  C5  UNL     1      22.821   7.345  50.685  1.00  0.00    -0.007 C 
HETATM   26  C4  UNL     1      22.123   7.873  49.696  1.00  0.00    -0.003 C 
BRANCH  26  27
HETATM   27  C3  UNL     1      20.734   8.245  49.938  1.00  0.00    -0.005 C 
HETATM   28  C2  UNL     1      20.329   9.429  49.525  1.00  0.00    -0.031 C 
HETATM   29  C1  UNL     1      18.925   9.841  49.754  1.00  0.00     0.036 C 
ENDBRANCH  26  27
ENDBRANCH  24  25
ENDBRANCH   1  24
TORSDOF 8
ENDMDL
