MODEL 1
REMARK VINA RESULT:      -9.7      0.000      0.000
REMARK  5 active torsions:
REMARK  status: ('A' for Active; 'I' for Inactive)
REMARK    1  A    between atoms: C2_2  and  C3_3 
REMARK    2  A    between atoms: C4_4  and  C5_5 
REMARK    3  A    between atoms: C5_5  and  C6_6 
REMARK    4  A    between atoms: C6_6  and  N1_7 
REMARK    5  A    between atoms: N1_7  and  C7_8 
ROOT
HETATM    1  C7  UNL     1      25.223   1.084  52.040  1.00  0.00     0.141 C 
HETATM    2  C8  UNL     1      26.409   1.741  52.666  1.00  0.00     0.023 C 
HETATM    3  C9  UNL     1      27.258   0.991  53.359  1.00  0.00     0.045 C 
HETATM    4  C10 UNL     1      28.340   1.815  53.884  1.00  0.00     0.097 C 
HETATM    5  N2  UNL     1      29.200   2.462  54.320  1.00  0.00    -0.192 NA
HETATM    6  C11 UNL     1      27.329  -0.452  53.693  1.00  0.00     0.225 C 
HETATM    7  O1  UNL     1      26.065  -1.052  53.914  1.00  0.00    -0.345 OA
HETATM    8  C12 UNL     1      24.799  -0.425  53.931  1.00  0.00     0.077 C 
HETATM    9  C13 UNL     1      24.378   0.538  53.110  1.00  0.00     0.002 C 
HETATM   10  C14 UNL     1      23.159   1.287  53.009  1.00  0.00     0.012 C 
HETATM   11  C15 UNL     1      21.900   1.058  53.343  1.00  0.00     0.001 C 
HETATM   12  C16 UNL     1      21.207  -0.088  53.974  1.00  0.00     0.000 C 
HETATM   13  C17 UNL     1      21.644  -1.070  54.776  1.00  0.00     0.000 C 
HETATM   14  C18 UNL     1      22.949  -1.395  55.340  1.00  0.00     0.003 C 
HETATM   15  C19 UNL     1      24.234  -1.176  55.060  1.00  0.00     0.037 C 
ENDROOT
BRANCH   1  16
HETATM   16  N1  UNL     1      24.566   1.898  51.066  1.00  0.00    -0.387 N 
HETATM   17  H8  UNL     1      23.571   1.924  50.755  1.00  0.00     0.159 HD
BRANCH  16  18
HETATM   18  C6  UNL     1      25.353   2.881  50.357  1.00  0.00     0.085 C 
BRANCH  18  19
HETATM   19  C5  UNL     1      25.580   4.087  49.913  1.00  0.00     0.031 C 
BRANCH  19  20
HETATM   20  C4  UNL     1      25.679   5.379  49.314  1.00  0.00     0.012 C 
HETATM   21  C3  UNL     1      26.818   5.692  48.715  1.00  0.00     0.045 C 
HETATM   22  N5  UNL     1      27.147   6.915  48.007  1.00  0.00    -0.263 NA
HETATM   23  C24 UNL     1      26.391   7.770  47.353  1.00  0.00     0.136 C 
HETATM   24  C23 UNL     1      24.969   7.930  47.027  1.00  0.00     0.135 C 
HETATM   25  N4  UNL     1      23.856   7.619  47.625  1.00  0.00    -0.270 NA
HETATM   26  C22 UNL     1      23.660   6.966  48.901  1.00  0.00     0.139 C 
HETATM   27  C20 UNL     1      24.415   6.061  49.564  1.00  0.00     0.074 C 
HETATM   28  C21 UNL     1      23.811   5.742  50.826  1.00  0.00     0.102 C 
HETATM   29  N3  UNL     1      23.320   5.503  51.850  1.00  0.00    -0.191 NA
BRANCH  21  30
HETATM   30  C2  UNL     1      28.047   4.895  48.567  1.00  0.00     0.056 C 
HETATM   31  C1  UNL     1      29.182   5.855  48.200  1.00  0.00     0.011 C 
ENDBRANCH  21  30
ENDBRANCH  19  20
ENDBRANCH  18  19
ENDBRANCH  16  18
ENDBRANCH   1  16
TORSDOF 5
ENDMDL
MODEL 2
REMARK VINA RESULT:      -9.1      2.268      4.872
REMARK  5 active torsions:
REMARK  status: ('A' for Active; 'I' for Inactive)
REMARK    1  A    between atoms: C2_2  and  C3_3 
REMARK    2  A    between atoms: C4_4  and  C5_5 
REMARK    3  A    between atoms: C5_5  and  C6_6 
REMARK    4  A    between atoms: C6_6  and  N1_7 
REMARK    5  A    between atoms: N1_7  and  C7_8 
ROOT
HETATM    1  C7  UNL     1      25.255   3.203  50.787  1.00  0.00     0.141 C 
HETATM    2  C8  UNL     1      24.462   3.172  49.522  1.00  0.00     0.023 C 
HETATM    3  C9  UNL     1      23.136   3.119  49.605  1.00  0.00     0.045 C 
HETATM    4  C10 UNL     1      22.552   3.098  48.269  1.00  0.00     0.097 C 
HETATM    5  N2  UNL     1      22.074   3.067  47.212  1.00  0.00    -0.192 NA
HETATM    6  C11 UNL     1      22.171   3.081  50.729  1.00  0.00     0.225 C 
HETATM    7  O1  UNL     1      22.625   2.344  51.850  1.00  0.00    -0.345 OA
HETATM    8  C12 UNL     1      23.820   1.600  51.972  1.00  0.00     0.077 C 
HETATM    9  C13 UNL     1      25.022   1.945  51.509  1.00  0.00     0.002 C 
HETATM   10  C14 UNL     1      26.306   1.307  51.523  1.00  0.00     0.012 C 
HETATM   11  C15 UNL     1      26.894   0.422  52.310  1.00  0.00     0.001 C 
HETATM   12  C16 UNL     1      26.464  -0.297  53.530  1.00  0.00     0.000 C 
HETATM   13  C17 UNL     1      25.250  -0.617  54.002  1.00  0.00     0.000 C 
HETATM   14  C18 UNL     1      23.895  -0.392  53.514  1.00  0.00     0.003 C 
HETATM   15  C19 UNL     1      23.257   0.463  52.712  1.00  0.00     0.037 C 
ENDROOT
BRANCH   1  16
HETATM   16  N1  UNL     1      26.620   3.582  50.596  1.00  0.00    -0.387 N 
HETATM   17  H8  UNL     1      27.466   3.402  51.176  1.00  0.00     0.159 HD
BRANCH  16  18
HETATM   18  C6  UNL     1      26.958   4.340  49.413  1.00  0.00     0.085 C 
BRANCH  18  19
HETATM   19  C5  UNL     1      27.272   5.442  48.790  1.00  0.00     0.031 C 
BRANCH  19  20
HETATM   20  C4  UNL     1      27.477   6.731  48.210  1.00  0.00     0.012 C 
HETATM   21  C3  UNL     1      26.409   7.393  47.792  1.00  0.00     0.045 C 
HETATM   22  N5  UNL     1      26.354   8.721  47.210  1.00  0.00    -0.263 NA
HETATM   23  C24 UNL     1      27.133   9.769  47.364  1.00  0.00     0.136 C 
HETATM   24  C23 UNL     1      28.341  10.120  48.120  1.00  0.00     0.135 C 
HETATM   25  N4  UNL     1      29.387   9.460  48.525  1.00  0.00    -0.270 NA
HETATM   26  C22 UNL     1      29.709   8.061  48.339  1.00  0.00     0.139 C 
HETATM   27  C20 UNL     1      28.915   6.973  48.213  1.00  0.00     0.074 C 
HETATM   28  C21 UNL     1      29.713   5.799  48.007  1.00  0.00     0.102 C 
HETATM   29  N3  UNL     1      30.369   4.859  47.825  1.00  0.00    -0.191 NA
BRANCH  21  30
HETATM   30  C2  UNL     1      24.992   6.998  47.825  1.00  0.00     0.056 C 
HETATM   31  C1  UNL     1      24.321   7.767  48.967  1.00  0.00     0.011 C 
ENDBRANCH  21  30
ENDBRANCH  19  20
ENDBRANCH  18  19
ENDBRANCH  16  18
ENDBRANCH   1  16
TORSDOF 5
ENDMDL
MODEL 3
REMARK VINA RESULT:      -9.0      1.193      2.682
REMARK  5 active torsions:
REMARK  status: ('A' for Active; 'I' for Inactive)
REMARK    1  A    between atoms: C2_2  and  C3_3 
REMARK    2  A    between atoms: C4_4  and  C5_5 
REMARK    3  A    between atoms: C5_5  and  C6_6 
REMARK    4  A    between atoms: C6_6  and  N1_7 
REMARK    5  A    between atoms: N1_7  and  C7_8 
ROOT
HETATM    1  C7  UNL     1      24.842   1.493  51.725  1.00  0.00     0.141 C 
HETATM    2  C8  UNL     1      26.052   2.066  52.387  1.00  0.00     0.023 C 
HETATM    3  C9  UNL     1      26.891   1.238  53.002  1.00  0.00     0.045 C 
HETATM    4  C10 UNL     1      28.000   1.988  53.579  1.00  0.00     0.097 C 
HETATM    5  N2  UNL     1      28.881   2.574  54.056  1.00  0.00    -0.192 NA
HETATM    6  C11 UNL     1      26.929  -0.228  53.209  1.00  0.00     0.225 C 
HETATM    7  O1  UNL     1      25.654  -0.816  53.396  1.00  0.00    -0.345 OA
HETATM    8  C12 UNL     1      24.404  -0.162  53.485  1.00  0.00     0.077 C 
HETATM    9  C13 UNL     1      23.997   0.878  52.757  1.00  0.00     0.002 C 
HETATM   10  C14 UNL     1      22.797   1.661  52.739  1.00  0.00     0.012 C 
HETATM   11  C15 UNL     1      21.536   1.435  53.070  1.00  0.00     0.001 C 
HETATM   12  C16 UNL     1      20.823   0.256  53.610  1.00  0.00     0.000 C 
HETATM   13  C17 UNL     1      21.245  -0.801  54.320  1.00  0.00     0.000 C 
HETATM   14  C18 UNL     1      22.548  -1.206  54.834  1.00  0.00     0.003 C 
HETATM   15  C19 UNL     1      23.835  -0.993  54.555  1.00  0.00     0.037 C 
ENDROOT
BRANCH   1  16
HETATM   16  N1  UNL     1      24.193   2.404  50.835  1.00  0.00    -0.387 N 
HETATM   17  H8  UNL     1      23.309   2.315  50.291  1.00  0.00     0.159 HD
BRANCH  16  18
HETATM   18  C6  UNL     1      24.810   3.691  50.608  1.00  0.00     0.085 C 
BRANCH  18  19
HETATM   19  C5  UNL     1      24.862   4.873  50.058  1.00  0.00     0.031 C 
BRANCH  19  20
HETATM   20  C4  UNL     1      24.848   6.085  49.302  1.00  0.00     0.012 C 
HETATM   21  C3  UNL     1      23.668   6.602  48.995  1.00  0.00     0.045 C 
HETATM   22  N5  UNL     1      23.393   7.833  48.277  1.00  0.00    -0.263 NA
HETATM   23  C24 UNL     1      24.081   8.948  48.172  1.00  0.00     0.136 C 
HETATM   24  C23 UNL     1      25.353   9.488  48.666  1.00  0.00     0.135 C 
HETATM   25  N4  UNL     1      26.509   8.969  48.964  1.00  0.00    -0.270 NA
HETATM   26  C22 UNL     1      26.932   7.587  48.895  1.00  0.00     0.139 C 
HETATM   27  C20 UNL     1      26.237   6.435  49.035  1.00  0.00     0.074 C 
HETATM   28  C21 UNL     1      27.104   5.308  48.837  1.00  0.00     0.102 C 
HETATM   29  N3  UNL     1      27.810   4.405  48.660  1.00  0.00    -0.191 NA
BRANCH  21  30
HETATM   30  C2  UNL     1      22.319   6.108  49.313  1.00  0.00     0.056 C 
HETATM   31  C1  UNL     1      21.790   6.926  50.495  1.00  0.00     0.011 C 
ENDBRANCH  21  30
ENDBRANCH  19  20
ENDBRANCH  18  19
ENDBRANCH  16  18
ENDBRANCH   1  16
TORSDOF 5
ENDMDL
MODEL 4
REMARK VINA RESULT:      -9.0      2.193      4.137
REMARK  5 active torsions:
REMARK  status: ('A' for Active; 'I' for Inactive)
REMARK    1  A    between atoms: C2_2  and  C3_3 
REMARK    2  A    between atoms: C4_4  and  C5_5 
REMARK    3  A    between atoms: C5_5  and  C6_6 
REMARK    4  A    between atoms: C6_6  and  N1_7 
REMARK    5  A    between atoms: N1_7  and  C7_8 
ROOT
HETATM    1  C7  UNL     1      25.364   3.137  50.944  1.00  0.00     0.141 C 
HETATM    2  C8  UNL     1      24.529   3.178  49.707  1.00  0.00     0.023 C 
HETATM    3  C9  UNL     1      23.207   3.228  49.835  1.00  0.00     0.045 C 
HETATM    4  C10 UNL     1      22.577   3.262  48.520  1.00  0.00     0.097 C 
HETATM    5  N2  UNL     1      22.064   3.276  47.480  1.00  0.00    -0.192 NA
HETATM    6  C11 UNL     1      22.280   3.256  50.992  1.00  0.00     0.225 C 
HETATM    7  O1  UNL     1      22.713   2.477  52.093  1.00  0.00    -0.345 OA
HETATM    8  C12 UNL     1      23.850   1.642  52.170  1.00  0.00     0.077 C 
HETATM    9  C13 UNL     1      25.059   1.897  51.668  1.00  0.00     0.002 C 
HETATM   10  C14 UNL     1      26.289   1.161  51.634  1.00  0.00     0.012 C 
HETATM   11  C15 UNL     1      26.832   0.226  52.397  1.00  0.00     0.001 C 
HETATM   12  C16 UNL     1      26.389  -0.467  53.627  1.00  0.00     0.000 C 
HETATM   13  C17 UNL     1      25.170  -0.695  54.139  1.00  0.00     0.000 C 
HETATM   14  C18 UNL     1      23.821  -0.361  53.699  1.00  0.00     0.003 C 
HETATM   15  C19 UNL     1      23.225   0.546  52.924  1.00  0.00     0.037 C 
ENDROOT
BRANCH   1  16
HETATM   16  N1  UNL     1      26.747   3.411  50.709  1.00  0.00    -0.387 N 
HETATM   17  H8  UNL     1      27.589   3.229  51.295  1.00  0.00     0.159 HD
BRANCH  16  18
HETATM   18  C6  UNL     1      27.115   4.039  49.460  1.00  0.00     0.085 C 
BRANCH  18  19
HETATM   19  C5  UNL     1      27.526   5.050  48.746  1.00  0.00     0.031 C 
BRANCH  19  20
HETATM   20  C4  UNL     1      27.892   6.266  48.093  1.00  0.00     0.012 C 
HETATM   21  C3  UNL     1      29.154   6.406  47.718  1.00  0.00     0.045 C 
HETATM   22  N5  UNL     1      29.756   7.520  47.009  1.00  0.00    -0.263 NA
HETATM   23  C24 UNL     1      29.247   8.384  46.159  1.00  0.00     0.136 C 
HETATM   24  C23 UNL     1      27.945   8.659  45.541  1.00  0.00     0.135 C 
HETATM   25  N4  UNL     1      26.708   8.519  45.921  1.00  0.00    -0.270 NA
HETATM   26  C22 UNL     1      26.192   8.008  47.172  1.00  0.00     0.139 C 
HETATM   27  C20 UNL     1      26.693   7.094  48.035  1.00  0.00     0.074 C 
HETATM   28  C21 UNL     1      25.822   6.953  49.167  1.00  0.00     0.102 C 
HETATM   29  N3  UNL     1      25.118   6.860  50.084  1.00  0.00    -0.191 NA
BRANCH  21  30
HETATM   30  C2  UNL     1      30.285   5.477  47.876  1.00  0.00     0.056 C 
HETATM   31  C1  UNL     1      31.222   6.062  48.937  1.00  0.00     0.011 C 
ENDBRANCH  21  30
ENDBRANCH  19  20
ENDBRANCH  18  19
ENDBRANCH  16  18
ENDBRANCH   1  16
TORSDOF 5
ENDMDL
MODEL 5
REMARK VINA RESULT:      -8.6      2.684      7.888
REMARK  5 active torsions:
REMARK  status: ('A' for Active; 'I' for Inactive)
REMARK    1  A    between atoms: C2_2  and  C3_3 
REMARK    2  A    between atoms: C4_4  and  C5_5 
REMARK    3  A    between atoms: C5_5  and  C6_6 
REMARK    4  A    between atoms: C6_6  and  N1_7 
REMARK    5  A    between atoms: N1_7  and  C7_8 
ROOT
HETATM    1  C7  UNL     1      26.332   5.561  49.355  1.00  0.00     0.141 C 
HETATM    2  C8  UNL     1      27.222   6.405  48.502  1.00  0.00     0.023 C 
HETATM    3  C9  UNL     1      27.436   7.666  48.862  1.00  0.00     0.045 C 
HETATM    4  C10 UNL     1      28.326   8.315  47.906  1.00  0.00     0.097 C 
HETATM    5  N2  UNL     1      29.022   8.847  47.146  1.00  0.00    -0.192 NA
HETATM    6  C11 UNL     1      26.976   8.512  49.989  1.00  0.00     0.225 C 
HETATM    7  O1  UNL     1      25.645   8.248  50.399  1.00  0.00    -0.345 OA
HETATM    8  C12 UNL     1      24.720   7.355  49.814  1.00  0.00     0.077 C 
HETATM    9  C13 UNL     1      24.983   6.140  49.331  1.00  0.00     0.002 C 
HETATM   10  C14 UNL     1      24.183   5.136  48.694  1.00  0.00     0.012 C 
HETATM   11  C15 UNL     1      22.899   4.817  48.723  1.00  0.00     0.001 C 
HETATM   12  C16 UNL     1      21.729   5.374  49.436  1.00  0.00     0.000 C 
HETATM   13  C17 UNL     1      21.482   6.591  49.944  1.00  0.00     0.000 C 
HETATM   14  C18 UNL     1      22.251   7.828  49.994  1.00  0.00     0.003 C 
HETATM   15  C19 UNL     1      23.529   8.206  49.949  1.00  0.00     0.037 C 
ENDROOT
BRANCH   1  16
HETATM   16  N1  UNL     1      26.427   4.163  49.071  1.00  0.00    -0.387 N 
HETATM   17  H8  UNL     1      26.366   3.643  48.171  1.00  0.00     0.159 HD
BRANCH  16  18
HETATM   18  C6  UNL     1      26.655   3.258  50.175  1.00  0.00     0.085 C 
BRANCH  18  19
HETATM   19  C5  UNL     1      26.266   2.573  51.214  1.00  0.00     0.031 C 
BRANCH  19  20
HETATM   20  C4  UNL     1      25.696   1.764  52.244  1.00  0.00     0.012 C 
HETATM   21  C3  UNL     1      24.376   1.713  52.324  1.00  0.00     0.045 C 
HETATM   22  N5  UNL     1      23.567   0.939  53.248  1.00  0.00    -0.263 NA
HETATM   23  C24 UNL     1      23.801  -0.198  53.864  1.00  0.00     0.136 C 
HETATM   24  C23 UNL     1      24.885  -1.185  53.942  1.00  0.00     0.135 C 
HETATM   25  N4  UNL     1      26.182  -1.123  53.864  1.00  0.00    -0.270 NA
HETATM   26  C22 UNL     1      27.027   0.034  53.659  1.00  0.00     0.139 C 
HETATM   27  C20 UNL     1      26.806   1.193  52.998  1.00  0.00     0.074 C 
HETATM   28  C21 UNL     1      27.948   2.054  53.113  1.00  0.00     0.102 C 
HETATM   29  N3  UNL     1      28.871   2.748  53.226  1.00  0.00    -0.191 NA
BRANCH  21  30
HETATM   30  C2  UNL     1      23.362   2.384  51.494  1.00  0.00     0.056 C 
HETATM   31  C1  UNL     1      22.828   3.580  52.289  1.00  0.00     0.011 C 
ENDBRANCH  21  30
ENDBRANCH  19  20
ENDBRANCH  18  19
ENDBRANCH  16  18
ENDBRANCH   1  16
TORSDOF 5
ENDMDL
MODEL 6
REMARK VINA RESULT:      -8.5      2.014      4.645
REMARK  5 active torsions:
REMARK  status: ('A' for Active; 'I' for Inactive)
REMARK    1  A    between atoms: C2_2  and  C3_3 
REMARK    2  A    between atoms: C4_4  and  C5_5 
REMARK    3  A    between atoms: C5_5  and  C6_6 
REMARK    4  A    between atoms: C6_6  and  N1_7 
REMARK    5  A    between atoms: N1_7  and  C7_8 
ROOT
HETATM    1  C7  UNL     1      24.091   2.277  53.099  1.00  0.00     0.141 C 
HETATM    2  C8  UNL     1      23.100   1.995  52.018  1.00  0.00     0.023 C 
HETATM    3  C9  UNL     1      22.521   0.799  51.985  1.00  0.00     0.045 C 
HETATM    4  C10 UNL     1      21.592   0.724  50.863  1.00  0.00     0.097 C 
HETATM    5  N2  UNL     1      20.861   0.647  49.965  1.00  0.00    -0.192 NA
HETATM    6  C11 UNL     1      22.619  -0.421  52.820  1.00  0.00     0.225 C 
HETATM    7  O1  UNL     1      23.922  -0.674  53.316  1.00  0.00    -0.345 OA
HETATM    8  C12 UNL     1      25.108   0.042  53.039  1.00  0.00     0.077 C 
HETATM    9  C13 UNL     1      25.230   1.366  52.932  1.00  0.00     0.002 C 
HETATM   10  C14 UNL     1      26.332   2.234  52.635  1.00  0.00     0.012 C 
HETATM   11  C15 UNL     1      27.644   2.152  52.782  1.00  0.00     0.001 C 
HETATM   12  C16 UNL     1      28.543   1.108  53.322  1.00  0.00     0.000 C 
HETATM   13  C17 UNL     1      28.401  -0.220  53.453  1.00  0.00     0.000 C 
HETATM   14  C18 UNL     1      27.328  -1.149  53.120  1.00  0.00     0.003 C 
HETATM   15  C19 UNL     1      26.006  -1.116  52.941  1.00  0.00     0.037 C 
ENDROOT
BRANCH   1  16
HETATM   16  N1  UNL     1      24.404   3.664  53.239  1.00  0.00    -0.387 N 
HETATM   17  H8  UNL     1      24.985   4.167  53.943  1.00  0.00     0.159 HD
BRANCH  16  18
HETATM   18  C6  UNL     1      23.861   4.587  52.268  1.00  0.00     0.085 C 
BRANCH  18  19
HETATM   19  C5  UNL     1      23.968   5.412  51.263  1.00  0.00     0.031 C 
BRANCH  19  20
HETATM   20  C4  UNL     1      24.150   6.441  50.290  1.00  0.00     0.012 C 
HETATM   21  C3  UNL     1      23.151   7.289  50.099  1.00  0.00     0.045 C 
HETATM   22  N5  UNL     1      23.109   8.431  49.205  1.00  0.00    -0.263 NA
HETATM   23  C24 UNL     1      24.063   9.214  48.751  1.00  0.00     0.136 C 
HETATM   24  C23 UNL     1      25.519   9.338  48.886  1.00  0.00     0.135 C 
HETATM   25  N4  UNL     1      26.492   8.496  49.072  1.00  0.00    -0.270 NA
HETATM   26  C22 UNL     1      26.436   7.057  49.213  1.00  0.00     0.139 C 
HETATM   27  C20 UNL     1      25.473   6.247  49.710  1.00  0.00     0.074 C 
HETATM   28  C21 UNL     1      25.874   4.874  49.596  1.00  0.00     0.102 C 
HETATM   29  N3  UNL     1      26.202   3.767  49.485  1.00  0.00    -0.191 NA
BRANCH  21  30
HETATM   30  C2  UNL     1      21.832   7.342  50.750  1.00  0.00     0.056 C 
HETATM   31  C1  UNL     1      20.823   7.853  49.716  1.00  0.00     0.011 C 
ENDBRANCH  21  30
ENDBRANCH  19  20
ENDBRANCH  18  19
ENDBRANCH  16  18
ENDBRANCH   1  16
TORSDOF 5
ENDMDL
MODEL 7
REMARK VINA RESULT:      -8.5      2.507      3.673
REMARK  5 active torsions:
REMARK  status: ('A' for Active; 'I' for Inactive)
REMARK    1  A    between atoms: C2_2  and  C3_3 
REMARK    2  A    between atoms: C4_4  and  C5_5 
REMARK    3  A    between atoms: C5_5  and  C6_6 
REMARK    4  A    between atoms: C6_6  and  N1_7 
REMARK    5  A    between atoms: N1_7  and  C7_8 
ROOT
HETATM    1  C7  UNL     1      25.874   2.341  51.723  1.00  0.00     0.141 C 
HETATM    2  C8  UNL     1      27.010   2.400  52.690  1.00  0.00     0.023 C 
HETATM    3  C9  UNL     1      27.565   1.260  53.088  1.00  0.00     0.045 C 
HETATM    4  C10 UNL     1      28.649   1.531  54.024  1.00  0.00     0.097 C 
HETATM    5  N2  UNL     1      29.506   1.732  54.781  1.00  0.00    -0.192 NA
HETATM    6  C11 UNL     1      27.319  -0.170  52.786  1.00  0.00     0.225 C 
HETATM    7  O1  UNL     1      25.952  -0.490  52.596  1.00  0.00    -0.345 OA
HETATM    8  C12 UNL     1      24.834   0.363  52.741  1.00  0.00     0.077 C 
HETATM    9  C13 UNL     1      24.755   1.640  52.365  1.00  0.00     0.002 C 
HETATM   10  C14 UNL     1      23.727   2.635  52.461  1.00  0.00     0.012 C 
HETATM   11  C15 UNL     1      22.407   2.601  52.530  1.00  0.00     0.001 C 
HETATM   12  C16 UNL     1      21.417   1.501  52.540  1.00  0.00     0.000 C 
HETATM   13  C17 UNL     1      21.512   0.211  52.894  1.00  0.00     0.000 C 
HETATM   14  C18 UNL     1      22.605  -0.609  53.403  1.00  0.00     0.003 C 
HETATM   15  C19 UNL     1      23.939  -0.611  53.381  1.00  0.00     0.037 C 
ENDROOT
BRANCH   1  16
HETATM   16  N1  UNL     1      25.571   3.601  51.121  1.00  0.00    -0.387 N 
HETATM   17  H8  UNL     1      25.726   4.575  51.457  1.00  0.00     0.159 HD
BRANCH  16  18
HETATM   18  C6  UNL     1      24.947   3.601  49.816  1.00  0.00     0.085 C 
BRANCH  18  19
HETATM   19  C5  UNL     1      23.953   3.832  49.004  1.00  0.00     0.031 C 
BRANCH  19  20
HETATM   20  C4  UNL     1      22.789   4.186  48.257  1.00  0.00     0.012 C 
HETATM   21  C3  UNL     1      22.073   3.202  47.735  1.00  0.00     0.045 C 
HETATM   22  N5  UNL     1      20.840   3.302  46.976  1.00  0.00    -0.263 NA
HETATM   23  C24 UNL     1      19.876   4.196  46.999  1.00  0.00     0.136 C 
HETATM   24  C23 UNL     1      19.566   5.436  47.720  1.00  0.00     0.135 C 
HETATM   25  N4  UNL     1      20.279   6.398  48.227  1.00  0.00    -0.270 NA
HETATM   26  C22 UNL     1      21.717   6.556  48.240  1.00  0.00     0.139 C 
HETATM   27  C20 UNL     1      22.714   5.642  48.251  1.00  0.00     0.074 C 
HETATM   28  C21 UNL     1      23.989   6.299  48.220  1.00  0.00     0.102 C 
HETATM   29  N3  UNL     1      25.014   6.842  48.178  1.00  0.00    -0.191 NA
BRANCH  21  30
HETATM   30  C2  UNL     1      22.294   1.749  47.798  1.00  0.00     0.056 C 
HETATM   31  C1  UNL     1      21.352   1.180  48.863  1.00  0.00     0.011 C 
ENDBRANCH  21  30
ENDBRANCH  19  20
ENDBRANCH  18  19
ENDBRANCH  16  18
ENDBRANCH   1  16
TORSDOF 5
ENDMDL
MODEL 8
REMARK VINA RESULT:      -8.2      2.040      3.933
REMARK  5 active torsions:
REMARK  status: ('A' for Active; 'I' for Inactive)
REMARK    1  A    between atoms: C2_2  and  C3_3 
REMARK    2  A    between atoms: C4_4  and  C5_5 
REMARK    3  A    between atoms: C5_5  and  C6_6 
REMARK    4  A    between atoms: C6_6  and  N1_7 
REMARK    5  A    between atoms: N1_7  and  C7_8 
ROOT
HETATM    1  C7  UNL     1      25.030   3.071  50.835  1.00  0.00     0.141 C 
HETATM    2  C8  UNL     1      24.305   2.924  49.538  1.00  0.00     0.023 C 
HETATM    3  C9  UNL     1      22.987   2.753  49.563  1.00  0.00     0.045 C 
HETATM    4  C10 UNL     1      22.472   2.632  48.204  1.00  0.00     0.097 C 
HETATM    5  N2  UNL     1      22.052   2.520  47.129  1.00  0.00    -0.192 NA
HETATM    6  C11 UNL     1      21.977   2.667  50.643  1.00  0.00     0.225 C 
HETATM    7  O1  UNL     1      22.439   2.013  51.812  1.00  0.00    -0.345 OA
HETATM    8  C12 UNL     1      23.689   1.386  52.016  1.00  0.00     0.077 C 
HETATM    9  C13 UNL     1      24.876   1.824  51.595  1.00  0.00     0.002 C 
HETATM   10  C14 UNL     1      26.210   1.307  51.692  1.00  0.00     0.012 C 
HETATM   11  C15 UNL     1      26.835   0.507  52.539  1.00  0.00     0.001 C 
HETATM   12  C16 UNL     1      26.413  -0.206  53.766  1.00  0.00     0.000 C 
HETATM   13  C17 UNL     1      25.211  -0.618  54.195  1.00  0.00     0.000 C 
HETATM   14  C18 UNL     1      23.866  -0.535  53.638  1.00  0.00     0.003 C 
HETATM   15  C19 UNL     1      23.195   0.229  52.775  1.00  0.00     0.037 C 
ENDROOT
BRANCH   1  16
HETATM   16  N1  UNL     1      26.363   3.566  50.692  1.00  0.00    -0.387 N 
HETATM   17  H8  UNL     1      27.230   3.362  51.232  1.00  0.00     0.159 HD
BRANCH  16  18
HETATM   18  C6  UNL     1      26.629   4.510  49.630  1.00  0.00     0.085 C 
BRANCH  18  19
HETATM   19  C5  UNL     1      26.517   5.677  49.058  1.00  0.00     0.031 C 
BRANCH  19  20
HETATM   20  C4  UNL     1      26.303   6.864  48.293  1.00  0.00     0.012 C 
HETATM   21  C3  UNL     1      27.369   7.562  47.933  1.00  0.00     0.045 C 
HETATM   22  N5  UNL     1      27.415   8.769  47.129  1.00  0.00    -0.263 NA
HETATM   23  C24 UNL     1      26.615   9.213  46.185  1.00  0.00     0.136 C 
HETATM   24  C23 UNL     1      25.384   8.779  45.513  1.00  0.00     0.135 C 
HETATM   25  N4  UNL     1      24.341   8.093  45.878  1.00  0.00    -0.270 NA
HETATM   26  C22 UNL     1      24.047   7.496  47.163  1.00  0.00     0.139 C 
HETATM   27  C20 UNL     1      24.862   7.006  48.125  1.00  0.00     0.074 C 
HETATM   28  C21 UNL     1      24.089   6.553  49.246  1.00  0.00     0.102 C 
HETATM   29  N3  UNL     1      23.454   6.205  50.152  1.00  0.00    -0.191 NA
BRANCH  21  30
HETATM   30  C2  UNL     1      28.792   7.307  48.210  1.00  0.00     0.056 C 
HETATM   31  C1  UNL     1      29.484   7.030  46.872  1.00  0.00     0.011 C 
ENDBRANCH  21  30
ENDBRANCH  19  20
ENDBRANCH  18  19
ENDBRANCH  16  18
ENDBRANCH   1  16
TORSDOF 5
ENDMDL
MODEL 9
REMARK VINA RESULT:      -8.2      4.916      8.786
REMARK  5 active torsions:
REMARK  status: ('A' for Active; 'I' for Inactive)
REMARK    1  A    between atoms: C2_2  and  C3_3 
REMARK    2  A    between atoms: C4_4  and  C5_5 
REMARK    3  A    between atoms: C5_5  and  C6_6 
REMARK    4  A    between atoms: C6_6  and  N1_7 
REMARK    5  A    between atoms: N1_7  and  C7_8 
ROOT
HETATM    1  C7  UNL     1      28.226   6.848  48.488  1.00  0.00     0.141 C 
HETATM    2  C8  UNL     1      28.396   7.418  47.118  1.00  0.00     0.023 C 
HETATM    3  C9  UNL     1      27.533   8.338  46.702  1.00  0.00     0.045 C 
HETATM    4  C10 UNL     1      27.870   8.765  45.349  1.00  0.00     0.097 C 
HETATM    5  N2  UNL     1      28.120   9.103  44.267  1.00  0.00    -0.192 NA
HETATM    6  C11 UNL     1      26.349   8.994  47.306  1.00  0.00     0.225 C 
HETATM    7  O1  UNL     1      25.582   8.141  48.137  1.00  0.00    -0.345 OA
HETATM    8  C12 UNL     1      25.774   6.761  48.374  1.00  0.00     0.077 C 
HETATM    9  C13 UNL     1      26.941   6.137  48.536  1.00  0.00     0.002 C 
HETATM   10  C14 UNL     1      27.307   4.768  48.754  1.00  0.00     0.012 C 
HETATM   11  C15 UNL     1      26.703   3.721  49.291  1.00  0.00     0.001 C 
HETATM   12  C16 UNL     1      25.371   3.518  49.902  1.00  0.00     0.000 C 
HETATM   13  C17 UNL     1      24.207   4.168  49.753  1.00  0.00     0.000 C 
HETATM   14  C18 UNL     1      23.794   5.310  48.947  1.00  0.00     0.003 C 
HETATM   15  C19 UNL     1      24.357   6.372  48.369  1.00  0.00     0.037 C 
ENDROOT
BRANCH   1  16
HETATM   16  N1  UNL     1      29.368   6.125  48.952  1.00  0.00    -0.387 N 
HETATM   17  H8  UNL     1      29.465   5.406  49.700  1.00  0.00     0.159 HD
BRANCH  16  18
HETATM   18  C6  UNL     1      30.641   6.379  48.316  1.00  0.00     0.085 C 
BRANCH  18  19
HETATM   19  C5  UNL     1      31.485   6.278  47.326  1.00  0.00     0.031 C 
BRANCH  19  20
HETATM   20  C4  UNL     1      32.443   5.993  46.307  1.00  0.00     0.012 C 
HETATM   21  C3  UNL     1      33.290   4.998  46.522  1.00  0.00     0.045 C 
HETATM   22  N5  UNL     1      34.319   4.493  45.632  1.00  0.00    -0.263 NA
HETATM   23  C24 UNL     1      34.402   4.483  44.320  1.00  0.00     0.136 C 
HETATM   24  C23 UNL     1      33.594   4.929  43.179  1.00  0.00     0.135 C 
HETATM   25  N4  UNL     1      32.764   5.911  42.977  1.00  0.00    -0.270 NA
HETATM   26  C22 UNL     1      32.349   6.953  43.891  1.00  0.00     0.139 C 
HETATM   27  C20 UNL     1      32.227   6.961  45.238  1.00  0.00     0.074 C 
HETATM   28  C21 UNL     1      31.814   8.258  45.691  1.00  0.00     0.102 C 
HETATM   29  N3  UNL     1      31.494   9.316  46.046  1.00  0.00    -0.191 NA
BRANCH  21  30
HETATM   30  C2  UNL     1      33.412   4.109  47.689  1.00  0.00     0.056 C 
HETATM   31  C1  UNL     1      34.898   3.787  47.876  1.00  0.00     0.011 C 
ENDBRANCH  21  30
ENDBRANCH  19  20
ENDBRANCH  18  19
ENDBRANCH  16  18
ENDBRANCH   1  16
TORSDOF 5
ENDMDL
