MODEL 1
REMARK VINA RESULT:      -7.4      0.000      0.000
REMARK  4 active torsions:
REMARK  status: ('A' for Active; 'I' for Inactive)
REMARK    1  A    between atoms: C1_2  and  N1_3 
REMARK    2  A    between atoms: N1_3  and  C2_4 
REMARK    3  A    between atoms: C7_11  and  N4_12 
REMARK    4  A    between atoms: N4_12  and  C8_13 
ROOT
HETATM    1  C2  UNL     1      22.152   0.661  52.295  1.00  0.00     0.053 A 
HETATM    2  C3  UNL     1      20.980   0.897  52.914  1.00  0.00     0.030 A 
HETATM    3  C4  UNL     1      20.909   0.209  54.214  1.00  0.00     0.030 A 
HETATM    4  C5  UNL     1      22.043  -0.461  54.405  1.00  0.00     0.053 A 
HETATM    5  N2  UNL     1      22.553  -1.281  55.457  1.00  0.00    -0.245 NA
HETATM    6  C6  UNL     1      23.872  -1.422  55.506  1.00  0.00     0.235 C 
HETATM    7  N3  UNL     1      24.652  -0.787  54.512  1.00  0.00    -0.227 NA
HETATM    8  C7  UNL     1      24.244  -0.093  53.511  1.00  0.00     0.121 C 
HETATM    9  C14 UNL     1      22.816  -0.257  53.186  1.00  0.00     0.159 A 
ENDROOT
BRANCH   8  10
HETATM   10  N4  UNL     1      24.991   0.580  52.511  1.00  0.00    -0.343 N 
HETATM   11  H4  UNL     1      24.645   0.880  51.576  1.00  0.00     0.167 HD
BRANCH  10  12
HETATM   12  C8  UNL     1      26.355   0.819  52.936  1.00  0.00     0.034 A 
HETATM   13  C9  UNL     1      26.796   2.096  53.294  1.00  0.00     0.029 A 
HETATM   14  C10 UNL     1      28.121   2.268  53.702  1.00  0.00     0.004 A 
HETATM   15  C11 UNL     1      28.989   1.176  53.750  1.00  0.00     0.019 A 
HETATM   16  C12 UNL     1      28.585  -0.098  53.404  1.00  0.00     0.013 A 
HETATM   17 BR1  UNL     1      29.774  -1.586  53.473  1.00  0.00    -0.051 Br
HETATM   18  C13 UNL     1      27.269  -0.205  53.011  1.00  0.00     0.048 A 
ENDBRANCH  10  12
ENDBRANCH   8  10
BRANCH   1  19
HETATM   19  N1  UNL     1      22.495   1.204  51.030  1.00  0.00    -0.237 NA
BRANCH  19  20
HETATM   20  C1  UNL     1      21.746   1.141  50.008  1.00  0.00     0.163 C 
HETATM   21  S1  UNL     1      21.011   1.663  48.676  1.00  0.00    -0.055 SA
ENDBRANCH  19  20
ENDBRANCH   1  19
TORSDOF 4
ENDMDL
MODEL 2
REMARK VINA RESULT:      -7.0      2.429      4.169
REMARK  4 active torsions:
REMARK  status: ('A' for Active; 'I' for Inactive)
REMARK    1  A    between atoms: C1_2  and  N1_3 
REMARK    2  A    between atoms: N1_3  and  C2_4 
REMARK    3  A    between atoms: C7_11  and  N4_12 
REMARK    4  A    between atoms: N4_12  and  C8_13 
ROOT
HETATM    1  C2  UNL     1      21.722   1.139  51.964  1.00  0.00     0.053 A 
HETATM    2  C3  UNL     1      21.107   0.402  51.020  1.00  0.00     0.030 A 
HETATM    3  C4  UNL     1      21.471   0.849  49.664  1.00  0.00     0.030 A 
HETATM    4  C5  UNL     1      22.317   1.871  49.764  1.00  0.00     0.053 A 
HETATM    5  N2  UNL     1      23.009   2.690  48.821  1.00  0.00    -0.245 NA
HETATM    6  C6  UNL     1      24.091   3.315  49.269  1.00  0.00     0.235 C 
HETATM    7  N3  UNL     1      24.448   3.151  50.627  1.00  0.00    -0.227 NA
HETATM    8  C7  UNL     1      23.829   2.480  51.531  1.00  0.00     0.121 C 
HETATM    9  C14 UNL     1      22.440   2.126  51.195  1.00  0.00     0.159 A 
ENDROOT
BRANCH   8  10
HETATM   10  N4  UNL     1      24.167   2.269  52.892  1.00  0.00    -0.343 N 
HETATM   11  H4  UNL     1      23.681   2.670  53.720  1.00  0.00     0.167 HD
BRANCH  10  12
HETATM   12  C8  UNL     1      25.316   1.397  53.026  1.00  0.00     0.034 A 
HETATM   13  C9  UNL     1      25.249   0.041  52.694  1.00  0.00     0.029 A 
HETATM   14  C10 UNL     1      26.390  -0.752  52.838  1.00  0.00     0.004 A 
HETATM   15  C11 UNL     1      27.579  -0.193  53.307  1.00  0.00     0.019 A 
HETATM   16  C12 UNL     1      27.680   1.142  53.643  1.00  0.00     0.013 A 
HETATM   17 BR1  UNL     1      29.307   1.902  54.283  1.00  0.00    -0.051 Br
HETATM   18  C13 UNL     1      26.523   1.873  53.481  1.00  0.00     0.048 A 
ENDBRANCH  10  12
ENDBRANCH   8  10
BRANCH   1  19
HETATM   19  N1  UNL     1      21.561   0.926  53.357  1.00  0.00    -0.237 NA
BRANCH  19  20
HETATM   20  C1  UNL     1      21.714  -0.201  53.920  1.00  0.00     0.163 C 
HETATM   21  S1  UNL     1      22.384  -1.288  54.897  1.00  0.00    -0.055 SA
ENDBRANCH  19  20
ENDBRANCH   1  19
TORSDOF 4
ENDMDL
MODEL 3
REMARK VINA RESULT:      -7.0      3.820      5.420
REMARK  4 active torsions:
REMARK  status: ('A' for Active; 'I' for Inactive)
REMARK    1  A    between atoms: C1_2  and  N1_3 
REMARK    2  A    between atoms: N1_3  and  C2_4 
REMARK    3  A    between atoms: C7_11  and  N4_12 
REMARK    4  A    between atoms: N4_12  and  C8_13 
ROOT
HETATM    1  C2  UNL     1      25.177  -0.286  53.674  1.00  0.00     0.053 A 
HETATM    2  C3  UNL     1      25.341  -0.535  54.987  1.00  0.00     0.030 A 
HETATM    3  C4  UNL     1      26.612   0.018  55.487  1.00  0.00     0.030 A 
HETATM    4  C5  UNL     1      27.244   0.614  54.479  1.00  0.00     0.053 A 
HETATM    5  N2  UNL     1      28.477   1.322  54.353  1.00  0.00    -0.245 NA
HETATM    6  C6  UNL     1      28.579   2.146  53.316  1.00  0.00     0.235 C 
HETATM    7  N3  UNL     1      27.491   2.230  52.417  1.00  0.00    -0.227 NA
HETATM    8  C7  UNL     1      26.389   1.572  52.446  1.00  0.00     0.121 C 
HETATM    9  C14 UNL     1      26.404   0.378  53.310  1.00  0.00     0.159 A 
ENDROOT
BRANCH   8  10
HETATM   10  N4  UNL     1      25.266   1.646  51.583  1.00  0.00    -0.343 N 
HETATM   11  H4  UNL     1      24.893   0.879  50.986  1.00  0.00     0.167 HD
BRANCH  10  12
HETATM   12  C8  UNL     1      24.659   2.960  51.610  1.00  0.00     0.034 A 
HETATM   13  C9  UNL     1      23.971   3.425  52.734  1.00  0.00     0.029 A 
HETATM   14  C10 UNL     1      23.410   4.704  52.707  1.00  0.00     0.004 A 
HETATM   15  C11 UNL     1      23.538   5.504  51.570  1.00  0.00     0.019 A 
HETATM   16  C12 UNL     1      24.211   5.075  50.444  1.00  0.00     0.013 A 
HETATM   17 BR1  UNL     1      24.384   6.171  48.894  1.00  0.00    -0.051 Br
HETATM   18  C13 UNL     1      24.743   3.807  50.530  1.00  0.00     0.048 A 
ENDBRANCH  10  12
ENDBRANCH   8  10
BRANCH   1  19
HETATM   19  N1  UNL     1      24.040  -0.697  52.933  1.00  0.00    -0.237 NA
BRANCH  19  20
HETATM   20  C1  UNL     1      22.856  -0.675  53.387  1.00  0.00     0.163 C 
HETATM   21  S1  UNL     1      21.570  -1.205  54.195  1.00  0.00    -0.055 SA
ENDBRANCH  19  20
ENDBRANCH   1  19
TORSDOF 4
ENDMDL
MODEL 4
REMARK VINA RESULT:      -6.8      2.419      4.094
REMARK  4 active torsions:
REMARK  status: ('A' for Active; 'I' for Inactive)
REMARK    1  A    between atoms: C1_2  and  N1_3 
REMARK    2  A    between atoms: N1_3  and  C2_4 
REMARK    3  A    between atoms: C7_11  and  N4_12 
REMARK    4  A    between atoms: N4_12  and  C8_13 
ROOT
HETATM    1  C2  UNL     1      22.781   1.437  52.132  1.00  0.00     0.053 A 
HETATM    2  C3  UNL     1      22.043   1.160  51.041  1.00  0.00     0.030 A 
HETATM    3  C4  UNL     1      22.565   1.848  49.847  1.00  0.00     0.030 A 
HETATM    4  C5  UNL     1      23.634   2.558  50.198  1.00  0.00     0.053 A 
HETATM    5  N2  UNL     1      24.549   3.399  49.494  1.00  0.00    -0.245 NA
HETATM    6  C6  UNL     1      25.732   3.587  50.065  1.00  0.00     0.235 C 
HETATM    7  N3  UNL     1      25.978   2.979  51.317  1.00  0.00    -0.227 NA
HETATM    8  C7  UNL     1      25.173   2.268  52.021  1.00  0.00     0.121 C 
HETATM    9  C14 UNL     1      23.755   2.379  51.640  1.00  0.00     0.159 A 
ENDROOT
BRANCH   8  10
HETATM   10  N4  UNL     1      25.388   1.621  53.265  1.00  0.00    -0.343 N 
HETATM   11  H4  UNL     1      25.021   1.921  54.191  1.00  0.00     0.167 HD
BRANCH  10  12
HETATM   12  C8  UNL     1      26.214   0.440  53.114  1.00  0.00     0.034 A 
HETATM   13  C9  UNL     1      25.683  -0.771  52.661  1.00  0.00     0.029 A 
HETATM   14  C10 UNL     1      26.527  -1.876  52.529  1.00  0.00     0.004 A 
HETATM   15  C11 UNL     1      27.882  -1.768  52.847  1.00  0.00     0.019 A 
HETATM   16  C12 UNL     1      28.437  -0.587  53.296  1.00  0.00     0.013 A 
HETATM   17 BR1  UNL     1      30.288  -0.444  53.728  1.00  0.00    -0.051 Br
HETATM   18  C13 UNL     1      27.557   0.467  53.406  1.00  0.00     0.048 A 
ENDBRANCH  10  12
ENDBRANCH   8  10
BRANCH   1  19
HETATM   19  N1  UNL     1      22.511   0.904  53.418  1.00  0.00    -0.237 NA
BRANCH  19  20
HETATM   20  C1  UNL     1      21.999  -0.240  53.615  1.00  0.00     0.163 C 
HETATM   21  S1  UNL     1      21.615  -1.569  54.436  1.00  0.00    -0.055 SA
ENDBRANCH  19  20
ENDBRANCH   1  19
TORSDOF 4
ENDMDL
MODEL 5
REMARK VINA RESULT:      -6.8      3.301      5.183
REMARK  4 active torsions:
REMARK  status: ('A' for Active; 'I' for Inactive)
REMARK    1  A    between atoms: C1_2  and  N1_3 
REMARK    2  A    between atoms: N1_3  and  C2_4 
REMARK    3  A    between atoms: C7_11  and  N4_12 
REMARK    4  A    between atoms: N4_12  and  C8_13 
ROOT
HETATM    1  C2  UNL     1      21.165  -0.218  53.501  1.00  0.00     0.053 A 
HETATM    2  C3  UNL     1      21.211  -1.055  54.554  1.00  0.00     0.030 A 
HETATM    3  C4  UNL     1      22.600  -1.334  54.961  1.00  0.00     0.030 A 
HETATM    4  C5  UNL     1      23.422  -0.668  54.155  1.00  0.00     0.053 A 
HETATM    5  N2  UNL     1      24.841  -0.534  54.067  1.00  0.00    -0.245 NA
HETATM    6  C6  UNL     1      25.292   0.540  53.430  1.00  0.00     0.235 C 
HETATM    7  N3  UNL     1      24.349   1.434  52.872  1.00  0.00    -0.227 NA
HETATM    8  C7  UNL     1      23.069   1.330  52.867  1.00  0.00     0.121 C 
HETATM    9  C14 UNL     1      22.556  -0.014  53.182  1.00  0.00     0.159 A 
ENDROOT
BRANCH   8  10
HETATM   10  N4  UNL     1      22.091   2.214  52.343  1.00  0.00    -0.343 N 
HETATM   11  H4  UNL     1      21.318   2.667  52.874  1.00  0.00     0.167 HD
BRANCH  10  12
HETATM   12  C8  UNL     1      22.279   2.436  50.925  1.00  0.00     0.034 A 
HETATM   13  C9  UNL     1      21.888   1.485  49.977  1.00  0.00     0.029 A 
HETATM   14  C10 UNL     1      22.088   1.755  48.621  1.00  0.00     0.004 A 
HETATM   15  C11 UNL     1      22.670   2.959  48.222  1.00  0.00     0.019 A 
HETATM   16  C12 UNL     1      23.066   3.919  49.132  1.00  0.00     0.013 A 
HETATM   17 BR1  UNL     1      23.860   5.563  48.582  1.00  0.00    -0.051 Br
HETATM   18  C13 UNL     1      22.844   3.597  50.453  1.00  0.00     0.048 A 
ENDBRANCH  10  12
ENDBRANCH   8  10
BRANCH   1  19
HETATM   19  N1  UNL     1      19.958   0.227  52.904  1.00  0.00    -0.237 NA
BRANCH  19  20
HETATM   20  C1  UNL     1      18.951  -0.519  52.708  1.00  0.00     0.163 C 
HETATM   21  S1  UNL     1      17.628  -1.352  53.088  1.00  0.00    -0.055 SA
ENDBRANCH  19  20
ENDBRANCH   1  19
TORSDOF 4
ENDMDL
MODEL 6
REMARK VINA RESULT:      -6.8      4.475      5.434
REMARK  4 active torsions:
REMARK  status: ('A' for Active; 'I' for Inactive)
REMARK    1  A    between atoms: C1_2  and  N1_3 
REMARK    2  A    between atoms: N1_3  and  C2_4 
REMARK    3  A    between atoms: C7_11  and  N4_12 
REMARK    4  A    between atoms: N4_12  and  C8_13 
ROOT
HETATM    1  C2  UNL     1      23.794   2.390  50.761  1.00  0.00     0.053 A 
HETATM    2  C3  UNL     1      23.011   2.530  51.848  1.00  0.00     0.030 A 
HETATM    3  C4  UNL     1      23.786   2.390  53.093  1.00  0.00     0.030 A 
HETATM    4  C5  UNL     1      25.059   2.161  52.780  1.00  0.00     0.053 A 
HETATM    5  N2  UNL     1      26.253   1.960  53.537  1.00  0.00    -0.245 NA
HETATM    6  C6  UNL     1      27.396   2.195  52.905  1.00  0.00     0.235 C 
HETATM    7  N3  UNL     1      27.345   2.587  51.547  1.00  0.00    -0.227 NA
HETATM    8  C7  UNL     1      26.307   2.720  50.803  1.00  0.00     0.121 C 
HETATM    9  C14 UNL     1      25.085   2.083  51.324  1.00  0.00     0.159 A 
ENDROOT
BRANCH   8  10
HETATM   10  N4  UNL     1      26.210   3.135  49.450  1.00  0.00    -0.343 N 
HETATM   11  H4  UNL     1      25.992   2.531  48.631  1.00  0.00     0.167 HD
BRANCH  10  12
HETATM   12  C8  UNL     1      26.460   4.555  49.309  1.00  0.00     0.034 A 
HETATM   13  C9  UNL     1      25.609   5.507  49.877  1.00  0.00     0.029 A 
HETATM   14  C10 UNL     1      25.901   6.863  49.714  1.00  0.00     0.004 A 
HETATM   15  C11 UNL     1      27.030   7.258  48.993  1.00  0.00     0.019 A 
HETATM   16  C12 UNL     1      27.890   6.343  48.420  1.00  0.00     0.013 A 
HETATM   17 BR1  UNL     1      29.430   6.886  47.437  1.00  0.00    -0.051 Br
HETATM   18  C13 UNL     1      27.550   5.022  48.614  1.00  0.00     0.048 A 
ENDBRANCH  10  12
ENDBRANCH   8  10
BRANCH   1  19
HETATM   19  N1  UNL     1      23.314   2.484  49.430  1.00  0.00    -0.237 NA
BRANCH  19  20
HETATM   20  C1  UNL     1      22.652   3.472  48.987  1.00  0.00     0.163 C 
HETATM   21  S1  UNL     1      21.985   4.936  49.006  1.00  0.00    -0.055 SA
ENDBRANCH  19  20
ENDBRANCH   1  19
TORSDOF 4
ENDMDL
MODEL 7
REMARK VINA RESULT:      -6.7      3.166      4.108
REMARK  4 active torsions:
REMARK  status: ('A' for Active; 'I' for Inactive)
REMARK    1  A    between atoms: C1_2  and  N1_3 
REMARK    2  A    between atoms: N1_3  and  C2_4 
REMARK    3  A    between atoms: C7_11  and  N4_12 
REMARK    4  A    between atoms: N4_12  and  C8_13 
ROOT
HETATM    1  C2  UNL     1      21.229  -0.141  52.819  1.00  0.00     0.053 A 
HETATM    2  C3  UNL     1      20.815  -0.437  54.065  1.00  0.00     0.030 A 
HETATM    3  C4  UNL     1      21.950  -0.759  54.948  1.00  0.00     0.030 A 
HETATM    4  C5  UNL     1      23.077  -0.664  54.247  1.00  0.00     0.053 A 
HETATM    5  N2  UNL     1      24.460  -0.839  54.553  1.00  0.00    -0.245 NA
HETATM    6  C6  UNL     1      25.322  -0.243  53.737  1.00  0.00     0.235 C 
HETATM    7  N3  UNL     1      24.813   0.477  52.632  1.00  0.00    -0.227 NA
HETATM    8  C7  UNL     1      23.587   0.613  52.276  1.00  0.00     0.121 C 
HETATM    9  C14 UNL     1      22.654  -0.348  52.888  1.00  0.00     0.159 A 
ENDROOT
BRANCH   8  10
HETATM   10  N4  UNL     1      23.035   1.347  51.195  1.00  0.00    -0.343 N 
HETATM   11  H4  UNL     1      22.474   0.961  50.407  1.00  0.00     0.167 HD
BRANCH  10  12
HETATM   12  C8  UNL     1      23.345   2.758  51.294  1.00  0.00     0.034 A 
HETATM   13  C9  UNL     1      22.759   3.569  52.270  1.00  0.00     0.029 A 
HETATM   14  C10 UNL     1      23.099   4.922  52.323  1.00  0.00     0.004 A 
HETATM   15  C11 UNL     1      24.014   5.454  51.412  1.00  0.00     0.019 A 
HETATM   16  C12 UNL     1      24.611   4.680  50.437  1.00  0.00     0.013 A 
HETATM   17 BR1  UNL     1      25.860   5.410  49.196  1.00  0.00    -0.051 Br
HETATM   18  C13 UNL     1      24.237   3.354  50.434  1.00  0.00     0.048 A 
ENDBRANCH  10  12
ENDBRANCH   8  10
BRANCH   1  19
HETATM   19  N1  UNL     1      20.350   0.213  51.763  1.00  0.00    -0.237 NA
BRANCH  19  20
HETATM   20  C1  UNL     1      19.555   1.200  51.809  1.00  0.00     0.163 C 
HETATM   21  S1  UNL     1      19.059   2.714  51.584  1.00  0.00    -0.055 SA
ENDBRANCH  19  20
ENDBRANCH   1  19
TORSDOF 4
ENDMDL
MODEL 8
REMARK VINA RESULT:      -6.7      3.388      4.574
REMARK  4 active torsions:
REMARK  status: ('A' for Active; 'I' for Inactive)
REMARK    1  A    between atoms: C1_2  and  N1_3 
REMARK    2  A    between atoms: N1_3  and  C2_4 
REMARK    3  A    between atoms: C7_11  and  N4_12 
REMARK    4  A    between atoms: N4_12  and  C8_13 
ROOT
HETATM    1  C2  UNL     1      21.491   0.403  53.469  1.00  0.00     0.053 A 
HETATM    2  C3  UNL     1      21.352  -0.553  54.405  1.00  0.00     0.030 A 
HETATM    3  C4  UNL     1      22.651  -1.140  54.775  1.00  0.00     0.030 A 
HETATM    4  C5  UNL     1      23.606  -0.546  54.064  1.00  0.00     0.053 A 
HETATM    5  N2  UNL     1      25.026  -0.674  53.995  1.00  0.00    -0.245 NA
HETATM    6  C6  UNL     1      25.687   0.367  53.503  1.00  0.00     0.235 C 
HETATM    7  N3  UNL     1      24.944   1.487  53.064  1.00  0.00    -0.227 NA
HETATM    8  C7  UNL     1      23.668   1.629  53.043  1.00  0.00     0.121 C 
HETATM    9  C14 UNL     1      22.904   0.378  53.181  1.00  0.00     0.159 A 
ENDROOT
BRANCH   8  10
HETATM   10  N4  UNL     1      22.888   2.742  52.637  1.00  0.00    -0.343 N 
HETATM   11  H4  UNL     1      22.060   3.132  53.132  1.00  0.00     0.167 HD
BRANCH  10  12
HETATM   12  C8  UNL     1      23.378   3.312  51.399  1.00  0.00     0.034 A 
HETATM   13  C9  UNL     1      23.257   2.635  50.182  1.00  0.00     0.029 A 
HETATM   14  C10 UNL     1      23.742   3.235  49.018  1.00  0.00     0.004 A 
HETATM   15  C11 UNL     1      24.341   4.495  49.074  1.00  0.00     0.019 A 
HETATM   16  C12 UNL     1      24.476   5.191  50.259  1.00  0.00     0.013 A 
HETATM   17 BR1  UNL     1      25.293   6.911  50.330  1.00  0.00    -0.051 Br
HETATM   18  C13 UNL     1      23.979   4.549  51.372  1.00  0.00     0.048 A 
ENDBRANCH  10  12
ENDBRANCH   8  10
BRANCH   1  19
HETATM   19  N1  UNL     1      20.405   1.142  52.932  1.00  0.00    -0.237 NA
BRANCH  19  20
HETATM   20  C1  UNL     1      19.604   0.685  52.061  1.00  0.00     0.163 C 
HETATM   21  S1  UNL     1      18.280  -0.036  51.500  1.00  0.00    -0.055 SA
ENDBRANCH  19  20
ENDBRANCH   1  19
TORSDOF 4
ENDMDL
MODEL 9
REMARK VINA RESULT:      -6.6      4.387      5.731
REMARK  4 active torsions:
REMARK  status: ('A' for Active; 'I' for Inactive)
REMARK    1  A    between atoms: C1_2  and  N1_3 
REMARK    2  A    between atoms: N1_3  and  C2_4 
REMARK    3  A    between atoms: C7_11  and  N4_12 
REMARK    4  A    between atoms: N4_12  and  C8_13 
ROOT
HETATM    1  C2  UNL     1      25.978   0.920  53.575  1.00  0.00     0.053 A 
HETATM    2  C3  UNL     1      25.545  -0.175  54.226  1.00  0.00     0.030 A 
HETATM    3  C4  UNL     1      24.147  -0.491  53.882  1.00  0.00     0.030 A 
HETATM    4  C5  UNL     1      23.707   0.416  53.013  1.00  0.00     0.053 A 
HETATM    5  N2  UNL     1      22.474   0.621  52.324  1.00  0.00    -0.245 NA
HETATM    6  C6  UNL     1      22.532   1.356  51.219  1.00  0.00     0.235 C 
HETATM    7  N3  UNL     1      23.783   1.894  50.837  1.00  0.00    -0.227 NA
HETATM    8  C7  UNL     1      24.907   1.794  51.450  1.00  0.00     0.121 C 
HETATM    9  C14 UNL     1      24.809   1.358  52.854  1.00  0.00     0.159 A 
ENDROOT
BRANCH   8  10
HETATM   10  N4  UNL     1      26.184   2.293  51.088  1.00  0.00    -0.343 N 
HETATM   11  H4  UNL     1      27.101   1.834  51.264  1.00  0.00     0.167 HD
BRANCH  10  12
HETATM   12  C8  UNL     1      26.084   3.572  50.416  1.00  0.00     0.034 A 
HETATM   13  C9  UNL     1      26.931   3.910  49.357  1.00  0.00     0.029 A 
HETATM   14  C10 UNL     1      26.786   5.156  48.741  1.00  0.00     0.004 A 
HETATM   15  C11 UNL     1      25.807   6.048  49.182  1.00  0.00     0.019 A 
HETATM   16  C12 UNL     1      24.954   5.745  50.224  1.00  0.00     0.013 A 
HETATM   17 BR1  UNL     1      23.618   6.966  50.821  1.00  0.00    -0.051 Br
HETATM   18  C13 UNL     1      25.145   4.504  50.791  1.00  0.00     0.048 A 
ENDBRANCH  10  12
ENDBRANCH   8  10
BRANCH   1  19
HETATM   19  N1  UNL     1      27.287   1.449  53.711  1.00  0.00    -0.237 NA
BRANCH  19  20
HETATM   20  C1  UNL     1      28.344   0.766  53.546  1.00  0.00     0.163 C 
HETATM   21  S1  UNL     1      29.372  -0.450  53.774  1.00  0.00    -0.055 SA
ENDBRANCH  19  20
ENDBRANCH   1  19
TORSDOF 4
ENDMDL
