MODEL 1
REMARK VINA RESULT:      -8.6      0.000      0.000
REMARK  6 active torsions:
REMARK  status: ('A' for Active; 'I' for Inactive)
REMARK    1  A    between atoms: O1_2  and  C2_3 
REMARK    2  A    between atoms: C4_5  and  C5_6 
REMARK    3  A    between atoms: C18_23  and  O3_24 
REMARK    4  A    between atoms: O3_24  and  C19_25 
REMARK    5  A    between atoms: C19_25  and  C20_26 
REMARK    6  A    between atoms: C20_26  and  O5_28 
ROOT
HETATM    1  C5  UNL     1      25.592   3.038  50.099  1.00  0.00     0.136 C 
HETATM    2  N1  UNL     1      26.440   2.361  50.778  1.00  0.00    -0.267 NA
HETATM    3  C6  UNL     1      26.427   1.100  51.432  1.00  0.00     0.198 C 
HETATM    4  C7  UNL     1      25.127   0.832  52.112  1.00  0.00     0.020 A 
HETATM    5  S1  UNL     1      25.088   0.023  53.693  1.00  0.00    -0.091 SA
HETATM    6  C8  UNL     1      23.318   0.040  53.877  1.00  0.00     0.016 A 
HETATM    7  C9  UNL     1      22.526  -0.435  54.903  1.00  0.00     0.020 A 
HETATM    8  C10 UNL     1      21.149  -0.302  54.818  1.00  0.00     0.001 A 
HETATM    9  C11 UNL     1      20.712   0.310  53.680  1.00  0.00     0.001 A 
HETATM   10  C12 UNL     1      21.487   0.788  52.653  1.00  0.00     0.014 A 
HETATM   11  C13 UNL     1      22.855   0.658  52.734  1.00  0.00    -0.002 A 
HETATM   12  C14 UNL     1      23.771   1.074  51.811  1.00  0.00     0.058 A 
HETATM   13  C15 UNL     1      23.457   1.740  50.553  1.00  0.00     0.259 C 
HETATM   14  O2  UNL     1      22.332   1.488  50.050  1.00  0.00    -0.267 OA
HETATM   15  N2  UNL     1      24.259   2.664  49.781  1.00  0.00    -0.307 N 
HETATM   16  H11 UNL     1      23.856   3.098  48.928  1.00  0.00     0.170 HD
ENDROOT
BRANCH   1  17
HETATM   17  C4  UNL     1      26.076   4.324  49.613  1.00  0.00     0.012 A 
HETATM   18  C3  UNL     1      25.332   5.465  49.887  1.00  0.00     0.055 A 
HETATM   19  C2  UNL     1      25.660   6.734  49.494  1.00  0.00     0.102 A 
HETATM   20  C18 UNL     1      26.825   6.913  48.764  1.00  0.00     0.102 A 
HETATM   21  C17 UNL     1      27.582   5.811  48.478  1.00  0.00     0.040 A 
HETATM   22  C16 UNL     1      27.211   4.563  48.893  1.00  0.00     0.018 A 
BRANCH  19  23
HETATM   23  O1  UNL     1      24.886   7.841  49.791  1.00  0.00    -0.353 OA
HETATM   24  C1  UNL     1      23.863   7.766  50.769  1.00  0.00     0.210 C 
ENDBRANCH  19  23
BRANCH  20  25
HETATM   25  O3  UNL     1      27.185   8.171  48.355  1.00  0.00    -0.338 OA
BRANCH  25  26
HETATM   26  C19 UNL     1      28.365   8.771  48.891  1.00  0.00     0.285 C 
BRANCH  26  27
HETATM   27  C20 UNL     1      27.968   9.763  49.901  1.00  0.00     0.164 C 
HETATM   28  O4  UNL     1      27.898  10.954  49.485  1.00  0.00    -0.648 OA
BRANCH  27  29
HETATM   29  O5  UNL     1      27.666   9.559  51.239  1.00  0.00    -0.775 OA
HETATM   30  H16 UNL     1      28.266   9.036  51.856  1.00  0.00     0.167 HD
ENDBRANCH  27  29
ENDBRANCH  26  27
ENDBRANCH  25  26
ENDBRANCH  20  25
ENDBRANCH   1  17
TORSDOF 6
ENDMDL
MODEL 2
REMARK VINA RESULT:      -8.5      1.029      1.927
REMARK  6 active torsions:
REMARK  status: ('A' for Active; 'I' for Inactive)
REMARK    1  A    between atoms: O1_2  and  C2_3 
REMARK    2  A    between atoms: C4_5  and  C5_6 
REMARK    3  A    between atoms: C18_23  and  O3_24 
REMARK    4  A    between atoms: O3_24  and  C19_25 
REMARK    5  A    between atoms: C19_25  and  C20_26 
REMARK    6  A    between atoms: C20_26  and  O5_28 
ROOT
HETATM    1  C5  UNL     1      25.387   3.287  50.362  1.00  0.00     0.136 C 
HETATM    2  N1  UNL     1      26.326   2.616  50.916  1.00  0.00    -0.267 NA
HETATM    3  C6  UNL     1      26.456   1.292  51.413  1.00  0.00     0.198 C 
HETATM    4  C7  UNL     1      25.224   0.830  52.114  1.00  0.00     0.020 A 
HETATM    5  S1  UNL     1      25.343  -0.157  53.586  1.00  0.00    -0.091 SA
HETATM    6  C8  UNL     1      23.591  -0.322  53.852  1.00  0.00     0.016 A 
HETATM    7  C9  UNL     1      22.901  -0.983  54.849  1.00  0.00     0.020 A 
HETATM    8  C10 UNL     1      21.516  -0.967  54.843  1.00  0.00     0.001 A 
HETATM    9  C11 UNL     1      20.965  -0.269  53.808  1.00  0.00     0.001 A 
HETATM   10  C12 UNL     1      21.637   0.393  52.812  1.00  0.00     0.014 A 
HETATM   11  C13 UNL     1      23.014   0.380  52.814  1.00  0.00    -0.002 A 
HETATM   12  C14 UNL     1      23.838   0.981  51.907  1.00  0.00     0.058 A 
HETATM   13  C15 UNL     1      23.399   1.757  50.753  1.00  0.00     0.259 C 
HETATM   14  O2  UNL     1      22.273   1.463  50.276  1.00  0.00    -0.267 OA
HETATM   15  N2  UNL     1      24.075   2.833  50.062  1.00  0.00    -0.307 N 
HETATM   16  H11 UNL     1      23.589   3.325  49.287  1.00  0.00     0.170 HD
ENDROOT
BRANCH   1  17
HETATM   17  C4  UNL     1      25.732   4.659  50.013  1.00  0.00     0.012 A 
HETATM   18  C3  UNL     1      26.787   4.881  49.136  1.00  0.00     0.055 A 
HETATM   19  C2  UNL     1      27.223   6.110  48.722  1.00  0.00     0.102 A 
HETATM   20  C18 UNL     1      26.572   7.234  49.206  1.00  0.00     0.102 A 
HETATM   21  C17 UNL     1      25.529   7.052  50.071  1.00  0.00     0.040 A 
HETATM   22  C16 UNL     1      25.131   5.803  50.455  1.00  0.00     0.018 A 
BRANCH  19  23
HETATM   23  O1  UNL     1      28.280   6.280  47.845  1.00  0.00    -0.353 OA
HETATM   24  C1  UNL     1      29.584   5.852  48.195  1.00  0.00     0.210 C 
ENDBRANCH  19  23
BRANCH  20  25
HETATM   25  O3  UNL     1      26.983   8.481  48.811  1.00  0.00    -0.338 OA
BRANCH  25  26
HETATM   26  C19 UNL     1      27.631   9.336  49.754  1.00  0.00     0.285 C 
BRANCH  26  27
HETATM   27  C20 UNL     1      29.034   9.504  49.347  1.00  0.00     0.164 C 
HETATM   28  O4  UNL     1      29.241   9.457  48.101  1.00  0.00    -0.648 OA
BRANCH  27  29
HETATM   29  O5  UNL     1      30.147   9.703  50.150  1.00  0.00    -0.775 OA
HETATM   30  H16 UNL     1      30.080   9.836  51.145  1.00  0.00     0.167 HD
ENDBRANCH  27  29
ENDBRANCH  26  27
ENDBRANCH  25  26
ENDBRANCH  20  25
ENDBRANCH   1  17
TORSDOF 6
ENDMDL
MODEL 3
REMARK VINA RESULT:      -8.4      4.492      6.921
REMARK  6 active torsions:
REMARK  status: ('A' for Active; 'I' for Inactive)
REMARK    1  A    between atoms: O1_2  and  C2_3 
REMARK    2  A    between atoms: C4_5  and  C5_6 
REMARK    3  A    between atoms: C18_23  and  O3_24 
REMARK    4  A    between atoms: O3_24  and  C19_25 
REMARK    5  A    between atoms: C19_25  and  C20_26 
REMARK    6  A    between atoms: C20_26  and  O5_28 
ROOT
HETATM    1  C5  UNL     1      22.311   1.022  52.883  1.00  0.00     0.136 C 
HETATM    2  N1  UNL     1      22.116   2.229  52.504  1.00  0.00    -0.267 NA
HETATM    3  C6  UNL     1      20.975   3.059  52.343  1.00  0.00     0.198 C 
HETATM    4  C7  UNL     1      19.812   2.314  51.781  1.00  0.00     0.020 A 
HETATM    5  S1  UNL     1      18.739   3.083  50.593  1.00  0.00    -0.091 SA
HETATM    6  C8  UNL     1      17.649   1.692  50.385  1.00  0.00     0.016 A 
HETATM    7  C9  UNL     1      16.535   1.547  49.582  1.00  0.00     0.020 A 
HETATM    8  C10 UNL     1      15.841   0.348  49.592  1.00  0.00     0.001 A 
HETATM    9  C11 UNL     1      16.359  -0.596  50.429  1.00  0.00     0.001 A 
HETATM   10  C12 UNL     1      17.465  -0.467  51.231  1.00  0.00     0.014 A 
HETATM   11  C13 UNL     1      18.157   0.723  51.224  1.00  0.00    -0.002 A 
HETATM   12  C14 UNL     1      19.272   1.023  51.954  1.00  0.00     0.058 A 
HETATM   13  C15 UNL     1      19.937   0.122  52.886  1.00  0.00     0.259 C 
HETATM   14  O2  UNL     1      19.217  -0.757  53.427  1.00  0.00    -0.267 OA
HETATM   15  N2  UNL     1      21.325   0.084  53.292  1.00  0.00    -0.307 N 
HETATM   16  H11 UNL     1      21.650  -0.670  53.927  1.00  0.00     0.170 HD
ENDROOT
BRANCH   1  17
HETATM   17  C4  UNL     1      23.705   0.594  52.886  1.00  0.00     0.012 A 
HETATM   18  C3  UNL     1      24.627   1.313  52.137  1.00  0.00     0.055 A 
HETATM   19  C2  UNL     1      25.962   1.028  52.043  1.00  0.00     0.102 A 
HETATM   20  C18 UNL     1      26.450  -0.062  52.746  1.00  0.00     0.102 A 
HETATM   21  C17 UNL     1      25.570  -0.792  53.495  1.00  0.00     0.040 A 
HETATM   22  C16 UNL     1      24.244  -0.467  53.556  1.00  0.00     0.018 A 
BRANCH  19  23
HETATM   23  O1  UNL     1      26.843   1.776  51.282  1.00  0.00    -0.353 OA
HETATM   24  C1  UNL     1      26.407   2.948  50.616  1.00  0.00     0.210 C 
ENDBRANCH  19  23
BRANCH  20  25
HETATM   25  O3  UNL     1      27.782  -0.376  52.675  1.00  0.00    -0.338 OA
BRANCH  25  26
HETATM   26  C19 UNL     1      28.592  -0.261  53.846  1.00  0.00     0.285 C 
BRANCH  26  27
HETATM   27  C20 UNL     1      28.965   1.151  54.019  1.00  0.00     0.164 C 
HETATM   28  O4  UNL     1      29.037   1.544  55.218  1.00  0.00    -0.648 OA
BRANCH  27  29
HETATM   29  O5  UNL     1      29.244   2.096  53.044  1.00  0.00    -0.775 OA
HETATM   30  H16 UNL     1      29.587   3.017  53.263  1.00  0.00     0.167 HD
ENDBRANCH  27  29
ENDBRANCH  26  27
ENDBRANCH  25  26
ENDBRANCH  20  25
ENDBRANCH   1  17
TORSDOF 6
ENDMDL
MODEL 4
REMARK VINA RESULT:      -8.3      3.286      9.184
REMARK  6 active torsions:
REMARK  status: ('A' for Active; 'I' for Inactive)
REMARK    1  A    between atoms: O1_2  and  C2_3 
REMARK    2  A    between atoms: C4_5  and  C5_6 
REMARK    3  A    between atoms: C18_23  and  O3_24 
REMARK    4  A    between atoms: O3_24  and  C19_25 
REMARK    5  A    between atoms: C19_25  and  C20_26 
REMARK    6  A    between atoms: C20_26  and  O5_28 
ROOT
HETATM    1  C5  UNL     1      25.776   3.858  49.718  1.00  0.00     0.136 C 
HETATM    2  N1  UNL     1      24.797   4.639  49.457  1.00  0.00    -0.267 NA
HETATM    3  C6  UNL     1      24.608   5.769  48.616  1.00  0.00     0.198 C 
HETATM    4  C7  UNL     1      25.797   6.669  48.608  1.00  0.00     0.020 A 
HETATM    5  S1  UNL     1      25.590   8.433  48.580  1.00  0.00    -0.091 SA
HETATM    6  C8  UNL     1      27.324   8.832  48.583  1.00  0.00     0.016 A 
HETATM    7  C9  UNL     1      27.954  10.061  48.569  1.00  0.00     0.020 A 
HETATM    8  C10 UNL     1      29.338  10.117  48.577  1.00  0.00     0.001 A 
HETATM    9  C11 UNL     1      29.950   8.898  48.599  1.00  0.00     0.001 A 
HETATM   10  C12 UNL     1      29.339   7.670  48.615  1.00  0.00     0.014 A 
HETATM   11  C13 UNL     1      27.963   7.611  48.607  1.00  0.00    -0.002 A 
HETATM   12  C14 UNL     1      27.194   6.482  48.620  1.00  0.00     0.058 A 
HETATM   13  C15 UNL     1      27.702   5.116  48.643  1.00  0.00     0.259 C 
HETATM   14  O2  UNL     1      28.839   4.931  48.135  1.00  0.00    -0.267 OA
HETATM   15  N2  UNL     1      27.086   3.919  49.171  1.00  0.00    -0.307 N 
HETATM   16  H11 UNL     1      27.617   3.026  49.162  1.00  0.00     0.170 HD
ENDROOT
BRANCH   1  17
HETATM   17  C4  UNL     1      25.485   2.803  50.680  1.00  0.00     0.012 A 
HETATM   18  C3  UNL     1      26.543   2.090  51.232  1.00  0.00     0.055 A 
HETATM   19  C2  UNL     1      26.421   1.075  52.142  1.00  0.00     0.102 A 
HETATM   20  C18 UNL     1      25.148   0.718  52.557  1.00  0.00     0.102 A 
HETATM   21  C17 UNL     1      24.084   1.398  52.035  1.00  0.00     0.040 A 
HETATM   22  C16 UNL     1      24.258   2.405  51.127  1.00  0.00     0.018 A 
BRANCH  19  23
HETATM   23  O1  UNL     1      27.506   0.395  52.664  1.00  0.00    -0.353 OA
HETATM   24  C1  UNL     1      28.440   1.056  53.499  1.00  0.00     0.210 C 
ENDBRANCH  19  23
BRANCH  20  25
HETATM   25  O3  UNL     1      24.990  -0.294  53.468  1.00  0.00    -0.338 OA
BRANCH  25  26
HETATM   26  C19 UNL     1      23.679  -0.618  53.934  1.00  0.00     0.285 C 
BRANCH  26  27
HETATM   27  C20 UNL     1      23.799  -1.280  55.242  1.00  0.00     0.164 C 
HETATM   28  O4  UNL     1      22.722  -1.749  55.707  1.00  0.00    -0.648 OA
BRANCH  27  29
HETATM   29  O5  UNL     1      24.932  -1.450  56.023  1.00  0.00    -0.775 OA
HETATM   30  H16 UNL     1      25.609  -0.718  56.162  1.00  0.00     0.167 HD
ENDBRANCH  27  29
ENDBRANCH  26  27
ENDBRANCH  25  26
ENDBRANCH  20  25
ENDBRANCH   1  17
TORSDOF 6
ENDMDL
MODEL 5
REMARK VINA RESULT:      -8.1      2.787      3.699
REMARK  6 active torsions:
REMARK  status: ('A' for Active; 'I' for Inactive)
REMARK    1  A    between atoms: O1_2  and  C2_3 
REMARK    2  A    between atoms: C4_5  and  C5_6 
REMARK    3  A    between atoms: C18_23  and  O3_24 
REMARK    4  A    between atoms: O3_24  and  C19_25 
REMARK    5  A    between atoms: C19_25  and  C20_26 
REMARK    6  A    between atoms: C20_26  and  O5_28 
ROOT
HETATM    1  C5  UNL     1      25.109   5.152  49.551  1.00  0.00     0.136 C 
HETATM    2  N1  UNL     1      24.256   4.952  48.617  1.00  0.00    -0.267 NA
HETATM    3  C6  UNL     1      22.889   4.570  48.571  1.00  0.00     0.198 C 
HETATM    4  C7  UNL     1      22.560   3.529  49.586  1.00  0.00     0.020 A 
HETATM    5  S1  UNL     1      21.440   2.209  49.191  1.00  0.00    -0.091 SA
HETATM    6  C8  UNL     1      21.521   1.404  50.776  1.00  0.00     0.016 A 
HETATM    7  C9  UNL     1      20.888   0.263  51.228  1.00  0.00     0.020 A 
HETATM    8  C10 UNL     1      21.115  -0.174  52.523  1.00  0.00     0.001 A 
HETATM    9  C11 UNL     1      21.978   0.605  53.237  1.00  0.00     0.001 A 
HETATM   10  C12 UNL     1      22.615   1.739  52.801  1.00  0.00     0.014 A 
HETATM   11  C13 UNL     1      22.392   2.177  51.516  1.00  0.00    -0.002 A 
HETATM   12  C14 UNL     1      22.939   3.278  50.921  1.00  0.00     0.058 A 
HETATM   13  C15 UNL     1      23.871   4.202  51.554  1.00  0.00     0.259 C 
HETATM   14  O2  UNL     1      23.797   4.305  52.805  1.00  0.00    -0.267 OA
HETATM   15  N2  UNL     1      24.889   5.034  50.949  1.00  0.00    -0.307 N 
HETATM   16  H11 UNL     1      25.516   5.595  51.558  1.00  0.00     0.170 HD
ENDROOT
BRANCH   1  17
HETATM   17  C4  UNL     1      26.438   5.544  49.099  1.00  0.00     0.012 A 
HETATM   18  C3  UNL     1      26.744   6.897  49.014  1.00  0.00     0.055 A 
HETATM   19  C2  UNL     1      27.945   7.410  48.606  1.00  0.00     0.102 A 
HETATM   20  C18 UNL     1      28.947   6.523  48.243  1.00  0.00     0.102 A 
HETATM   21  C17 UNL     1      28.680   5.185  48.315  1.00  0.00     0.040 A 
HETATM   22  C16 UNL     1      27.463   4.721  48.730  1.00  0.00     0.018 A 
BRANCH  19  23
HETATM   23  O1  UNL     1      28.202   8.768  48.539  1.00  0.00    -0.353 OA
HETATM   24  C1  UNL     1      28.121   9.576  49.699  1.00  0.00     0.210 C 
ENDBRANCH  19  23
BRANCH  20  25
HETATM   25  O3  UNL     1      30.162   7.004  47.830  1.00  0.00    -0.338 OA
BRANCH  25  26
HETATM   26  C19 UNL     1      31.156   7.327  48.803  1.00  0.00     0.285 C 
BRANCH  26  27
HETATM   27  C20 UNL     1      31.692   6.076  49.358  1.00  0.00     0.164 C 
HETATM   28  O4  UNL     1      32.508   5.464  48.612  1.00  0.00    -0.648 OA
BRANCH  27  29
HETATM   29  O5  UNL     1      31.418   5.488  50.584  1.00  0.00    -0.775 OA
HETATM   30  H16 UNL     1      31.331   4.491  50.699  1.00  0.00     0.167 HD
ENDBRANCH  27  29
ENDBRANCH  26  27
ENDBRANCH  25  26
ENDBRANCH  20  25
ENDBRANCH   1  17
TORSDOF 6
ENDMDL
MODEL 6
REMARK VINA RESULT:      -7.9      3.324      8.994
REMARK  6 active torsions:
REMARK  status: ('A' for Active; 'I' for Inactive)
REMARK    1  A    between atoms: O1_2  and  C2_3 
REMARK    2  A    between atoms: C4_5  and  C5_6 
REMARK    3  A    between atoms: C18_23  and  O3_24 
REMARK    4  A    between atoms: O3_24  and  C19_25 
REMARK    5  A    between atoms: C19_25  and  C20_26 
REMARK    6  A    between atoms: C20_26  and  O5_28 
ROOT
HETATM    1  C5  UNL     1      26.183   4.473  49.425  1.00  0.00     0.136 C 
HETATM    2  N1  UNL     1      25.228   5.303  49.232  1.00  0.00    -0.267 NA
HETATM    3  C6  UNL     1      25.075   6.505  48.491  1.00  0.00     0.198 C 
HETATM    4  C7  UNL     1      26.290   7.366  48.557  1.00  0.00     0.020 A 
HETATM    5  S1  UNL     1      26.137   9.131  48.679  1.00  0.00    -0.091 SA
HETATM    6  C8  UNL     1      27.882   9.477  48.714  1.00  0.00     0.016 A 
HETATM    7  C9  UNL     1      28.549  10.683  48.804  1.00  0.00     0.020 A 
HETATM    8  C10 UNL     1      29.934  10.695  48.814  1.00  0.00     0.001 A 
HETATM    9  C11 UNL     1      30.509   9.461  48.732  1.00  0.00     0.001 A 
HETATM   10  C12 UNL     1      29.860   8.255  48.644  1.00  0.00     0.014 A 
HETATM   11  C13 UNL     1      28.484   8.238  48.633  1.00  0.00    -0.002 A 
HETATM   12  C14 UNL     1      27.681   7.136  48.551  1.00  0.00     0.058 A 
HETATM   13  C15 UNL     1      28.148   5.759  48.458  1.00  0.00     0.259 C 
HETATM   14  O2  UNL     1      29.278   5.584  47.934  1.00  0.00    -0.267 OA
HETATM   15  N2  UNL     1      27.495   4.540  48.883  1.00  0.00    -0.307 N 
HETATM   16  H11 UNL     1      27.999   3.636  48.798  1.00  0.00     0.170 HD
ENDROOT
BRANCH   1  17
HETATM   17  C4  UNL     1      25.859   3.350  50.295  1.00  0.00     0.012 A 
HETATM   18  C3  UNL     1      24.523   3.059  50.542  1.00  0.00     0.055 A 
HETATM   19  C2  UNL     1      24.070   2.040  51.336  1.00  0.00     0.102 A 
HETATM   20  C18 UNL     1      25.007   1.224  51.951  1.00  0.00     0.102 A 
HETATM   21  C17 UNL     1      26.331   1.482  51.729  1.00  0.00     0.040 A 
HETATM   22  C16 UNL     1      26.732   2.512  50.926  1.00  0.00     0.018 A 
BRANCH  19  23
HETATM   23  O1  UNL     1      22.727   1.790  51.551  1.00  0.00    -0.353 OA
HETATM   24  C1  UNL     1      21.940   1.164  50.553  1.00  0.00     0.210 C 
ENDBRANCH  19  23
BRANCH  20  25
HETATM   25  O3  UNL     1      24.589   0.194  52.753  1.00  0.00    -0.338 OA
BRANCH  25  26
HETATM   26  C19 UNL     1      25.553  -0.714  53.286  1.00  0.00     0.285 C 
BRANCH  26  27
HETATM   27  C20 UNL     1      25.806  -0.357  54.690  1.00  0.00     0.164 C 
HETATM   28  O4  UNL     1      25.255  -1.110  55.543  1.00  0.00    -0.648 OA
BRANCH  27  29
HETATM   29  O5  UNL     1      26.562   0.691  55.191  1.00  0.00    -0.775 OA
HETATM   30  H16 UNL     1      26.838   1.478  54.626  1.00  0.00     0.167 HD
ENDBRANCH  27  29
ENDBRANCH  26  27
ENDBRANCH  25  26
ENDBRANCH  20  25
ENDBRANCH   1  17
TORSDOF 6
ENDMDL
MODEL 7
REMARK VINA RESULT:      -7.8      5.120      7.870
REMARK  6 active torsions:
REMARK  status: ('A' for Active; 'I' for Inactive)
REMARK    1  A    between atoms: O1_2  and  C2_3 
REMARK    2  A    between atoms: C4_5  and  C5_6 
REMARK    3  A    between atoms: C18_23  and  O3_24 
REMARK    4  A    between atoms: O3_24  and  C19_25 
REMARK    5  A    between atoms: C19_25  and  C20_26 
REMARK    6  A    between atoms: C20_26  and  O5_28 
ROOT
HETATM    1  C5  UNL     1      23.507   2.505  51.699  1.00  0.00     0.136 C 
HETATM    2  N1  UNL     1      23.284   3.732  51.986  1.00  0.00    -0.267 NA
HETATM    3  C6  UNL     1      22.415   4.739  51.488  1.00  0.00     0.198 C 
HETATM    4  C7  UNL     1      22.289   4.690  50.003  1.00  0.00     0.020 A 
HETATM    5  S1  UNL     1      22.206   6.191  49.057  1.00  0.00    -0.091 SA
HETATM    6  C8  UNL     1      22.075   5.410  47.464  1.00  0.00     0.016 A 
HETATM    7  C9  UNL     1      21.969   5.968  46.205  1.00  0.00     0.020 A 
HETATM    8  C10 UNL     1      21.880   5.140  45.099  1.00  0.00     0.001 A 
HETATM    9  C11 UNL     1      21.907   3.807  45.389  1.00  0.00     0.001 A 
HETATM   10  C12 UNL     1      22.013   3.238  46.633  1.00  0.00     0.014 A 
HETATM   11  C13 UNL     1      22.102   4.058  47.735  1.00  0.00    -0.002 A 
HETATM   12  C14 UNL     1      22.212   3.665  49.039  1.00  0.00     0.058 A 
HETATM   13  C15 UNL     1      22.254   2.283  49.502  1.00  0.00     0.259 C 
HETATM   14  O2  UNL     1      21.677   1.431  48.778  1.00  0.00    -0.267 OA
HETATM   15  N2  UNL     1      22.870   1.734  50.690  1.00  0.00    -0.307 N 
HETATM   16  H11 UNL     1      22.860   0.707  50.841  1.00  0.00     0.170 HD
ENDROOT
BRANCH   1  17
HETATM   17  C4  UNL     1      24.528   1.856  52.512  1.00  0.00     0.012 A 
HETATM   18  C3  UNL     1      24.196   0.697  53.204  1.00  0.00     0.055 A 
HETATM   19  C2  UNL     1      25.047  -0.015  54.004  1.00  0.00     0.102 A 
HETATM   20  C18 UNL     1      26.348   0.442  54.148  1.00  0.00     0.102 A 
HETATM   21  C17 UNL     1      26.709   1.579  53.481  1.00  0.00     0.040 A 
HETATM   22  C16 UNL     1      25.821   2.256  52.693  1.00  0.00     0.018 A 
BRANCH  19  23
HETATM   23  O1  UNL     1      24.669  -1.165  54.673  1.00  0.00    -0.353 OA
HETATM   24  C1  UNL     1      23.354  -1.307  55.181  1.00  0.00     0.210 C 
ENDBRANCH  19  23
BRANCH  20  25
HETATM   25  O3  UNL     1      27.227  -0.247  54.942  1.00  0.00    -0.338 OA
BRANCH  25  26
HETATM   26  C19 UNL     1      28.575   0.209  55.054  1.00  0.00     0.285 C 
BRANCH  26  27
HETATM   27  C20 UNL     1      29.375  -0.432  53.999  1.00  0.00     0.164 C 
HETATM   28  O4  UNL     1      29.061  -1.627  53.738  1.00  0.00    -0.648 OA
BRANCH  27  29
HETATM   29  O5  UNL     1      30.420   0.105  53.263  1.00  0.00    -0.775 OA
HETATM   30  H16 UNL     1      31.381   0.030  53.553  1.00  0.00     0.167 HD
ENDBRANCH  27  29
ENDBRANCH  26  27
ENDBRANCH  25  26
ENDBRANCH  20  25
ENDBRANCH   1  17
TORSDOF 6
ENDMDL
MODEL 8
REMARK VINA RESULT:      -7.4      3.982      9.339
REMARK  6 active torsions:
REMARK  status: ('A' for Active; 'I' for Inactive)
REMARK    1  A    between atoms: O1_2  and  C2_3 
REMARK    2  A    between atoms: C4_5  and  C5_6 
REMARK    3  A    between atoms: C18_23  and  O3_24 
REMARK    4  A    between atoms: O3_24  and  C19_25 
REMARK    5  A    between atoms: C19_25  and  C20_26 
REMARK    6  A    between atoms: C20_26  and  O5_28 
ROOT
HETATM    1  C5  UNL     1      26.797   6.570  48.471  1.00  0.00     0.136 C 
HETATM    2  N1  UNL     1      25.823   7.372  48.254  1.00  0.00    -0.267 NA
HETATM    3  C6  UNL     1      25.690   8.649  47.646  1.00  0.00     0.198 C 
HETATM    4  C7  UNL     1      26.831   9.551  47.975  1.00  0.00     0.020 A 
HETATM    5  S1  UNL     1      26.553  11.278  48.284  1.00  0.00    -0.091 SA
HETATM    6  C8  UNL     1      28.255  11.697  48.591  1.00  0.00     0.016 A 
HETATM    7  C9  UNL     1      28.828  12.912  48.910  1.00  0.00     0.020 A 
HETATM    8  C10 UNL     1      30.197  12.988  49.106  1.00  0.00     0.001 A 
HETATM    9  C11 UNL     1      30.854  11.802  48.954  1.00  0.00     0.001 A 
HETATM   10  C12 UNL     1      30.299  10.588  48.639  1.00  0.00     0.014 A 
HETATM   11  C13 UNL     1      28.939  10.509  48.444  1.00  0.00    -0.002 A 
HETATM   12  C14 UNL     1      28.223   9.389  48.126  1.00  0.00     0.058 A 
HETATM   13  C15 UNL     1      28.783   8.058  47.933  1.00  0.00     0.259 C 
HETATM   14  O2  UNL     1      29.979   8.003  47.547  1.00  0.00    -0.267 OA
HETATM   15  N2  UNL     1      28.160   6.766  48.120  1.00  0.00    -0.307 N 
HETATM   16  H11 UNL     1      28.726   5.904  47.996  1.00  0.00     0.170 HD
ENDROOT
BRANCH   1  17
HETATM   17  C4  UNL     1      26.437   5.332  49.151  1.00  0.00     0.012 A 
HETATM   18  C3  UNL     1      25.392   5.352  50.067  1.00  0.00     0.055 A 
HETATM   19  C2  UNL     1      24.947   4.271  50.779  1.00  0.00     0.102 A 
HETATM   20  C18 UNL     1      25.578   3.053  50.583  1.00  0.00     0.102 A 
HETATM   21  C17 UNL     1      26.609   2.998  49.688  1.00  0.00     0.040 A 
HETATM   22  C16 UNL     1      27.018   4.106  49.001  1.00  0.00     0.018 A 
BRANCH  19  23
HETATM   23  O1  UNL     1      23.900   4.341  51.681  1.00  0.00    -0.353 OA
HETATM   24  C1  UNL     1      22.557   4.303  51.233  1.00  0.00     0.210 C 
ENDBRANCH  19  23
BRANCH  20  25
HETATM   25  O3  UNL     1      25.157   1.950  51.280  1.00  0.00    -0.338 OA
BRANCH  25  26
HETATM   26  C19 UNL     1      26.123   1.114  51.918  1.00  0.00     0.285 C 
BRANCH  26  27
HETATM   27  C20 UNL     1      26.855   1.918  52.908  1.00  0.00     0.164 C 
HETATM   28  O4  UNL     1      28.102   1.993  52.723  1.00  0.00    -0.648 OA
BRANCH  27  29
HETATM   29  O5  UNL     1      26.354   2.594  54.011  1.00  0.00    -0.775 OA
HETATM   30  H16 UNL     1      25.480   2.348  54.446  1.00  0.00     0.167 HD
ENDBRANCH  27  29
ENDBRANCH  26  27
ENDBRANCH  25  26
ENDBRANCH  20  25
ENDBRANCH   1  17
TORSDOF 6
ENDMDL
MODEL 9
REMARK VINA RESULT:      -7.3      6.090      8.985
REMARK  6 active torsions:
REMARK  status: ('A' for Active; 'I' for Inactive)
REMARK    1  A    between atoms: O1_2  and  C2_3 
REMARK    2  A    between atoms: C4_5  and  C5_6 
REMARK    3  A    between atoms: C18_23  and  O3_24 
REMARK    4  A    between atoms: O3_24  and  C19_25 
REMARK    5  A    between atoms: C19_25  and  C20_26 
REMARK    6  A    between atoms: C20_26  and  O5_28 
ROOT
HETATM    1  C5  UNL     1      20.469   1.465  51.290  1.00  0.00     0.136 C 
HETATM    2  N1  UNL     1      21.234   2.257  50.638  1.00  0.00    -0.267 NA
HETATM    3  C6  UNL     1      22.607   2.256  50.274  1.00  0.00     0.198 C 
HETATM    4  C7  UNL     1      23.478   1.735  51.367  1.00  0.00     0.020 A 
HETATM    5  S1  UNL     1      25.060   2.476  51.687  1.00  0.00    -0.091 SA
HETATM    6  C8  UNL     1      25.505   1.407  53.039  1.00  0.00     0.016 A 
HETATM    7  C9  UNL     1      26.645   1.387  53.819  1.00  0.00     0.020 A 
HETATM    8  C10 UNL     1      26.761   0.446  54.828  1.00  0.00     0.001 A 
HETATM    9  C11 UNL     1      25.691  -0.392  54.944  1.00  0.00     0.001 A 
HETATM   10  C12 UNL     1      24.553  -0.383  54.178  1.00  0.00     0.014 A 
HETATM   11  C13 UNL     1      24.433   0.551  53.174  1.00  0.00    -0.002 A 
HETATM   12  C14 UNL     1      23.377   0.702  52.321  1.00  0.00     0.058 A 
HETATM   13  C15 UNL     1      22.169  -0.113  52.322  1.00  0.00     0.259 C 
HETATM   14  O2  UNL     1      22.285  -1.288  52.757  1.00  0.00    -0.267 OA
HETATM   15  N2  UNL     1      20.831   0.230  51.891  1.00  0.00    -0.307 N 
HETATM   16  H11 UNL     1      20.063  -0.457  52.019  1.00  0.00     0.170 HD
ENDROOT
BRANCH   1  17
HETATM   17  C4  UNL     1      19.084   1.904  51.409  1.00  0.00     0.012 A 
HETATM   18  C3  UNL     1      18.075   0.948  51.386  1.00  0.00     0.055 A 
HETATM   19  C2  UNL     1      16.736   1.211  51.486  1.00  0.00     0.102 A 
HETATM   20  C18 UNL     1      16.337   2.532  51.620  1.00  0.00     0.102 A 
HETATM   21  C17 UNL     1      17.303   3.498  51.647  1.00  0.00     0.040 A 
HETATM   22  C16 UNL     1      18.629   3.184  51.544  1.00  0.00     0.018 A 
BRANCH  19  23
HETATM   23  O1  UNL     1      15.768   0.223  51.458  1.00  0.00    -0.353 OA
HETATM   24  C1  UNL     1      15.686  -0.736  52.497  1.00  0.00     0.210 C 
ENDBRANCH  19  23
BRANCH  20  25
HETATM   25  O3  UNL     1      15.003   2.831  51.723  1.00  0.00    -0.338 OA
BRANCH  25  26
HETATM   26  C19 UNL     1      14.362   2.746  52.996  1.00  0.00     0.285 C 
BRANCH  26  27
HETATM   27  C20 UNL     1      14.051   4.107  53.455  1.00  0.00     0.164 C 
HETATM   28  O4  UNL     1      13.018   4.624  52.943  1.00  0.00    -0.648 OA
BRANCH  27  29
HETATM   29  O5  UNL     1      14.742   4.889  54.369  1.00  0.00    -0.775 OA
HETATM   30  H16 UNL     1      14.277   5.444  55.068  1.00  0.00     0.167 HD
ENDBRANCH  27  29
ENDBRANCH  26  27
ENDBRANCH  25  26
ENDBRANCH  20  25
ENDBRANCH   1  17
TORSDOF 6
ENDMDL
