MODEL 1
REMARK VINA RESULT:      -7.6      0.000      0.000
REMARK  3 active torsions:
REMARK  status: ('A' for Active; 'I' for Inactive)
REMARK    1  A    between atoms: O1_2  and  C2_3 
REMARK    2  A    between atoms: S1_11  and  C8_12 
REMARK    3  A    between atoms: C8_12  and  C9_13 
ROOT
HETATM    1  C2  UNL     1      21.313   1.097  51.297  1.00  0.00     0.163 C 
HETATM    2  C3  UNL     1      20.710   2.421  51.187  1.00  0.00     0.079 C 
HETATM    3  C4  UNL     1      20.584   0.205  52.350  1.00  0.00     0.095 C 
HETATM    4  C5  UNL     1      20.698   0.725  53.707  1.00  0.00    -0.024 C 
HETATM    5  C6  UNL     1      21.374  -0.034  54.614  1.00  0.00    -0.010 C 
HETATM    6  C7  UNL     1      22.073  -1.314  54.648  1.00  0.00     0.169 C 
HETATM    7  N1  UNL     1      23.512  -1.123  54.924  1.00  0.00    -0.304 N 
HETATM    8  N2  UNL     1      24.389  -0.709  53.968  1.00  0.00    -0.154 NA
HETATM    9  S1  UNL     1      24.619   0.731  53.238  1.00  0.00    -0.054 SA
HETATM   10  C15 UNL     1      23.112   1.693  52.674  1.00  0.00     0.260 C 
HETATM   11  O2  UNL     1      22.673   1.026  51.595  1.00  0.00    -0.344 OA
HETATM   12  H13 UNL     1      24.245  -1.181  55.652  1.00  0.00     0.183 HD
ENDROOT
BRANCH   9  13
HETATM   13  C8  UNL     1      25.997   0.649  51.992  1.00  0.00     0.129 C 
BRANCH  13  14
HETATM   14  C9  UNL     1      27.237   0.351  52.742  1.00  0.00    -0.048 A 
HETATM   15  C10 UNL     1      27.758  -0.932  52.755  1.00  0.00     0.008 A 
HETATM   16  C11 UNL     1      28.901  -1.353  53.408  1.00  0.00     0.001 A 
HETATM   17  C12 UNL     1      29.561  -0.365  54.107  1.00  0.00     0.000 A 
HETATM   18  C13 UNL     1      29.094   0.932  54.133  1.00  0.00     0.001 A 
HETATM   19  C14 UNL     1      27.941   1.291  53.457  1.00  0.00     0.008 A 
ENDBRANCH  13  14
ENDBRANCH   9  13
BRANCH   1  20
HETATM   20  O1  UNL     1      21.135   0.405  50.106  1.00  0.00    -0.360 OA
HETATM   21  C1  UNL     1      21.463   1.040  48.955  1.00  0.00     0.205 C 
ENDBRANCH   1  20
TORSDOF 3
ENDMDL
MODEL 2
REMARK VINA RESULT:      -7.0      2.101      3.241
REMARK  3 active torsions:
REMARK  status: ('A' for Active; 'I' for Inactive)
REMARK    1  A    between atoms: O1_2  and  C2_3 
REMARK    2  A    between atoms: S1_11  and  C8_12 
REMARK    3  A    between atoms: C8_12  and  C9_13 
ROOT
HETATM    1  C2  UNL     1      20.641   1.426  51.569  1.00  0.00     0.163 C 
HETATM    2  C3  UNL     1      20.233   0.927  50.260  1.00  0.00     0.079 C 
HETATM    3  C4  UNL     1      20.648   2.986  51.627  1.00  0.00     0.095 C 
HETATM    4  C5  UNL     1      21.636   3.579  50.735  1.00  0.00    -0.024 C 
HETATM    5  C6  UNL     1      22.652   4.284  51.306  1.00  0.00    -0.010 C 
HETATM    6  C7  UNL     1      23.091   4.660  52.645  1.00  0.00     0.169 C 
HETATM    7  N1  UNL     1      24.396   4.046  52.965  1.00  0.00    -0.304 N 
HETATM    8  N2  UNL     1      24.517   2.740  53.331  1.00  0.00    -0.154 NA
HETATM    9  S1  UNL     1      24.378   1.348  52.493  1.00  0.00    -0.054 SA
HETATM   10  C15 UNL     1      22.952   1.173  51.289  1.00  0.00     0.260 C 
HETATM   11  O2  UNL     1      21.872   1.007  52.069  1.00  0.00    -0.344 OA
HETATM   12  H13 UNL     1      25.413   4.221  53.041  1.00  0.00     0.183 HD
ENDROOT
BRANCH   9  13
HETATM   13  C8  UNL     1      24.657  -0.133  53.583  1.00  0.00     0.129 C 
BRANCH  13  14
HETATM   14  C9  UNL     1      26.122  -0.322  53.684  1.00  0.00    -0.048 A 
HETATM   15  C10 UNL     1      26.846   0.324  54.673  1.00  0.00     0.008 A 
HETATM   16  C11 UNL     1      28.209   0.242  54.886  1.00  0.00     0.001 A 
HETATM   17  C12 UNL     1      28.880  -0.576  54.002  1.00  0.00     0.000 A 
HETATM   18  C13 UNL     1      28.217  -1.247  52.997  1.00  0.00     0.001 A 
HETATM   19  C14 UNL     1      26.848  -1.124  52.836  1.00  0.00     0.008 A 
ENDBRANCH  13  14
ENDBRANCH   9  13
BRANCH   1  20
HETATM   20  O1  UNL     1      19.690   1.070  52.518  1.00  0.00    -0.360 OA
HETATM   21  C1  UNL     1      18.768   0.142  52.167  1.00  0.00     0.205 C 
ENDBRANCH   1  20
TORSDOF 3
ENDMDL
MODEL 3
REMARK VINA RESULT:      -6.8      2.119      6.281
REMARK  3 active torsions:
REMARK  status: ('A' for Active; 'I' for Inactive)
REMARK    1  A    between atoms: O1_2  and  C2_3 
REMARK    2  A    between atoms: S1_11  and  C8_12 
REMARK    3  A    between atoms: C8_12  and  C9_13 
ROOT
HETATM    1  C2  UNL     1      24.150   2.760  52.221  1.00  0.00     0.163 C 
HETATM    2  C3  UNL     1      23.936   3.007  50.799  1.00  0.00     0.079 C 
HETATM    3  C4  UNL     1      25.610   2.297  52.522  1.00  0.00     0.095 C 
HETATM    4  C5  UNL     1      25.930   1.009  51.920  1.00  0.00    -0.024 C 
HETATM    5  C6  UNL     1      26.208  -0.025  52.762  1.00  0.00    -0.010 C 
HETATM    6  C7  UNL     1      26.295  -0.258  54.199  1.00  0.00     0.169 C 
HETATM    7  N1  UNL     1      25.262  -1.217  54.643  1.00  0.00    -0.304 N 
HETATM    8  N2  UNL     1      23.960  -0.859  54.814  1.00  0.00    -0.154 NA
HETATM    9  S1  UNL     1      22.774  -0.491  53.758  1.00  0.00    -0.054 SA
HETATM   10  C15 UNL     1      23.185   0.628  52.312  1.00  0.00     0.260 C 
HETATM   11  O2  UNL     1      23.308   1.849  52.856  1.00  0.00    -0.344 OA
HETATM   12  H13 UNL     1      25.088  -2.199  54.920  1.00  0.00     0.183 HD
ENDROOT
BRANCH   9  13
HETATM   13  C8  UNL     1      21.188  -0.071  54.635  1.00  0.00     0.129 C 
BRANCH  13  14
HETATM   14  C9  UNL     1      20.103  -0.177  53.634  1.00  0.00    -0.048 A 
HETATM   15  C10 UNL     1      19.164  -1.191  53.721  1.00  0.00     0.008 A 
HETATM   16  C11 UNL     1      18.103  -1.410  52.863  1.00  0.00     0.001 A 
HETATM   17  C12 UNL     1      18.005  -0.506  51.827  1.00  0.00     0.000 A 
HETATM   18  C13 UNL     1      18.908   0.526  51.685  1.00  0.00     0.001 A 
HETATM   19  C14 UNL     1      19.951   0.693  52.580  1.00  0.00     0.008 A 
ENDBRANCH  13  14
ENDBRANCH   9  13
BRANCH   1  20
HETATM   20  O1  UNL     1      24.037   3.954  52.923  1.00  0.00    -0.360 OA
HETATM   21  C1  UNL     1      23.250   4.922  52.393  1.00  0.00     0.205 C 
ENDBRANCH   1  20
TORSDOF 3
ENDMDL
MODEL 4
REMARK VINA RESULT:      -6.7      2.289      3.328
REMARK  3 active torsions:
REMARK  status: ('A' for Active; 'I' for Inactive)
REMARK    1  A    between atoms: O1_2  and  C2_3 
REMARK    2  A    between atoms: S1_11  and  C8_12 
REMARK    3  A    between atoms: C8_12  and  C9_13 
ROOT
HETATM    1  C2  UNL     1      22.365   2.317  49.522  1.00  0.00     0.163 C 
HETATM    2  C3  UNL     1      22.683   2.477  48.107  1.00  0.00     0.079 C 
HETATM    3  C4  UNL     1      21.837   3.640  50.159  1.00  0.00     0.095 C 
HETATM    4  C5  UNL     1      22.838   4.700  50.171  1.00  0.00    -0.024 C 
HETATM    5  C6  UNL     1      23.263   5.146  51.386  1.00  0.00    -0.010 C 
HETATM    6  C7  UNL     1      23.001   4.869  52.794  1.00  0.00     0.169 C 
HETATM    7  N1  UNL     1      24.204   4.327  53.458  1.00  0.00    -0.304 N 
HETATM    8  N2  UNL     1      24.597   3.031  53.312  1.00  0.00    -0.154 NA
HETATM    9  S1  UNL     1      25.257   2.219  52.063  1.00  0.00    -0.054 SA
HETATM   10  C15 UNL     1      24.550   2.493  50.349  1.00  0.00     0.260 C 
HETATM   11  O2  UNL     1      23.373   1.848  50.364  1.00  0.00    -0.344 OA
HETATM   12  H13 UNL     1      24.995   4.556  54.086  1.00  0.00     0.183 HD
ENDROOT
BRANCH   9  13
HETATM   13  C8  UNL     1      25.564   0.436  52.497  1.00  0.00     0.129 C 
BRANCH  13  14
HETATM   14  C9  UNL     1      26.982   0.333  52.911  1.00  0.00    -0.048 A 
HETATM   15  C10 UNL     1      27.608  -0.901  52.970  1.00  0.00     0.008 A 
HETATM   16  C11 UNL     1      28.918  -1.146  53.337  1.00  0.00     0.001 A 
HETATM   17  C12 UNL     1      29.640  -0.021  53.671  1.00  0.00     0.000 A 
HETATM   18  C13 UNL     1      29.075   1.236  53.632  1.00  0.00     0.001 A 
HETATM   19  C14 UNL     1      27.756   1.416  53.256  1.00  0.00     0.008 A 
ENDBRANCH  13  14
ENDBRANCH   9  13
BRANCH   1  20
HETATM   20  O1  UNL     1      21.297   1.439  49.662  1.00  0.00    -0.360 OA
HETATM   21  C1  UNL     1      21.181   0.772  50.836  1.00  0.00     0.205 C 
ENDBRANCH   1  20
TORSDOF 3
ENDMDL
MODEL 5
REMARK VINA RESULT:      -6.6      4.463      5.679
REMARK  3 active torsions:
REMARK  status: ('A' for Active; 'I' for Inactive)
REMARK    1  A    between atoms: O1_2  and  C2_3 
REMARK    2  A    between atoms: S1_11  and  C8_12 
REMARK    3  A    between atoms: C8_12  and  C9_13 
ROOT
HETATM    1  C2  UNL     1      21.045   1.999  52.217  1.00  0.00     0.163 C 
HETATM    2  C3  UNL     1      21.351   0.959  53.194  1.00  0.00     0.079 C 
HETATM    3  C4  UNL     1      20.299   1.432  50.969  1.00  0.00     0.095 C 
HETATM    4  C5  UNL     1      21.113   0.499  50.201  1.00  0.00    -0.024 C 
HETATM    5  C6  UNL     1      21.444   0.856  48.929  1.00  0.00    -0.010 C 
HETATM    6  C7  UNL     1      21.212   1.976  48.023  1.00  0.00     0.169 C 
HETATM    7  N1  UNL     1      22.478   2.664  47.698  1.00  0.00    -0.304 N 
HETATM    8  N2  UNL     1      23.079   3.530  48.560  1.00  0.00    -0.154 NA
HETATM    9  S1  UNL     1      23.880   3.306  49.963  1.00  0.00    -0.054 SA
HETATM   10  C15 UNL     1      23.160   2.114  51.217  1.00  0.00     0.260 C 
HETATM   11  O2  UNL     1      22.103   2.764  51.731  1.00  0.00    -0.344 OA
HETATM   12  H13 UNL     1      23.213   2.781  46.979  1.00  0.00     0.183 HD
ENDROOT
BRANCH   9  13
HETATM   13  C8  UNL     1      24.467   4.920  50.676  1.00  0.00     0.129 C 
BRANCH  13  14
HETATM   14  C9  UNL     1      25.618   5.358  49.856  1.00  0.00    -0.048 A 
HETATM   15  C10 UNL     1      26.560   4.441  49.421  1.00  0.00     0.008 A 
HETATM   16  C11 UNL     1      27.678   4.705  48.653  1.00  0.00     0.001 A 
HETATM   17  C12 UNL     1      27.837   6.030  48.306  1.00  0.00     0.000 A 
HETATM   18  C13 UNL     1      26.934   6.992  48.708  1.00  0.00     0.001 A 
HETATM   19  C14 UNL     1      25.832   6.663  49.477  1.00  0.00     0.008 A 
ENDBRANCH  13  14
ENDBRANCH   9  13
BRANCH   1  20
HETATM   20  O1  UNL     1      20.132   2.894  52.762  1.00  0.00    -0.360 OA
HETATM   21  C1  UNL     1      19.399   3.644  51.905  1.00  0.00     0.205 C 
ENDBRANCH   1  20
TORSDOF 3
ENDMDL
MODEL 6
REMARK VINA RESULT:      -6.6      3.895      4.866
REMARK  3 active torsions:
REMARK  status: ('A' for Active; 'I' for Inactive)
REMARK    1  A    between atoms: O1_2  and  C2_3 
REMARK    2  A    between atoms: S1_11  and  C8_12 
REMARK    3  A    between atoms: C8_12  and  C9_13 
ROOT
HETATM    1  C2  UNL     1      22.235   1.501  50.853  1.00  0.00     0.163 C 
HETATM    2  C3  UNL     1      21.175   2.417  51.261  1.00  0.00     0.079 C 
HETATM    3  C4  UNL     1      22.539   0.431  51.948  1.00  0.00     0.095 C 
HETATM    4  C5  UNL     1      23.070   1.012  53.174  1.00  0.00    -0.024 C 
HETATM    5  C6  UNL     1      24.341   0.672  53.529  1.00  0.00    -0.010 C 
HETATM    6  C7  UNL     1      25.420  -0.165  53.020  1.00  0.00     0.169 C 
HETATM    7  N1  UNL     1      26.592   0.653  52.645  1.00  0.00    -0.304 N 
HETATM    8  N2  UNL     1      26.644   1.365  51.485  1.00  0.00    -0.154 NA
HETATM    9  S1  UNL     1      25.884   2.721  50.995  1.00  0.00    -0.054 SA
HETATM   10  C15 UNL     1      24.052   2.893  51.349  1.00  0.00     0.260 C 
HETATM   11  O2  UNL     1      23.462   2.051  50.487  1.00  0.00    -0.344 OA
HETATM   12  H13 UNL     1      27.536   0.958  52.941  1.00  0.00     0.183 HD
ENDROOT
BRANCH   9  13
HETATM   13  C8  UNL     1      26.386   3.195  49.267  1.00  0.00     0.129 C 
BRANCH  13  14
HETATM   14  C9  UNL     1      26.515   4.670  49.247  1.00  0.00    -0.048 A 
HETATM   15  C10 UNL     1      27.551   5.275  48.556  1.00  0.00     0.008 A 
HETATM   16  C11 UNL     1      27.794   6.631  48.451  1.00  0.00     0.001 A 
HETATM   17  C12 UNL     1      26.889   7.429  49.116  1.00  0.00     0.000 A 
HETATM   18  C13 UNL     1      25.835   6.889  49.822  1.00  0.00     0.001 A 
HETATM   19  C14 UNL     1      25.645   5.520  49.889  1.00  0.00     0.008 A 
ENDBRANCH  13  14
ENDBRANCH   9  13
BRANCH   1  20
HETATM   20  O1  UNL     1      21.804   0.745  49.770  1.00  0.00    -0.360 OA
HETATM   21  C1  UNL     1      21.339   1.409  48.685  1.00  0.00     0.205 C 
ENDBRANCH   1  20
TORSDOF 3
ENDMDL
MODEL 7
REMARK VINA RESULT:      -6.6      2.074      2.759
REMARK  3 active torsions:
REMARK  status: ('A' for Active; 'I' for Inactive)
REMARK    1  A    between atoms: O1_2  and  C2_3 
REMARK    2  A    between atoms: S1_11  and  C8_12 
REMARK    3  A    between atoms: C8_12  and  C9_13 
ROOT
HETATM    1  C2  UNL     1      22.200   4.507  50.671  1.00  0.00     0.163 C 
HETATM    2  C3  UNL     1      21.897   5.812  51.250  1.00  0.00     0.079 C 
HETATM    3  C4  UNL     1      21.040   3.485  50.888  1.00  0.00     0.095 C 
HETATM    4  C5  UNL     1      20.820   3.171  52.294  1.00  0.00    -0.024 C 
HETATM    5  C6  UNL     1      21.043   1.887  52.691  1.00  0.00    -0.010 C 
HETATM    6  C7  UNL     1      21.466   0.626  52.092  1.00  0.00     0.169 C 
HETATM    7  N1  UNL     1      22.760   0.185  52.651  1.00  0.00    -0.304 N 
HETATM    8  N2  UNL     1      23.947   0.728  52.260  1.00  0.00    -0.154 NA
HETATM    9  S1  UNL     1      24.634   2.180  52.539  1.00  0.00    -0.054 SA
HETATM   10  C15 UNL     1      23.563   3.712  52.402  1.00  0.00     0.260 C 
HETATM   11  O2  UNL     1      23.369   3.870  51.083  1.00  0.00    -0.344 OA
HETATM   12  H13 UNL     1      23.213  -0.466  53.317  1.00  0.00     0.183 HD
ENDROOT
BRANCH   9  13
HETATM   13  C8  UNL     1      26.293   2.318  51.709  1.00  0.00     0.129 C 
BRANCH  13  14
HETATM   14  C9  UNL     1      27.258   1.578  52.553  1.00  0.00    -0.048 A 
HETATM   15  C10 UNL     1      28.147   2.260  53.365  1.00  0.00     0.008 A 
HETATM   16  C11 UNL     1      29.097   1.704  54.201  1.00  0.00     0.001 A 
HETATM   17  C12 UNL     1      29.131   0.326  54.195  1.00  0.00     0.000 A 
HETATM   18  C13 UNL     1      28.272  -0.411  53.408  1.00  0.00     0.001 A 
HETATM   19  C14 UNL     1      27.340   0.206  52.592  1.00  0.00     0.008 A 
ENDBRANCH  13  14
ENDBRANCH   9  13
BRANCH   1  20
HETATM   20  O1  UNL     1      22.280   4.619  49.288  1.00  0.00    -0.360 OA
HETATM   21  C1  UNL     1      22.719   3.541  48.595  1.00  0.00     0.205 C 
ENDBRANCH   1  20
TORSDOF 3
ENDMDL
MODEL 8
REMARK VINA RESULT:      -6.4      3.741      5.821
REMARK  3 active torsions:
REMARK  status: ('A' for Active; 'I' for Inactive)
REMARK    1  A    between atoms: O1_2  and  C2_3 
REMARK    2  A    between atoms: S1_11  and  C8_12 
REMARK    3  A    between atoms: C8_12  and  C9_13 
ROOT
HETATM    1  C2  UNL     1      21.787   3.785  48.270  1.00  0.00     0.163 C 
HETATM    2  C3  UNL     1      22.328   2.921  47.226  1.00  0.00     0.079 C 
HETATM    3  C4  UNL     1      22.565   5.134  48.376  1.00  0.00     0.095 C 
HETATM    4  C5  UNL     1      23.951   4.957  48.791  1.00  0.00    -0.024 C 
HETATM    5  C6  UNL     1      24.320   5.493  49.988  1.00  0.00    -0.010 C 
HETATM    6  C7  UNL     1      23.706   6.256  51.068  1.00  0.00     0.169 C 
HETATM    7  N1  UNL     1      23.691   5.477  52.323  1.00  0.00    -0.304 N 
HETATM    8  N2  UNL     1      22.786   4.486  52.556  1.00  0.00    -0.154 NA
HETATM    9  S1  UNL     1      22.621   2.984  51.943  1.00  0.00    -0.054 SA
HETATM   10  C15 UNL     1      22.828   2.750  50.095  1.00  0.00     0.260 C 
HETATM   11  O2  UNL     1      21.711   3.270  49.563  1.00  0.00    -0.344 OA
HETATM   12  H13 UNL     1      24.152   5.349  53.241  1.00  0.00     0.183 HD
ENDROOT
BRANCH   9  13
HETATM   13  C8  UNL     1      21.152   2.108  52.675  1.00  0.00     0.129 C 
BRANCH  13  14
HETATM   14  C9  UNL     1      21.673   0.926  53.397  1.00  0.00    -0.048 A 
HETATM   15  C10 UNL     1      22.988   0.525  53.230  1.00  0.00     0.008 A 
HETATM   16  C11 UNL     1      23.607  -0.552  53.836  1.00  0.00     0.001 A 
HETATM   17  C12 UNL     1      22.798  -1.276  54.685  1.00  0.00     0.000 A 
HETATM   18  C13 UNL     1      21.480  -0.928  54.894  1.00  0.00     0.001 A 
HETATM   19  C14 UNL     1      20.918   0.164  54.257  1.00  0.00     0.008 A 
ENDBRANCH  13  14
ENDBRANCH   9  13
BRANCH   1  20
HETATM   20  O1  UNL     1      20.500   4.178  47.927  1.00  0.00    -0.360 OA
HETATM   21  C1  UNL     1      19.696   3.258  47.342  1.00  0.00     0.205 C 
ENDBRANCH   1  20
TORSDOF 3
ENDMDL
MODEL 9
REMARK VINA RESULT:      -6.3      3.546      4.975
REMARK  3 active torsions:
REMARK  status: ('A' for Active; 'I' for Inactive)
REMARK    1  A    between atoms: O1_2  and  C2_3 
REMARK    2  A    between atoms: S1_11  and  C8_12 
REMARK    3  A    between atoms: C8_12  and  C9_13 
ROOT
HETATM    1  C2  UNL     1      21.810   3.483  48.538  1.00  0.00     0.163 C 
HETATM    2  C3  UNL     1      22.292   2.902  47.289  1.00  0.00     0.079 C 
HETATM    3  C4  UNL     1      21.910   5.041  48.537  1.00  0.00     0.095 C 
HETATM    4  C5  UNL     1      23.285   5.519  48.469  1.00  0.00    -0.024 C 
HETATM    5  C6  UNL     1      23.758   6.220  49.537  1.00  0.00    -0.010 C 
HETATM    6  C7  UNL     1      23.271   6.679  50.832  1.00  0.00     0.169 C 
HETATM    7  N1  UNL     1      24.013   6.035  51.935  1.00  0.00    -0.304 N 
HETATM    8  N2  UNL     1      23.764   4.757  52.334  1.00  0.00    -0.154 NA
HETATM    9  S1  UNL     1      24.075   3.312  51.647  1.00  0.00    -0.054 SA
HETATM   10  C15 UNL     1      23.737   3.107  49.815  1.00  0.00     0.260 C 
HETATM   11  O2  UNL     1      22.399   3.050  49.725  1.00  0.00    -0.344 OA
HETATM   12  H13 UNL     1      24.759   6.170  52.641  1.00  0.00     0.183 HD
ENDROOT
BRANCH   9  13
HETATM   13  C8  UNL     1      23.469   1.910  52.708  1.00  0.00     0.129 C 
BRANCH  13  14
HETATM   14  C9  UNL     1      24.589   0.950  52.832  1.00  0.00    -0.048 A 
HETATM   15  C10 UNL     1      25.662   1.008  51.959  1.00  0.00     0.008 A 
HETATM   16  C11 UNL     1      26.771   0.182  51.957  1.00  0.00     0.001 A 
HETATM   17  C12 UNL     1      26.768  -0.785  52.939  1.00  0.00     0.000 A 
HETATM   18  C13 UNL     1      25.730  -0.894  53.839  1.00  0.00     0.001 A 
HETATM   19  C14 UNL     1      24.646  -0.035  53.790  1.00  0.00     0.008 A 
ENDBRANCH  13  14
ENDBRANCH   9  13
BRANCH   1  20
HETATM   20  O1  UNL     1      20.447   3.245  48.666  1.00  0.00    -0.360 OA
HETATM   21  C1  UNL     1      19.608   4.297  48.509  1.00  0.00     0.205 C 
ENDBRANCH   1  20
TORSDOF 3
ENDMDL
