MODEL 1
REMARK VINA RESULT:      -7.5      0.000      0.000
REMARK  7 active torsions:
REMARK  status: ('A' for Active; 'I' for Inactive)
REMARK    1  A    between atoms: C5_7  and  N1_8 
REMARK    2  A    between atoms: N1_8  and  C6_9 
REMARK    3  A    between atoms: C6_9  and  C7_10 
REMARK    4  A    between atoms: N3_18  and  C14_19 
REMARK    5  A    between atoms: C14_19  and  C15_20 
REMARK    6  A    between atoms: C15_20  and  C16_21 
REMARK    7  A    between atoms: C16_21  and  N4_22 
ROOT
HETATM    1  O1  UNL     1      25.454   5.959  50.358  1.00  0.00    -0.271 OA
HETATM    2  C1  UNL     1      24.278   5.512  50.404  1.00  0.00     0.248 C 
HETATM    3  C2  UNL     1      23.053   6.386  50.439  1.00  0.00     0.279 C 
HETATM    4  O2  UNL     1      22.126   5.889  51.387  1.00  0.00    -0.340 OA
HETATM    5  C3  UNL     1      21.826   4.533  51.446  1.00  0.00     0.094 A 
HETATM    6  C4  UNL     1      20.790   3.867  51.872  1.00  0.00     0.051 A 
HETATM    7  C5  UNL     1      20.961   2.390  51.713  1.00  0.00     0.271 A 
HETATM    8  C12 UNL     1      22.322   2.333  51.100  1.00  0.00     0.045 A 
HETATM    9  C13 UNL     1      22.816   3.556  50.948  1.00  0.00     0.069 A 
HETATM   10  N3  UNL     1      24.051   4.087  50.425  1.00  0.00    -0.314 N 
ENDROOT
BRANCH   7  11
HETATM   11  N1  UNL     1      20.925   1.821  53.017  1.00  0.00     0.099 N 
HETATM   12  H5  UNL     1      21.889   1.776  53.463  1.00  0.00     0.317 HD
BRANCH  11  13
HETATM   13  C6  UNL     1      20.405   0.482  53.109  1.00  0.00     0.307 C 
BRANCH  13  14
HETATM   14  C7  UNL     1      21.393  -0.570  53.362  1.00  0.00    -0.018 C 
HETATM   15  C8  UNL     1      21.066  -1.585  54.151  1.00  0.00     0.089 C 
HETATM   16  N2  UNL     1      21.749  -1.712  55.211  1.00  0.00    -0.259 NA
HETATM   17  C9  UNL     1      23.111  -1.252  55.301  1.00  0.00     0.113 C 
HETATM   18  C10 UNL     1      23.652  -0.822  54.176  1.00  0.00    -0.003 C 
HETATM   19  C11 UNL     1      22.788  -0.869  52.966  1.00  0.00     0.067 C 
ENDBRANCH  13  14
ENDBRANCH  11  13
ENDBRANCH   7  11
BRANCH  10  20
HETATM   20  C14 UNL     1      25.028   3.176  49.934  1.00  0.00     0.134 C 
BRANCH  20  21
HETATM   21  C15 UNL     1      26.267   3.032  50.753  1.00  0.00     0.050 C 
BRANCH  21  22
HETATM   22  C16 UNL     1      26.129   2.210  51.993  1.00  0.00     0.274 C 
BRANCH  22  23
HETATM   23  N4  UNL     1      27.349   1.559  52.386  1.00  0.00     0.092 N 
HETATM   24  C17 UNL     1      27.116   0.263  52.981  1.00  0.00     0.298 C 
HETATM   25  C18 UNL     1      26.963   0.469  54.482  1.00  0.00     0.198 C 
HETATM   26  O3  UNL     1      28.223   0.700  55.036  1.00  0.00    -0.388 OA
HETATM   27  C19 UNL     1      29.004   1.506  54.213  1.00  0.00     0.198 C 
HETATM   28  C20 UNL     1      28.153   2.339  53.276  1.00  0.00     0.298 C 
ENDBRANCH  22  23
ENDBRANCH  21  22
ENDBRANCH  20  21
ENDBRANCH  10  20
TORSDOF 7
ENDMDL
MODEL 2
REMARK VINA RESULT:      -7.5      2.532      5.850
REMARK  7 active torsions:
REMARK  status: ('A' for Active; 'I' for Inactive)
REMARK    1  A    between atoms: C5_7  and  N1_8 
REMARK    2  A    between atoms: N1_8  and  C6_9 
REMARK    3  A    between atoms: C6_9  and  C7_10 
REMARK    4  A    between atoms: N3_18  and  C14_19 
REMARK    5  A    between atoms: C14_19  and  C15_20 
REMARK    6  A    between atoms: C15_20  and  C16_21 
REMARK    7  A    between atoms: C16_21  and  N4_22 
ROOT
HETATM    1  O1  UNL     1      21.687  -2.043  54.293  1.00  0.00    -0.271 OA
HETATM    2  C1  UNL     1      21.469  -0.931  53.745  1.00  0.00     0.248 C 
HETATM    3  C2  UNL     1      20.095  -0.430  53.388  1.00  0.00     0.279 C 
HETATM    4  O2  UNL     1      20.109   0.156  52.099  1.00  0.00    -0.340 OA
HETATM    5  C3  UNL     1      21.118   1.035  51.728  1.00  0.00     0.094 A 
HETATM    6  C4  UNL     1      21.186   1.996  50.850  1.00  0.00     0.051 A 
HETATM    7  C5  UNL     1      22.526   2.659  50.836  1.00  0.00     0.271 A 
HETATM    8  C12 UNL     1      23.232   1.878  51.896  1.00  0.00     0.045 A 
HETATM    9  C13 UNL     1      22.428   0.952  52.405  1.00  0.00     0.069 A 
HETATM   10  N3  UNL     1      22.573  -0.058  53.425  1.00  0.00    -0.314 N 
ENDROOT
BRANCH   7  11
HETATM   11  N1  UNL     1      23.083   2.450  49.543  1.00  0.00     0.099 N 
HETATM   12  H5  UNL     1      23.840   1.705  49.546  1.00  0.00     0.317 HD
BRANCH  11  13
HETATM   13  C6  UNL     1      23.687   3.600  48.922  1.00  0.00     0.307 C 
BRANCH  13  14
HETATM   14  C7  UNL     1      24.954   4.048  49.508  1.00  0.00    -0.018 C 
HETATM   15  C8  UNL     1      24.988   5.203  50.160  1.00  0.00     0.089 C 
HETATM   16  N2  UNL     1      25.746   6.096  49.677  1.00  0.00    -0.259 NA
HETATM   17  C9  UNL     1      26.917   5.768  48.905  1.00  0.00     0.113 C 
HETATM   18  C10 UNL     1      27.235   4.488  48.852  1.00  0.00    -0.003 C 
HETATM   19  C11 UNL     1      26.346   3.553  49.594  1.00  0.00     0.067 C 
ENDBRANCH  13  14
ENDBRANCH  11  13
ENDBRANCH   7  11
BRANCH  10  20
HETATM   20  C14 UNL     1      23.820  -0.168  54.101  1.00  0.00     0.134 C 
BRANCH  20  21
HETATM   21  C15 UNL     1      24.977  -0.634  53.282  1.00  0.00     0.050 C 
BRANCH  21  22
HETATM   22  C16 UNL     1      26.208   0.209  53.363  1.00  0.00     0.274 C 
BRANCH  22  23
HETATM   23  N4  UNL     1      27.319  -0.459  53.983  1.00  0.00     0.092 N 
HETATM   24  C17 UNL     1      28.163   0.447  54.726  1.00  0.00     0.298 C 
HETATM   25  C18 UNL     1      29.240   0.954  53.775  1.00  0.00     0.198 C 
HETATM   26  O3  UNL     1      30.183  -0.057  53.582  1.00  0.00    -0.388 OA
HETATM   27  C19 UNL     1      29.580  -1.308  53.485  1.00  0.00     0.198 C 
HETATM   28  C20 UNL     1      28.129  -1.196  53.063  1.00  0.00     0.298 C 
ENDBRANCH  22  23
ENDBRANCH  21  22
ENDBRANCH  20  21
ENDBRANCH  10  20
TORSDOF 7
ENDMDL
MODEL 3
REMARK VINA RESULT:      -7.5      2.603      5.181
REMARK  7 active torsions:
REMARK  status: ('A' for Active; 'I' for Inactive)
REMARK    1  A    between atoms: C5_7  and  N1_8 
REMARK    2  A    between atoms: N1_8  and  C6_9 
REMARK    3  A    between atoms: C6_9  and  C7_10 
REMARK    4  A    between atoms: N3_18  and  C14_19 
REMARK    5  A    between atoms: C14_19  and  C15_20 
REMARK    6  A    between atoms: C15_20  and  C16_21 
REMARK    7  A    between atoms: C16_21  and  N4_22 
ROOT
HETATM    1  O1  UNL     1      25.325   6.569  48.192  1.00  0.00    -0.271 OA
HETATM    2  C1  UNL     1      25.756   5.727  49.022  1.00  0.00     0.248 C 
HETATM    3  C2  UNL     1      27.104   5.066  48.919  1.00  0.00     0.279 C 
HETATM    4  O2  UNL     1      26.993   3.683  49.207  1.00  0.00    -0.340 OA
HETATM    5  C3  UNL     1      26.255   3.241  50.298  1.00  0.00     0.094 A 
HETATM    6  C4  UNL     1      26.302   2.162  51.028  1.00  0.00     0.051 A 
HETATM    7  C5  UNL     1      25.268   2.163  52.108  1.00  0.00     0.271 A 
HETATM    8  C12 UNL     1      24.604   3.476  51.855  1.00  0.00     0.045 A 
HETATM    9  C13 UNL     1      25.167   4.091  50.822  1.00  0.00     0.069 A 
HETATM   10  N3  UNL     1      24.939   5.348  50.151  1.00  0.00    -0.314 N 
ENDROOT
BRANCH   7  11
HETATM   11  N1  UNL     1      24.406   1.058  51.863  1.00  0.00     0.099 N 
HETATM   12  H5  UNL     1      23.432   1.365  51.568  1.00  0.00     0.317 HD
BRANCH  11  13
HETATM   13  C6  UNL     1      24.198   0.160  52.970  1.00  0.00     0.307 C 
BRANCH  13  14
HETATM   14  C7  UNL     1      25.384  -0.565  53.434  1.00  0.00    -0.018 C 
HETATM   15  C8  UNL     1      25.647  -0.605  54.733  1.00  0.00     0.089 C 
HETATM   16  N2  UNL     1      26.737  -0.072  55.100  1.00  0.00    -0.259 NA
HETATM   17  C9  UNL     1      27.878   0.013  54.224  1.00  0.00     0.113 C 
HETATM   18  C10 UNL     1      27.770  -0.621  53.071  1.00  0.00    -0.003 C 
HETATM   19  C11 UNL     1      26.491  -1.339  52.827  1.00  0.00     0.067 C 
ENDBRANCH  13  14
ENDBRANCH  11  13
ENDBRANCH   7  11
BRANCH  10  20
HETATM   20  C14 UNL     1      23.901   6.195  50.628  1.00  0.00     0.134 C 
BRANCH  20  21
HETATM   21  C15 UNL     1      22.529   5.912  50.116  1.00  0.00     0.050 C 
BRANCH  21  22
HETATM   22  C16 UNL     1      21.542   5.442  51.135  1.00  0.00     0.274 C 
BRANCH  22  23
HETATM   23  N4  UNL     1      20.805   4.279  50.724  1.00  0.00     0.092 N 
HETATM   24  C17 UNL     1      20.157   3.617  51.832  1.00  0.00     0.298 C 
HETATM   25  C18 UNL     1      21.129   2.577  52.376  1.00  0.00     0.198 C 
HETATM   26  O3  UNL     1      21.158   1.488  51.504  1.00  0.00    -0.388 OA
HETATM   27  C19 UNL     1      21.113   1.896  50.174  1.00  0.00     0.198 C 
HETATM   28  C20 UNL     1      21.595   3.323  50.011  1.00  0.00     0.298 C 
ENDBRANCH  22  23
ENDBRANCH  21  22
ENDBRANCH  20  21
ENDBRANCH  10  20
TORSDOF 7
ENDMDL
MODEL 4
REMARK VINA RESULT:      -7.3      4.838      6.594
REMARK  7 active torsions:
REMARK  status: ('A' for Active; 'I' for Inactive)
REMARK    1  A    between atoms: C5_7  and  N1_8 
REMARK    2  A    between atoms: N1_8  and  C6_9 
REMARK    3  A    between atoms: C6_9  and  C7_10 
REMARK    4  A    between atoms: N3_18  and  C14_19 
REMARK    5  A    between atoms: C14_19  and  C15_20 
REMARK    6  A    between atoms: C15_20  and  C16_21 
REMARK    7  A    between atoms: C16_21  and  N4_22 
ROOT
HETATM    1  O1  UNL     1      27.813   9.158  48.266  1.00  0.00    -0.271 OA
HETATM    2  C1  UNL     1      27.088   8.137  48.383  1.00  0.00     0.248 C 
HETATM    3  C2  UNL     1      25.597   8.189  48.588  1.00  0.00     0.279 C 
HETATM    4  O2  UNL     1      25.207   7.253  49.577  1.00  0.00    -0.340 OA
HETATM    5  C3  UNL     1      25.706   5.957  49.566  1.00  0.00     0.094 A 
HETATM    6  C4  UNL     1      25.260   4.825  50.034  1.00  0.00     0.051 A 
HETATM    7  C5  UNL     1      26.192   3.689  49.757  1.00  0.00     0.271 A 
HETATM    8  C12 UNL     1      27.283   4.399  49.024  1.00  0.00     0.045 A 
HETATM    9  C13 UNL     1      27.006   5.693  48.915  1.00  0.00     0.069 A 
HETATM   10  N3  UNL     1      27.682   6.822  48.324  1.00  0.00    -0.314 N 
ENDROOT
BRANCH   7  11
HETATM   11  N1  UNL     1      26.620   3.182  51.016  1.00  0.00     0.099 N 
HETATM   12  H5  UNL     1      27.647   3.382  51.203  1.00  0.00     0.317 HD
BRANCH  11  13
HETATM   13  C6  UNL     1      26.472   1.763  51.209  1.00  0.00     0.307 C 
BRANCH  13  14
HETATM   14  C7  UNL     1      26.848   1.256  52.531  1.00  0.00    -0.018 C 
HETATM   15  C8  UNL     1      26.939   2.108  53.545  1.00  0.00     0.089 C 
HETATM   16  N2  UNL     1      28.083   2.222  54.077  1.00  0.00    -0.259 NA
HETATM   17  C9  UNL     1      29.043   1.148  54.063  1.00  0.00     0.113 C 
HETATM   18  C10 UNL     1      28.612  -0.006  53.590  1.00  0.00    -0.003 C 
HETATM   19  C11 UNL     1      27.196  -0.049  53.136  1.00  0.00     0.067 C 
ENDBRANCH  13  14
ENDBRANCH  11  13
ENDBRANCH   7  11
BRANCH  10  20
HETATM   20  C14 UNL     1      28.935   6.606  47.686  1.00  0.00     0.134 C 
BRANCH  20  21
HETATM   21  C15 UNL     1      30.113   6.436  48.585  1.00  0.00     0.050 C 
BRANCH  21  22
HETATM   22  C16 UNL     1      31.442   6.372  47.903  1.00  0.00     0.274 C 
BRANCH  22  23
HETATM   23  N4  UNL     1      32.321   5.379  48.458  1.00  0.00     0.092 N 
HETATM   24  C17 UNL     1      33.682   5.850  48.571  1.00  0.00     0.298 C 
HETATM   25  C18 UNL     1      34.400   5.492  47.275  1.00  0.00     0.198 C 
HETATM   26  O3  UNL     1      34.679   4.124  47.279  1.00  0.00    -0.388 OA
HETATM   27  C19 UNL     1      33.628   3.389  47.820  1.00  0.00     0.198 C 
HETATM   28  C20 UNL     1      32.317   4.144  47.737  1.00  0.00     0.298 C 
ENDBRANCH  22  23
ENDBRANCH  21  22
ENDBRANCH  20  21
ENDBRANCH  10  20
TORSDOF 7
ENDMDL
MODEL 5
REMARK VINA RESULT:      -7.3      2.469      4.684
REMARK  7 active torsions:
REMARK  status: ('A' for Active; 'I' for Inactive)
REMARK    1  A    between atoms: C5_7  and  N1_8 
REMARK    2  A    between atoms: N1_8  and  C6_9 
REMARK    3  A    between atoms: C6_9  and  C7_10 
REMARK    4  A    between atoms: N3_18  and  C14_19 
REMARK    5  A    between atoms: C14_19  and  C15_20 
REMARK    6  A    between atoms: C15_20  and  C16_21 
REMARK    7  A    between atoms: C16_21  and  N4_22 
ROOT
HETATM    1  O1  UNL     1      20.332   4.841  49.657  1.00  0.00    -0.271 OA
HETATM    2  C1  UNL     1      20.167   3.824  50.379  1.00  0.00     0.248 C 
HETATM    3  C2  UNL     1      19.101   3.713  51.436  1.00  0.00     0.279 C 
HETATM    4  O2  UNL     1      19.636   3.127  52.610  1.00  0.00    -0.340 OA
HETATM    5  C3  UNL     1      20.445   2.000  52.536  1.00  0.00     0.094 A 
HETATM    6  C4  UNL     1      20.722   1.044  53.378  1.00  0.00     0.051 A 
HETATM    7  C5  UNL     1      21.671   0.040  52.806  1.00  0.00     0.271 A 
HETATM    8  C12 UNL     1      21.893   0.613  51.445  1.00  0.00     0.045 A 
HETATM    9  C13 UNL     1      21.193   1.731  51.291  1.00  0.00     0.069 A 
HETATM   10  N3  UNL     1      21.030   2.678  50.215  1.00  0.00    -0.314 N 
ENDROOT
BRANCH   7  11
HETATM   11  N1  UNL     1      22.846   0.070  53.609  1.00  0.00     0.099 N 
HETATM   12  H5  UNL     1      22.764   0.755  54.418  1.00  0.00     0.317 HD
BRANCH  11  13
HETATM   13  C6  UNL     1      24.065   0.432  52.933  1.00  0.00     0.307 C 
BRANCH  13  14
HETATM   14  C7  UNL     1      25.251  -0.349  53.295  1.00  0.00    -0.018 C 
HETATM   15  C8  UNL     1      25.437  -0.686  54.564  1.00  0.00     0.089 C 
HETATM   16  N2  UNL     1      26.479  -0.225  55.118  1.00  0.00    -0.259 NA
HETATM   17  C9  UNL     1      27.665   0.096  54.367  1.00  0.00     0.113 C 
HETATM   18  C10 UNL     1      27.654  -0.253  53.093  1.00  0.00    -0.003 C 
HETATM   19  C11 UNL     1      26.423  -0.928  52.601  1.00  0.00     0.067 C 
ENDBRANCH  13  14
ENDBRANCH  11  13
ENDBRANCH   7  11
BRANCH  10  20
HETATM   20  C14 UNL     1      21.732   2.452  48.998  1.00  0.00     0.134 C 
BRANCH  20  21
HETATM   21  C15 UNL     1      23.181   2.808  48.996  1.00  0.00     0.050 C 
BRANCH  21  22
HETATM   22  C16 UNL     1      23.500   4.216  48.610  1.00  0.00     0.274 C 
BRANCH  22  23
HETATM   23  N4  UNL     1      24.545   4.804  49.403  1.00  0.00     0.092 N 
HETATM   24  C17 UNL     1      24.346   4.595  50.818  1.00  0.00     0.298 C 
HETATM   25  C18 UNL     1      23.538   5.774  51.347  1.00  0.00     0.198 C 
HETATM   26  O3  UNL     1      24.375   6.886  51.442  1.00  0.00    -0.388 OA
HETATM   27  C19 UNL     1      25.253   6.961  50.364  1.00  0.00     0.198 C 
HETATM   28  C20 UNL     1      24.727   6.202  49.163  1.00  0.00     0.298 C 
ENDBRANCH  22  23
ENDBRANCH  21  22
ENDBRANCH  20  21
ENDBRANCH  10  20
TORSDOF 7
ENDMDL
MODEL 6
REMARK VINA RESULT:      -7.3      2.686      6.127
REMARK  7 active torsions:
REMARK  status: ('A' for Active; 'I' for Inactive)
REMARK    1  A    between atoms: C5_7  and  N1_8 
REMARK    2  A    between atoms: N1_8  and  C6_9 
REMARK    3  A    between atoms: C6_9  and  C7_10 
REMARK    4  A    between atoms: N3_18  and  C14_19 
REMARK    5  A    between atoms: C14_19  and  C15_20 
REMARK    6  A    between atoms: C15_20  and  C16_21 
REMARK    7  A    between atoms: C16_21  and  N4_22 
ROOT
HETATM    1  O1  UNL     1      17.388   0.510  51.746  1.00  0.00    -0.271 OA
HETATM    2  C1  UNL     1      18.510   0.019  52.030  1.00  0.00     0.248 C 
HETATM    3  C2  UNL     1      18.716  -1.046  53.075  1.00  0.00     0.279 C 
HETATM    4  O2  UNL     1      19.856  -0.745  53.860  1.00  0.00    -0.340 OA
HETATM    5  C3  UNL     1      21.042  -0.334  53.265  1.00  0.00     0.094 A 
HETATM    6  C4  UNL     1      22.291  -0.390  53.633  1.00  0.00     0.051 A 
HETATM    7  C5  UNL     1      23.211   0.202  52.614  1.00  0.00     0.271 A 
HETATM    8  C12 UNL     1      22.231   0.617  51.565  1.00  0.00     0.045 A 
HETATM    9  C13 UNL     1      20.994   0.311  51.937  1.00  0.00     0.069 A 
HETATM   10  N3  UNL     1      19.692   0.476  51.338  1.00  0.00    -0.314 N 
ENDROOT
BRANCH   7  11
HETATM   11  N1  UNL     1      23.858   1.311  53.227  1.00  0.00     0.099 N 
HETATM   12  H5  UNL     1      23.445   2.240  52.916  1.00  0.00     0.317 HD
BRANCH  11  13
HETATM   13  C6  UNL     1      25.273   1.429  52.988  1.00  0.00     0.307 C 
BRANCH  13  14
HETATM   14  C7  UNL     1      26.091   0.298  53.434  1.00  0.00    -0.018 C 
HETATM   15  C8  UNL     1      26.195   0.051  54.734  1.00  0.00     0.089 C 
HETATM   16  N2  UNL     1      27.358   0.136  55.228  1.00  0.00    -0.259 NA
HETATM   17  C9  UNL     1      28.542  -0.101  54.441  1.00  0.00     0.113 C 
HETATM   18  C10 UNL     1      28.340  -0.551  53.216  1.00  0.00    -0.003 C 
HETATM   19  C11 UNL     1      26.924  -0.754  52.809  1.00  0.00     0.067 C 
ENDBRANCH  13  14
ENDBRANCH  11  13
ENDBRANCH   7  11
BRANCH  10  20
HETATM   20  C14 UNL     1      19.605   1.092  50.058  1.00  0.00     0.134 C 
BRANCH  20  21
HETATM   21  C15 UNL     1      19.559   2.582  50.045  1.00  0.00     0.050 C 
BRANCH  21  22
HETATM   22  C16 UNL     1      20.730   3.260  49.410  1.00  0.00     0.274 C 
BRANCH  22  23
HETATM   23  N4  UNL     1      21.266   4.335  50.199  1.00  0.00     0.092 N 
HETATM   24  C17 UNL     1      22.612   4.686  49.812  1.00  0.00     0.298 C 
HETATM   25  C18 UNL     1      23.565   3.844  50.652  1.00  0.00     0.198 C 
HETATM   26  O3  UNL     1      23.606   4.366  51.945  1.00  0.00    -0.388 OA
HETATM   27  C19 UNL     1      22.346   4.779  52.370  1.00  0.00     0.198 C 
HETATM   28  C20 UNL     1      21.241   4.079  51.606  1.00  0.00     0.298 C 
ENDBRANCH  22  23
ENDBRANCH  21  22
ENDBRANCH  20  21
ENDBRANCH  10  20
TORSDOF 7
ENDMDL
MODEL 7
REMARK VINA RESULT:      -7.3      2.879      5.614
REMARK  7 active torsions:
REMARK  status: ('A' for Active; 'I' for Inactive)
REMARK    1  A    between atoms: C5_7  and  N1_8 
REMARK    2  A    between atoms: N1_8  and  C6_9 
REMARK    3  A    between atoms: C6_9  and  C7_10 
REMARK    4  A    between atoms: N3_18  and  C14_19 
REMARK    5  A    between atoms: C14_19  and  C15_20 
REMARK    6  A    between atoms: C15_20  and  C16_21 
REMARK    7  A    between atoms: C16_21  and  N4_22 
ROOT
HETATM    1  O1  UNL     1      22.753   5.099  47.593  1.00  0.00    -0.271 OA
HETATM    2  C1  UNL     1      22.691   4.799  48.813  1.00  0.00     0.248 C 
HETATM    3  C2  UNL     1      22.430   5.799  49.908  1.00  0.00     0.279 C 
HETATM    4  O2  UNL     1      23.296   5.561  51.003  1.00  0.00    -0.340 OA
HETATM    5  C3  UNL     1      23.497   4.273  51.483  1.00  0.00     0.094 A 
HETATM    6  C4  UNL     1      23.859   3.800  52.643  1.00  0.00     0.051 A 
HETATM    7  C5  UNL     1      23.931   2.306  52.649  1.00  0.00     0.271 A 
HETATM    8  C12 UNL     1      23.533   2.004  51.242  1.00  0.00     0.045 A 
HETATM    9  C13 UNL     1      23.285   3.126  50.576  1.00  0.00     0.069 A 
HETATM   10  N3  UNL     1      22.877   3.429  49.226  1.00  0.00    -0.314 N 
ENDROOT
BRANCH   7  11
HETATM   11  N1  UNL     1      25.283   1.954  52.922  1.00  0.00     0.099 N 
HETATM   12  H5  UNL     1      25.967   2.697  52.593  1.00  0.00     0.317 HD
BRANCH  11  13
HETATM   13  C6  UNL     1      25.748   0.727  52.330  1.00  0.00     0.307 C 
BRANCH  13  14
HETATM   14  C7  UNL     1      26.588  -0.116  53.185  1.00  0.00    -0.018 C 
HETATM   15  C8  UNL     1      26.527   0.039  54.501  1.00  0.00     0.089 C 
HETATM   16  N2  UNL     1      27.596   0.406  55.071  1.00  0.00    -0.259 NA
HETATM   17  C9  UNL     1      28.896   0.100  54.529  1.00  0.00     0.113 C 
HETATM   18  C10 UNL     1      28.910  -0.706  53.483  1.00  0.00    -0.003 C 
HETATM   19  C11 UNL     1      27.588  -1.192  53.003  1.00  0.00     0.067 C 
ENDBRANCH  13  14
ENDBRANCH  11  13
ENDBRANCH   7  11
BRANCH  10  20
HETATM   20  C14 UNL     1      22.661   2.350  48.324  1.00  0.00     0.134 C 
BRANCH  20  21
HETATM   21  C15 UNL     1      21.406   1.567  48.518  1.00  0.00     0.050 C 
BRANCH  21  22
HETATM   22  C16 UNL     1      20.148   2.371  48.596  1.00  0.00     0.274 C 
BRANCH  22  23
HETATM   23  N4  UNL     1      19.344   2.065  49.747  1.00  0.00     0.092 N 
HETATM   24  C17 UNL     1      18.799   3.249  50.370  1.00  0.00     0.298 C 
HETATM   25  C18 UNL     1      19.797   3.712  51.424  1.00  0.00     0.198 C 
HETATM   26  O3  UNL     1      19.708   2.867  52.531  1.00  0.00    -0.388 OA
HETATM   27  C19 UNL     1      19.535   1.539  52.148  1.00  0.00     0.198 C 
HETATM   28  C20 UNL     1      20.032   1.295  50.737  1.00  0.00     0.298 C 
ENDBRANCH  22  23
ENDBRANCH  21  22
ENDBRANCH  20  21
ENDBRANCH  10  20
TORSDOF 7
ENDMDL
MODEL 8
REMARK VINA RESULT:      -7.2      2.177      6.523
REMARK  7 active torsions:
REMARK  status: ('A' for Active; 'I' for Inactive)
REMARK    1  A    between atoms: C5_7  and  N1_8 
REMARK    2  A    between atoms: N1_8  and  C6_9 
REMARK    3  A    between atoms: C6_9  and  C7_10 
REMARK    4  A    between atoms: N3_18  and  C14_19 
REMARK    5  A    between atoms: C14_19  and  C15_20 
REMARK    6  A    between atoms: C15_20  and  C16_21 
REMARK    7  A    between atoms: C16_21  and  N4_22 
ROOT
HETATM    1  O1  UNL     1      28.094  -0.194  55.216  1.00  0.00    -0.271 OA
HETATM    2  C1  UNL     1      27.931   0.354  54.095  1.00  0.00     0.248 C 
HETATM    3  C2  UNL     1      28.977   1.195  53.415  1.00  0.00     0.279 C 
HETATM    4  O2  UNL     1      28.385   2.356  52.860  1.00  0.00    -0.340 OA
HETATM    5  C3  UNL     1      27.202   2.274  52.136  1.00  0.00     0.094 A 
HETATM    6  C4  UNL     1      26.669   3.021  51.210  1.00  0.00     0.051 A 
HETATM    7  C5  UNL     1      25.352   2.491  50.741  1.00  0.00     0.271 A 
HETATM    8  C12 UNL     1      25.226   1.270  51.592  1.00  0.00     0.045 A 
HETATM    9  C13 UNL     1      26.281   1.147  52.389  1.00  0.00     0.069 A 
HETATM   10  N3  UNL     1      26.681   0.189  53.390  1.00  0.00    -0.314 N 
ENDROOT
BRANCH   7  11
HETATM   11  N1  UNL     1      24.371   3.475  51.048  1.00  0.00     0.099 N 
HETATM   12  H5  UNL     1      23.457   3.044  51.376  1.00  0.00     0.317 HD
BRANCH  11  13
HETATM   13  C6  UNL     1      24.006   4.360  49.972  1.00  0.00     0.307 C 
BRANCH  13  14
HETATM   14  C7  UNL     1      22.841   3.955  49.182  1.00  0.00    -0.018 C 
HETATM   15  C8  UNL     1      21.761   3.506  49.809  1.00  0.00     0.089 C 
HETATM   16  N2  UNL     1      21.425   2.311  49.555  1.00  0.00    -0.259 NA
HETATM   17  C9  UNL     1      21.737   1.679  48.299  1.00  0.00     0.113 C 
HETATM   18  C10 UNL     1      22.267   2.460  47.376  1.00  0.00    -0.003 C 
HETATM   19  C11 UNL     1      22.470   3.885  47.750  1.00  0.00     0.067 C 
ENDBRANCH  13  14
ENDBRANCH  11  13
ENDBRANCH   7  11
BRANCH  10  20
HETATM   20  C14 UNL     1      25.822  -0.912  53.660  1.00  0.00     0.134 C 
BRANCH  20  21
HETATM   21  C15 UNL     1      24.594  -0.613  54.453  1.00  0.00     0.050 C 
BRANCH  21  22
HETATM   22  C16 UNL     1      23.297  -0.834  53.745  1.00  0.00     0.274 C 
BRANCH  22  23
HETATM   23  N4  UNL     1      22.321   0.188  54.007  1.00  0.00     0.092 N 
HETATM   24  C17 UNL     1      21.153  -0.325  54.683  1.00  0.00     0.298 C 
HETATM   25  C18 UNL     1      20.151  -0.744  53.614  1.00  0.00     0.198 C 
HETATM   26  O3  UNL     1      19.562   0.400  53.075  1.00  0.00    -0.388 OA
HETATM   27  C19 UNL     1      20.489   1.428  52.919  1.00  0.00     0.198 C 
HETATM   28  C20 UNL     1      21.904   0.895  52.835  1.00  0.00     0.298 C 
ENDBRANCH  22  23
ENDBRANCH  21  22
ENDBRANCH  20  21
ENDBRANCH  10  20
TORSDOF 7
ENDMDL
MODEL 9
REMARK VINA RESULT:      -7.2      2.310      6.012
REMARK  7 active torsions:
REMARK  status: ('A' for Active; 'I' for Inactive)
REMARK    1  A    between atoms: C5_7  and  N1_8 
REMARK    2  A    between atoms: N1_8  and  C6_9 
REMARK    3  A    between atoms: C6_9  and  C7_10 
REMARK    4  A    between atoms: N3_18  and  C14_19 
REMARK    5  A    between atoms: C14_19  and  C15_20 
REMARK    6  A    between atoms: C15_20  and  C16_21 
REMARK    7  A    between atoms: C16_21  and  N4_22 
ROOT
HETATM    1  O1  UNL     1      19.357   3.236  52.331  1.00  0.00    -0.271 OA
HETATM    2  C1  UNL     1      20.089   2.214  52.278  1.00  0.00     0.248 C 
HETATM    3  C2  UNL     1      19.581   0.811  52.476  1.00  0.00     0.279 C 
HETATM    4  O2  UNL     1      20.473   0.081  53.300  1.00  0.00    -0.340 OA
HETATM    5  C3  UNL     1      21.844   0.135  53.085  1.00  0.00     0.094 A 
HETATM    6  C4  UNL     1      22.823  -0.681  53.362  1.00  0.00     0.051 A 
HETATM    7  C5  UNL     1      24.147  -0.151  52.913  1.00  0.00     0.271 A 
HETATM    8  C12 UNL     1      23.735   1.153  52.311  1.00  0.00     0.045 A 
HETATM    9  C13 UNL     1      22.421   1.315  52.410  1.00  0.00     0.069 A 
HETATM   10  N3  UNL     1      21.501   2.354  52.013  1.00  0.00    -0.314 N 
ENDROOT
BRANCH   7  11
HETATM   11  N1  UNL     1      24.949   0.014  54.077  1.00  0.00     0.099 N 
HETATM   12  H5  UNL     1      25.152   1.037  54.284  1.00  0.00     0.317 HD
BRANCH  11  13
HETATM   13  C6  UNL     1      26.237  -0.628  54.054  1.00  0.00     0.307 C 
BRANCH  13  14
HETATM   14  C7  UNL     1      27.319   0.135  53.427  1.00  0.00    -0.018 C 
HETATM   15  C8  UNL     1      28.553  -0.351  53.461  1.00  0.00     0.089 C 
HETATM   16  N2  UNL     1      29.412   0.347  54.077  1.00  0.00    -0.259 NA
HETATM   17  C9  UNL     1      29.291   1.778  54.197  1.00  0.00     0.113 C 
HETATM   18  C10 UNL     1      28.312   2.334  53.507  1.00  0.00    -0.003 C 
HETATM   19  C11 UNL     1      27.465   1.415  52.699  1.00  0.00     0.067 C 
ENDBRANCH  13  14
ENDBRANCH  11  13
ENDBRANCH   7  11
BRANCH  10  20
HETATM   20  C14 UNL     1      22.018   3.506  51.358  1.00  0.00     0.134 C 
BRANCH  20  21
HETATM   21  C15 UNL     1      22.608   4.557  52.237  1.00  0.00     0.050 C 
BRANCH  21  22
HETATM   22  C16 UNL     1      23.736   5.338  51.645  1.00  0.00     0.274 C 
BRANCH  22  23
HETATM   23  N4  UNL     1      23.798   5.255  50.211  1.00  0.00     0.092 N 
HETATM   24  C17 UNL     1      25.086   4.803  49.740  1.00  0.00     0.298 C 
HETATM   25  C18 UNL     1      25.952   6.037  49.519  1.00  0.00     0.198 C 
HETATM   26  O3  UNL     1      25.541   6.671  48.346  1.00  0.00    -0.388 OA
HETATM   27  C19 UNL     1      24.155   6.655  48.213  1.00  0.00     0.198 C 
HETATM   28  C20 UNL     1      23.468   6.482  49.553  1.00  0.00     0.298 C 
ENDBRANCH  22  23
ENDBRANCH  21  22
ENDBRANCH  20  21
ENDBRANCH  10  20
TORSDOF 7
ENDMDL
