MODEL 1
REMARK VINA RESULT:      -7.3      0.000      0.000
REMARK  8 active torsions:
REMARK  status: ('A' for Active; 'I' for Inactive)
REMARK    1  A    between atoms: C2_2  and  C3_3 
REMARK    2  A    between atoms: C3_3  and  C4_4 
REMARK    3  A    between atoms: C4_4  and  C5_5 
REMARK    4  A    between atoms: C5_5  and  C6_6 
REMARK    5  A    between atoms: C6_6  and  O2_8 
REMARK    6  A    between atoms: C7_9  and  C8_10 
REMARK    7  A    between atoms: C7_9  and  C9_12 
REMARK    8  A    between atoms: C14_18  and  O4_19 
ROOT
HETATM    1  C9  UNL     1      22.756   1.385  52.087  1.00  0.00    -0.025 C 
HETATM    2  C10 UNL     1      22.291   1.327  50.883  1.00  0.00    -0.001 C 
HETATM    3  C11 UNL     1      21.585   0.739  49.718  1.00  0.00     0.069 C 
HETATM    4  C12 UNL     1      20.149   1.232  49.780  1.00  0.00     0.172 C 
HETATM    5  O3  UNL     1      19.534   0.724  50.942  1.00  0.00    -0.384 OA
HETATM    6  C13 UNL     1      18.566   1.699  51.330  1.00  0.00     0.231 C 
HETATM    7  C14 UNL     1      19.400   2.874  51.864  1.00  0.00     0.066 C 
HETATM    8  C16 UNL     1      20.758   2.872  51.926  1.00  0.00     0.025 C 
HETATM    9  C17 UNL     1      22.200   2.792  51.959  1.00  0.00     0.119 C 
HETATM   10  C18 UNL     1      22.756   2.637  50.591  1.00  0.00     0.168 C 
HETATM   11  O5  UNL     1      23.308   3.499  49.835  1.00  0.00    -0.292 OA
ENDROOT
BRANCH   1  12
HETATM   12  C7  UNL     1      23.453   0.294  52.829  1.00  0.00    -0.034 C 
HETATM   13  C3  UNL     1      24.791   0.203  52.995  1.00  0.00    -0.072 C 
BRANCH  13  14
HETATM   14  C2  UNL     1      25.593  -0.814  53.665  1.00  0.00     0.030 C 
HETATM   15  C1  UNL     1      26.605  -1.463  52.707  1.00  0.00     0.010 C 
ENDBRANCH  13  14
BRANCH  13  16
HETATM   16  C4  UNL     1      25.786   1.158  52.513  1.00  0.00     0.045 C 
BRANCH  16  17
HETATM   17  C5  UNL     1      26.167   2.123  53.598  1.00  0.00     0.114 C 
BRANCH  17  18
HETATM   18  C6  UNL     1      27.645   2.282  53.584  1.00  0.00     0.139 C 
HETATM   19  O1  UNL     1      28.396   1.721  54.436  1.00  0.00    -0.650 OA
BRANCH  18  20
HETATM   20  O2  UNL     1      28.612   2.928  52.847  1.00  0.00    -0.776 OA
HETATM   21  H10 UNL     1      29.467   2.520  52.527  1.00  0.00     0.167 HD
ENDBRANCH  18  20
ENDBRANCH  17  18
ENDBRANCH  16  17
ENDBRANCH  13  16
BRANCH  12  22
HETATM   22  C8  UNL     1      22.567  -0.769  53.392  1.00  0.00     0.154 C 
HETATM   23 CL1  UNL     1      21.304   0.122  54.304  1.00  0.00    -0.126 Cl
ENDBRANCH  12  22
ENDBRANCH   1  12
BRANCH   7  24
HETATM   24  O4  UNL     1      18.393   3.763  52.194  1.00  0.00    -0.358 OA
HETATM   25  C15 UNL     1      17.260   3.883  51.376  1.00  0.00     0.209 C 
ENDBRANCH   7  24
TORSDOF 8
ENDMDL
MODEL 2
REMARK VINA RESULT:      -7.3      1.684      3.333
REMARK  8 active torsions:
REMARK  status: ('A' for Active; 'I' for Inactive)
REMARK    1  A    between atoms: C2_2  and  C3_3 
REMARK    2  A    between atoms: C3_3  and  C4_4 
REMARK    3  A    between atoms: C4_4  and  C5_5 
REMARK    4  A    between atoms: C5_5  and  C6_6 
REMARK    5  A    between atoms: C6_6  and  O2_8 
REMARK    6  A    between atoms: C7_9  and  C8_10 
REMARK    7  A    between atoms: C7_9  and  C9_12 
REMARK    8  A    between atoms: C14_18  and  O4_19 
ROOT
HETATM    1  C9  UNL     1      22.953   1.255  52.223  1.00  0.00    -0.025 C 
HETATM    2  C10 UNL     1      22.976   2.520  52.489  1.00  0.00    -0.001 C 
HETATM    3  C11 UNL     1      23.577   3.835  52.819  1.00  0.00     0.069 C 
HETATM    4  C12 UNL     1      23.813   4.554  51.501  1.00  0.00     0.172 C 
HETATM    5  O3  UNL     1      24.763   3.838  50.746  1.00  0.00    -0.384 OA
HETATM    6  C13 UNL     1      24.434   4.072  49.378  1.00  0.00     0.231 C 
HETATM    7  C14 UNL     1      23.140   3.273  49.154  1.00  0.00     0.066 C 
HETATM    8  C16 UNL     1      22.537   2.525  50.115  1.00  0.00     0.025 C 
HETATM    9  C17 UNL     1      21.958   1.752  51.190  1.00  0.00     0.119 C 
HETATM   10  C18 UNL     1      21.569   2.627  52.325  1.00  0.00     0.168 C 
HETATM   11  O5  UNL     1      20.419   3.054  52.666  1.00  0.00    -0.292 OA
ENDROOT
BRANCH   1  12
HETATM   12  C7  UNL     1      23.731   0.184  52.912  1.00  0.00    -0.034 C 
HETATM   13  C3  UNL     1      25.078   0.140  52.999  1.00  0.00    -0.072 C 
BRANCH  13  14
HETATM   14  C2  UNL     1      25.955  -0.851  53.611  1.00  0.00     0.030 C 
HETATM   15  C1  UNL     1      26.750  -1.637  52.555  1.00  0.00     0.010 C 
ENDBRANCH  13  14
BRANCH  13  16
HETATM   16  C4  UNL     1      26.009   1.135  52.470  1.00  0.00     0.045 C 
BRANCH  16  17
HETATM   17  C5  UNL     1      26.599   1.956  53.580  1.00  0.00     0.114 C 
BRANCH  17  18
HETATM   18  C6  UNL     1      28.057   2.098  53.330  1.00  0.00     0.139 C 
HETATM   19  O1  UNL     1      28.871   1.142  53.498  1.00  0.00    -0.650 OA
BRANCH  18  20
HETATM   20  O2  UNL     1      28.951   3.061  52.918  1.00  0.00    -0.776 OA
HETATM   21  H10 UNL     1      29.877   2.889  52.583  1.00  0.00     0.167 HD
ENDBRANCH  18  20
ENDBRANCH  17  18
ENDBRANCH  16  17
ENDBRANCH  13  16
BRANCH  12  22
HETATM   22  C8  UNL     1      22.918  -0.916  53.514  1.00  0.00     0.154 C 
HETATM   23 CL1  UNL     1      21.764  -0.085  54.610  1.00  0.00    -0.126 Cl
ENDBRANCH  12  22
ENDBRANCH   1  12
BRANCH   7  24
HETATM   24  O4  UNL     1      22.891   3.572  47.827  1.00  0.00    -0.358 OA
HETATM   25  C15 UNL     1      21.691   3.167  47.224  1.00  0.00     0.209 C 
ENDBRANCH   7  24
TORSDOF 8
ENDMDL
MODEL 3
REMARK VINA RESULT:      -7.3      2.543      3.696
REMARK  8 active torsions:
REMARK  status: ('A' for Active; 'I' for Inactive)
REMARK    1  A    between atoms: C2_2  and  C3_3 
REMARK    2  A    between atoms: C3_3  and  C4_4 
REMARK    3  A    between atoms: C4_4  and  C5_5 
REMARK    4  A    between atoms: C5_5  and  C6_6 
REMARK    5  A    between atoms: C6_6  and  O2_8 
REMARK    6  A    between atoms: C7_9  and  C8_10 
REMARK    7  A    between atoms: C7_9  and  C9_12 
REMARK    8  A    between atoms: C14_18  and  O4_19 
ROOT
HETATM    1  C9  UNL     1      23.954   2.767  52.512  1.00  0.00    -0.025 C 
HETATM    2  C10 UNL     1      23.714   2.944  51.254  1.00  0.00    -0.001 C 
HETATM    3  C11 UNL     1      23.423   2.558  49.852  1.00  0.00     0.069 C 
HETATM    4  C12 UNL     1      21.912   2.576  49.695  1.00  0.00     0.172 C 
HETATM    5  O3  UNL     1      21.348   1.587  50.526  1.00  0.00    -0.384 OA
HETATM    6  C13 UNL     1      20.061   2.078  50.901  1.00  0.00     0.231 C 
HETATM    7  C14 UNL     1      20.361   3.225  51.880  1.00  0.00     0.066 C 
HETATM    8  C16 UNL     1      21.614   3.594  52.253  1.00  0.00     0.025 C 
HETATM    9  C17 UNL     1      22.977   3.924  52.599  1.00  0.00     0.119 C 
HETATM   10  C18 UNL     1      23.741   4.357  51.401  1.00  0.00     0.168 C 
HETATM   11  O5  UNL     1      24.068   5.527  51.023  1.00  0.00    -0.292 OA
ENDROOT
BRANCH   1  12
HETATM   12  C7  UNL     1      24.869   1.751  53.111  1.00  0.00    -0.034 C 
HETATM   13  C3  UNL     1      24.551   0.456  53.327  1.00  0.00    -0.072 C 
BRANCH  13  14
HETATM   14  C2  UNL     1      25.331  -0.623  53.923  1.00  0.00     0.030 C 
HETATM   15  C1  UNL     1      26.303  -1.249  52.909  1.00  0.00     0.010 C 
ENDBRANCH  13  14
BRANCH  13  16
HETATM   16  C4  UNL     1      23.283  -0.188  52.991  1.00  0.00     0.045 C 
BRANCH  16  17
HETATM   17  C5  UNL     1      22.208   0.214  53.960  1.00  0.00     0.114 C 
BRANCH  17  18
HETATM   18  C6  UNL     1      21.730  -1.008  54.659  1.00  0.00     0.139 C 
HETATM   19  O1  UNL     1      22.451  -1.643  55.485  1.00  0.00    -0.650 OA
BRANCH  18  20
HETATM   20  O2  UNL     1      20.602  -1.795  54.719  1.00  0.00    -0.776 OA
HETATM   21  H10 UNL     1      19.779  -1.672  54.165  1.00  0.00     0.167 HD
ENDBRANCH  18  20
ENDBRANCH  17  18
ENDBRANCH  16  17
ENDBRANCH  13  16
BRANCH  12  22
HETATM   22  C8  UNL     1      26.218   2.255  53.509  1.00  0.00     0.154 C 
HETATM   23 CL1  UNL     1      27.170   2.265  51.987  1.00  0.00    -0.126 Cl
ENDBRANCH  12  22
ENDBRANCH   1  12
BRANCH   7  24
HETATM   24  O4  UNL     1      19.075   3.645  52.171  1.00  0.00    -0.358 OA
HETATM   25  C15 UNL     1      17.978   3.075  51.509  1.00  0.00     0.209 C 
ENDBRANCH   7  24
TORSDOF 8
ENDMDL
MODEL 4
REMARK VINA RESULT:      -7.1      2.964      4.915
REMARK  8 active torsions:
REMARK  status: ('A' for Active; 'I' for Inactive)
REMARK    1  A    between atoms: C2_2  and  C3_3 
REMARK    2  A    between atoms: C3_3  and  C4_4 
REMARK    3  A    between atoms: C4_4  and  C5_5 
REMARK    4  A    between atoms: C5_5  and  C6_6 
REMARK    5  A    between atoms: C6_6  and  O2_8 
REMARK    6  A    between atoms: C7_9  and  C8_10 
REMARK    7  A    between atoms: C7_9  and  C9_12 
REMARK    8  A    between atoms: C14_18  and  O4_19 
ROOT
HETATM    1  C9  UNL     1      23.860   2.194  51.737  1.00  0.00    -0.025 C 
HETATM    2  C10 UNL     1      23.381   3.321  52.149  1.00  0.00    -0.001 C 
HETATM    3  C11 UNL     1      23.412   4.713  52.661  1.00  0.00     0.069 C 
HETATM    4  C12 UNL     1      23.348   5.629  51.450  1.00  0.00     0.172 C 
HETATM    5  O3  UNL     1      24.507   5.445  50.669  1.00  0.00    -0.384 OA
HETATM    6  C13 UNL     1      24.115   5.704  49.321  1.00  0.00     0.231 C 
HETATM    7  C14 UNL     1      23.244   4.498  48.938  1.00  0.00     0.066 C 
HETATM    8  C16 UNL     1      22.983   3.457  49.772  1.00  0.00     0.025 C 
HETATM    9  C17 UNL     1      22.753   2.389  50.717  1.00  0.00     0.119 C 
HETATM   10  C18 UNL     1      22.047   2.889  51.924  1.00  0.00     0.168 C 
HETATM   11  O5  UNL     1      20.821   2.784  52.251  1.00  0.00    -0.292 OA
ENDROOT
BRANCH   1  12
HETATM   12  C7  UNL     1      24.996   1.435  52.337  1.00  0.00    -0.034 C 
HETATM   13  C3  UNL     1      24.897   0.211  52.901  1.00  0.00    -0.072 C 
BRANCH  13  14
HETATM   14  C2  UNL     1      25.910  -0.620  53.541  1.00  0.00     0.030 C 
HETATM   15  C1  UNL     1      26.644  -1.508  52.522  1.00  0.00     0.010 C 
ENDBRANCH  13  14
BRANCH  13  16
HETATM   16  C4  UNL     1      23.684  -0.597  52.998  1.00  0.00     0.045 C 
BRANCH  16  17
HETATM   17  C5  UNL     1      22.814  -0.119  54.125  1.00  0.00     0.114 C 
BRANCH  17  18
HETATM   18  C6  UNL     1      22.569  -1.263  55.043  1.00  0.00     0.139 C 
HETATM   19  O1  UNL     1      21.493  -1.932  55.021  1.00  0.00    -0.650 OA
BRANCH  18  20
HETATM   20  O2  UNL     1      23.213  -1.937  56.056  1.00  0.00    -0.776 OA
HETATM   21  H10 UNL     1      24.171  -2.224  56.045  1.00  0.00     0.167 HD
ENDBRANCH  18  20
ENDBRANCH  17  18
ENDBRANCH  16  17
ENDBRANCH  13  16
BRANCH  12  22
HETATM   22  C8  UNL     1      26.319   2.130  52.313  1.00  0.00     0.154 C 
HETATM   23 CL1  UNL     1      26.546   2.621  50.602  1.00  0.00    -0.126 Cl
ENDBRANCH  12  22
ENDBRANCH   1  12
BRANCH   7  24
HETATM   24  O4  UNL     1      22.900   4.842  47.643  1.00  0.00    -0.358 OA
HETATM   25  C15 UNL     1      22.856   6.189  47.257  1.00  0.00     0.209 C 
ENDBRANCH   7  24
TORSDOF 8
ENDMDL
MODEL 5
REMARK VINA RESULT:      -6.9      2.295      4.103
REMARK  8 active torsions:
REMARK  status: ('A' for Active; 'I' for Inactive)
REMARK    1  A    between atoms: C2_2  and  C3_3 
REMARK    2  A    between atoms: C3_3  and  C4_4 
REMARK    3  A    between atoms: C4_4  and  C5_5 
REMARK    4  A    between atoms: C5_5  and  C6_6 
REMARK    5  A    between atoms: C6_6  and  O2_8 
REMARK    6  A    between atoms: C7_9  and  C8_10 
REMARK    7  A    between atoms: C7_9  and  C9_12 
REMARK    8  A    between atoms: C14_18  and  O4_19 
ROOT
HETATM    1  C9  UNL     1      23.577   2.161  51.081  1.00  0.00    -0.025 C 
HETATM    2  C10 UNL     1      22.720   3.128  51.119  1.00  0.00    -0.001 C 
HETATM    3  C11 UNL     1      22.015   4.307  51.679  1.00  0.00     0.069 C 
HETATM    4  C12 UNL     1      22.722   5.539  51.141  1.00  0.00     0.172 C 
HETATM    5  O3  UNL     1      24.042   5.568  51.634  1.00  0.00    -0.384 OA
HETATM    6  C13 UNL     1      24.821   6.220  50.631  1.00  0.00     0.231 C 
HETATM    7  C14 UNL     1      24.901   5.198  49.485  1.00  0.00     0.066 C 
HETATM    8  C16 UNL     1      24.333   3.964  49.530  1.00  0.00     0.025 C 
HETATM    9  C17 UNL     1      23.703   2.671  49.657  1.00  0.00     0.119 C 
HETATM   10  C18 UNL     1      22.233   2.809  49.824  1.00  0.00     0.168 C 
HETATM   11  O5  UNL     1      21.299   2.639  48.976  1.00  0.00    -0.292 OA
ENDROOT
BRANCH   1  12
HETATM   12  C7  UNL     1      23.928   1.235  52.198  1.00  0.00    -0.034 C 
HETATM   13  C3  UNL     1      25.168   0.761  52.449  1.00  0.00    -0.072 C 
BRANCH  13  14
HETATM   14  C2  UNL     1      25.637  -0.160  53.478  1.00  0.00     0.030 C 
HETATM   15  C1  UNL     1      26.532  -1.263  52.888  1.00  0.00     0.010 C 
ENDBRANCH  13  14
BRANCH  13  16
HETATM   16  C4  UNL     1      26.382   1.087  51.705  1.00  0.00     0.045 C 
BRANCH  16  17
HETATM   17  C5  UNL     1      26.926   2.421  52.130  1.00  0.00     0.114 C 
BRANCH  17  18
HETATM   18  C6  UNL     1      28.071   2.187  53.048  1.00  0.00     0.139 C 
HETATM   19  O1  UNL     1      28.154   2.740  54.184  1.00  0.00    -0.650 OA
BRANCH  18  20
HETATM   20  O2  UNL     1      29.244   1.466  53.081  1.00  0.00    -0.776 OA
HETATM   21  H10 UNL     1      29.408   0.649  53.635  1.00  0.00     0.167 HD
ENDBRANCH  18  20
ENDBRANCH  17  18
ENDBRANCH  16  17
ENDBRANCH  13  16
BRANCH  12  22
HETATM   22  C8  UNL     1      22.786   0.807  53.061  1.00  0.00     0.154 C 
HETATM   23 CL1  UNL     1      21.734  -0.167  51.981  1.00  0.00    -0.126 Cl
ENDBRANCH  12  22
ENDBRANCH   1  12
BRANCH   7  24
HETATM   24  O4  UNL     1      25.645   5.914  48.566  1.00  0.00    -0.358 OA
HETATM   25  C15 UNL     1      25.298   7.235  48.249  1.00  0.00     0.209 C 
ENDBRANCH   7  24
TORSDOF 8
ENDMDL
MODEL 6
REMARK VINA RESULT:      -6.9      1.782      3.448
REMARK  8 active torsions:
REMARK  status: ('A' for Active; 'I' for Inactive)
REMARK    1  A    between atoms: C2_2  and  C3_3 
REMARK    2  A    between atoms: C3_3  and  C4_4 
REMARK    3  A    between atoms: C4_4  and  C5_5 
REMARK    4  A    between atoms: C5_5  and  C6_6 
REMARK    5  A    between atoms: C6_6  and  O2_8 
REMARK    6  A    between atoms: C7_9  and  C8_10 
REMARK    7  A    between atoms: C7_9  and  C9_12 
REMARK    8  A    between atoms: C14_18  and  O4_19 
ROOT
HETATM    1  C9  UNL     1      22.651   0.935  51.831  1.00  0.00    -0.025 C 
HETATM    2  C10 UNL     1      21.609   1.697  51.896  1.00  0.00    -0.001 C 
HETATM    3  C11 UNL     1      20.659   2.663  52.501  1.00  0.00     0.069 C 
HETATM    4  C12 UNL     1      21.105   4.049  52.066  1.00  0.00     0.172 C 
HETATM    5  O3  UNL     1      22.377   4.319  52.609  1.00  0.00    -0.384 OA
HETATM    6  C13 UNL     1      23.025   5.185  51.679  1.00  0.00     0.231 C 
HETATM    7  C14 UNL     1      23.346   4.282  50.476  1.00  0.00     0.066 C 
HETATM    8  C16 UNL     1      23.050   2.957  50.424  1.00  0.00     0.025 C 
HETATM    9  C17 UNL     1      22.701   1.555  50.447  1.00  0.00     0.119 C 
HETATM   10  C18 UNL     1      21.232   1.373  50.566  1.00  0.00     0.168 C 
HETATM   11  O5  UNL     1      20.375   1.071  49.674  1.00  0.00    -0.292 OA
ENDROOT
BRANCH   1  12
HETATM   12  C7  UNL     1      23.162   0.028  52.902  1.00  0.00    -0.034 C 
HETATM   13  C3  UNL     1      24.380   0.120  53.477  1.00  0.00    -0.072 C 
BRANCH  13  14
HETATM   14  C2  UNL     1      25.007  -0.708  54.501  1.00  0.00     0.030 C 
HETATM   15  C1  UNL     1      26.159   0.030  55.203  1.00  0.00     0.010 C 
ENDBRANCH  13  14
BRANCH  13  16
HETATM   16  C4  UNL     1      25.398   1.127  53.185  1.00  0.00     0.045 C 
BRANCH  16  17
HETATM   17  C5  UNL     1      26.048   0.859  51.858  1.00  0.00     0.114 C 
BRANCH  17  18
HETATM   18  C6  UNL     1      26.843   2.056  51.477  1.00  0.00     0.139 C 
HETATM   19  O1  UNL     1      26.782   2.571  50.321  1.00  0.00    -0.650 OA
BRANCH  18  20
HETATM   20  O2  UNL     1      27.756   2.918  52.042  1.00  0.00    -0.776 OA
HETATM   21  H10 UNL     1      27.641   3.398  52.912  1.00  0.00     0.167 HD
ENDBRANCH  18  20
ENDBRANCH  17  18
ENDBRANCH  16  17
ENDBRANCH  13  16
BRANCH  12  22
HETATM   22  C8  UNL     1      22.230  -1.063  53.319  1.00  0.00     0.154 C 
HETATM   23 CL1  UNL     1      21.424  -0.438  54.796  1.00  0.00    -0.126 Cl
ENDBRANCH  12  22
ENDBRANCH   1  12
BRANCH   7  24
HETATM   24  O4  UNL     1      23.946   5.199  49.632  1.00  0.00    -0.358 OA
HETATM   25  C15 UNL     1      25.246   5.654  49.891  1.00  0.00     0.209 C 
ENDBRANCH   7  24
TORSDOF 8
ENDMDL
MODEL 7
REMARK VINA RESULT:      -6.7      3.018      4.463
REMARK  8 active torsions:
REMARK  status: ('A' for Active; 'I' for Inactive)
REMARK    1  A    between atoms: C2_2  and  C3_3 
REMARK    2  A    between atoms: C3_3  and  C4_4 
REMARK    3  A    between atoms: C4_4  and  C5_5 
REMARK    4  A    between atoms: C5_5  and  C6_6 
REMARK    5  A    between atoms: C6_6  and  O2_8 
REMARK    6  A    between atoms: C7_9  and  C8_10 
REMARK    7  A    between atoms: C7_9  and  C9_12 
REMARK    8  A    between atoms: C14_18  and  O4_19 
ROOT
HETATM    1  C9  UNL     1      22.648   1.395  51.624  1.00  0.00    -0.025 C 
HETATM    2  C10 UNL     1      21.619   2.126  51.896  1.00  0.00    -0.001 C 
HETATM    3  C11 UNL     1      20.877   3.356  52.269  1.00  0.00     0.069 C 
HETATM    4  C12 UNL     1      20.469   4.034  50.972  1.00  0.00     0.172 C 
HETATM    5  O3  UNL     1      21.626   4.439  50.277  1.00  0.00    -0.384 OA
HETATM    6  C13 UNL     1      21.290   4.379  48.891  1.00  0.00     0.231 C 
HETATM    7  C14 UNL     1      21.208   2.876  48.582  1.00  0.00     0.066 C 
HETATM    8  C16 UNL     1      21.442   1.901  49.499  1.00  0.00     0.025 C 
HETATM    9  C17 UNL     1      21.705   0.925  50.531  1.00  0.00     0.119 C 
HETATM   10  C18 UNL     1      20.728   1.049  51.643  1.00  0.00     0.168 C 
HETATM   11  O5  UNL     1      19.707   0.338  51.912  1.00  0.00    -0.292 OA
ENDROOT
BRANCH   1  12
HETATM   12  C7  UNL     1      23.949   1.376  52.357  1.00  0.00    -0.034 C 
HETATM   13  C3  UNL     1      24.371   0.373  53.157  1.00  0.00    -0.072 C 
BRANCH  13  14
HETATM   14  C2  UNL     1      25.592   0.242  53.945  1.00  0.00     0.030 C 
HETATM   15  C1  UNL     1      26.668  -0.561  53.196  1.00  0.00     0.010 C 
ENDBRANCH  13  14
BRANCH  13  16
HETATM   16  C4  UNL     1      23.659  -0.874  53.426  1.00  0.00     0.045 C 
BRANCH  16  17
HETATM   17  C5  UNL     1      23.170  -0.914  54.845  1.00  0.00     0.114 C 
BRANCH  17  18
HETATM   18  C6  UNL     1      21.689  -0.792  54.833  1.00  0.00     0.139 C 
HETATM   19  O1  UNL     1      20.926  -1.797  54.713  1.00  0.00    -0.650 OA
BRANCH  18  20
HETATM   20  O2  UNL     1      20.728   0.190  54.919  1.00  0.00    -0.776 OA
HETATM   21  H10 UNL     1      20.538   0.879  54.220  1.00  0.00     0.167 HD
ENDBRANCH  18  20
ENDBRANCH  17  18
ENDBRANCH  16  17
ENDBRANCH  13  16
BRANCH  12  22
HETATM   22  C8  UNL     1      24.803   2.589  52.182  1.00  0.00     0.154 C 
HETATM   23 CL1  UNL     1      24.819   2.886  50.412  1.00  0.00    -0.126 Cl
ENDBRANCH  12  22
ENDBRANCH   1  12
BRANCH   7  24
HETATM   24  O4  UNL     1      20.865   2.917  47.243  1.00  0.00    -0.358 OA
HETATM   25  C15 UNL     1      21.659   3.625  46.330  1.00  0.00     0.209 C 
ENDBRANCH   7  24
TORSDOF 8
ENDMDL
MODEL 8
REMARK VINA RESULT:      -6.6      1.438      1.947
REMARK  8 active torsions:
REMARK  status: ('A' for Active; 'I' for Inactive)
REMARK    1  A    between atoms: C2_2  and  C3_3 
REMARK    2  A    between atoms: C3_3  and  C4_4 
REMARK    3  A    between atoms: C4_4  and  C5_5 
REMARK    4  A    between atoms: C5_5  and  C6_6 
REMARK    5  A    between atoms: C6_6  and  O2_8 
REMARK    6  A    between atoms: C7_9  and  C8_10 
REMARK    7  A    between atoms: C7_9  and  C9_12 
REMARK    8  A    between atoms: C14_18  and  O4_19 
ROOT
HETATM    1  C9  UNL     1      23.044   1.811  52.386  1.00  0.00    -0.025 C 
HETATM    2  C10 UNL     1      23.435   2.538  51.392  1.00  0.00    -0.001 C 
HETATM    3  C11 UNL     1      24.026   2.830  50.063  1.00  0.00     0.069 C 
HETATM    4  C12 UNL     1      22.876   2.868  49.070  1.00  0.00     0.172 C 
HETATM    5  O3  UNL     1      22.286   1.590  48.994  1.00  0.00    -0.384 OA
HETATM    6  C13 UNL     1      20.910   1.812  48.689  1.00  0.00     0.231 C 
HETATM    7  C14 UNL     1      20.319   2.389  49.985  1.00  0.00     0.066 C 
HETATM    8  C16 UNL     1      21.037   2.587  51.122  1.00  0.00     0.025 C 
HETATM    9  C17 UNL     1      21.869   2.766  52.289  1.00  0.00     0.119 C 
HETATM   10  C18 UNL     1      22.970   3.725  52.017  1.00  0.00     0.168 C 
HETATM   11  O5  UNL     1      23.084   4.948  52.349  1.00  0.00    -0.292 OA
ENDROOT
BRANCH   1  12
HETATM   12  C7  UNL     1      23.778   0.663  52.997  1.00  0.00    -0.034 C 
HETATM   13  C3  UNL     1      25.020   0.732  53.524  1.00  0.00    -0.072 C 
BRANCH  13  14
HETATM   14  C2  UNL     1      25.853  -0.307  54.119  1.00  0.00     0.030 C 
HETATM   15  C1  UNL     1      26.463  -1.229  53.051  1.00  0.00     0.010 C 
ENDBRANCH  13  14
BRANCH  13  16
HETATM   16  C4  UNL     1      25.850   1.930  53.621  1.00  0.00     0.045 C 
BRANCH  16  17
HETATM   17  C5  UNL     1      26.942   1.906  52.590  1.00  0.00     0.114 C 
BRANCH  17  18
HETATM   18  C6  UNL     1      28.220   2.269  53.256  1.00  0.00     0.139 C 
HETATM   19  O1  UNL     1      28.525   1.852  54.413  1.00  0.00    -0.650 OA
BRANCH  18  20
HETATM   20  O2  UNL     1      29.348   3.016  53.001  1.00  0.00    -0.776 OA
HETATM   21  H10 UNL     1      30.235   2.899  53.448  1.00  0.00     0.167 HD
ENDBRANCH  18  20
ENDBRANCH  17  18
ENDBRANCH  16  17
ENDBRANCH  13  16
BRANCH  12  22
HETATM   22  C8  UNL     1      23.056  -0.645  52.979  1.00  0.00     0.154 C 
HETATM   23 CL1  UNL     1      21.974  -0.590  54.410  1.00  0.00    -0.126 Cl
ENDBRANCH  12  22
ENDBRANCH   1  12
BRANCH   7  24
HETATM   24  O4  UNL     1      19.008   2.587  49.593  1.00  0.00    -0.358 OA
HETATM   25  C15 UNL     1      18.055   1.573  49.773  1.00  0.00     0.209 C 
ENDBRANCH   7  24
TORSDOF 8
ENDMDL
MODEL 9
REMARK VINA RESULT:      -6.5      2.380      3.193
REMARK  8 active torsions:
REMARK  status: ('A' for Active; 'I' for Inactive)
REMARK    1  A    between atoms: C2_2  and  C3_3 
REMARK    2  A    between atoms: C3_3  and  C4_4 
REMARK    3  A    between atoms: C4_4  and  C5_5 
REMARK    4  A    between atoms: C5_5  and  C6_6 
REMARK    5  A    between atoms: C6_6  and  O2_8 
REMARK    6  A    between atoms: C7_9  and  C8_10 
REMARK    7  A    between atoms: C7_9  and  C9_12 
REMARK    8  A    between atoms: C14_18  and  O4_19 
ROOT
HETATM    1  C9  UNL     1      23.111   2.199  51.426  1.00  0.00    -0.025 C 
HETATM    2  C10 UNL     1      23.231   2.513  50.178  1.00  0.00    -0.001 C 
HETATM    3  C11 UNL     1      22.842   2.606  48.750  1.00  0.00     0.069 C 
HETATM    4  C12 UNL     1      22.150   3.947  48.569  1.00  0.00     0.172 C 
HETATM    5  O3  UNL     1      20.963   3.962  49.328  1.00  0.00    -0.384 OA
HETATM    6  C13 UNL     1      20.760   5.322  49.711  1.00  0.00     0.231 C 
HETATM    7  C14 UNL     1      21.848   5.588  50.764  1.00  0.00     0.066 C 
HETATM    8  C16 UNL     1      22.744   4.655  51.180  1.00  0.00     0.025 C 
HETATM    9  C17 UNL     1      23.659   3.607  51.568  1.00  0.00     0.119 C 
HETATM   10  C18 UNL     1      24.475   3.157  50.412  1.00  0.00     0.168 C 
HETATM   11  O5  UNL     1      25.682   3.430  50.113  1.00  0.00    -0.292 OA
ENDROOT
BRANCH   1  12
HETATM   12  C7  UNL     1      22.615   0.903  51.976  1.00  0.00    -0.034 C 
HETATM   13  C3  UNL     1      23.212   0.204  52.966  1.00  0.00    -0.072 C 
BRANCH  13  14
HETATM   14  C2  UNL     1      22.852  -1.073  53.572  1.00  0.00     0.030 C 
HETATM   15  C1  UNL     1      21.893  -0.890  54.759  1.00  0.00     0.010 C 
ENDBRANCH  13  14
BRANCH  13  16
HETATM   16  C4  UNL     1      24.418   0.596  53.693  1.00  0.00     0.045 C 
BRANCH  16  17
HETATM   17  C5  UNL     1      25.458  -0.485  53.621  1.00  0.00     0.114 C 
BRANCH  17  18
HETATM   18  C6  UNL     1      26.646  -0.041  54.396  1.00  0.00     0.139 C 
HETATM   19  O1  UNL     1      26.681   1.068  55.008  1.00  0.00    -0.650 OA
BRANCH  18  20
HETATM   20  O2  UNL     1      27.905  -0.496  54.717  1.00  0.00    -0.776 OA
HETATM   21  H10 UNL     1      28.732  -0.349  54.175  1.00  0.00     0.167 HD
ENDBRANCH  18  20
ENDBRANCH  17  18
ENDBRANCH  16  17
ENDBRANCH  13  16
BRANCH  12  22
HETATM   22  C8  UNL     1      21.377   0.364  51.337  1.00  0.00     0.154 C 
HETATM   23 CL1  UNL     1      20.085   1.524  51.793  1.00  0.00    -0.126 Cl
ENDBRANCH  12  22
ENDBRANCH   1  12
BRANCH   7  24
HETATM   24  O4  UNL     1      21.589   6.915  51.058  1.00  0.00    -0.358 OA
HETATM   25  C15 UNL     1      21.739   7.900  50.072  1.00  0.00     0.209 C 
ENDBRANCH   7  24
TORSDOF 8
ENDMDL
