MODEL 1
REMARK VINA RESULT:      -8.5      0.000      0.000
REMARK  5 active torsions:
REMARK  status: ('A' for Active; 'I' for Inactive)
REMARK    1  A    between atoms: O1_2  and  C2_3 
REMARK    2  A    between atoms: C2_3  and  C3_4 
REMARK    3  A    between atoms: C4_5  and  C5_6 
REMARK    4  A    between atoms: C14_17  and  N2_18 
REMARK    5  A    between atoms: N2_18  and  C15_19 
ROOT
HETATM    1  C5  UNL     1      26.641   2.364  52.517  1.00  0.00     0.167 C 
HETATM    2  C6  UNL     1      26.696   2.261  51.027  1.00  0.00     0.099 C 
HETATM    3  C7  UNL     1      26.037   3.467  50.455  1.00  0.00     0.057 C 
HETATM    4  C8  UNL     1      25.735   4.584  49.820  1.00  0.00     0.066 C 
HETATM    5  C9  UNL     1      26.031   5.620  49.012  1.00  0.00     0.101 C 
HETATM    6  N1  UNL     1      26.282   6.465  48.327  1.00  0.00    -0.191 NA
HETATM    7  C10 UNL     1      24.542   5.067  50.547  1.00  0.00     0.004 C 
HETATM    8  C11 UNL     1      23.567   5.031  51.477  1.00  0.00     0.026 C 
HETATM    9  O2  UNL     1      23.466   3.967  52.389  1.00  0.00     0.000 OA
HETATM   10  C12 UNL     1      24.376   3.028  52.697  1.00  0.00     0.054 C 
HETATM   11  C13 UNL     1      23.993   2.382  51.616  1.00  0.00     0.035 C 
HETATM   12  C14 UNL     1      23.019   2.526  50.466  1.00  0.00     0.148 C 
HETATM   13  C21 UNL     1      23.868   3.098  49.321  1.00  0.00     0.119 C 
HETATM   14  N3  UNL     1      24.801   3.186  50.078  1.00  0.00    -0.266 NA
HETATM   15  N4  UNL     1      25.332   2.084  53.060  1.00  0.00    -0.373 N 
HETATM   16  H19 UNL     1      25.120   1.254  53.673  1.00  0.00     0.161 HD
ENDROOT
BRANCH   1  17
HETATM   17  C4  UNL     1      27.556   1.350  53.112  1.00  0.00    -0.079 C 
HETATM   18  C3  UNL     1      28.268   0.544  53.596  1.00  0.00    -0.078 C 
BRANCH  18  19
HETATM   19  C2  UNL     1      29.156  -0.486  54.195  1.00  0.00     0.260 C 
BRANCH  19  20
HETATM   20  O1  UNL     1      29.685  -1.276  53.144  1.00  0.00    -0.384 OA
HETATM   21  C1  UNL     1      28.957  -2.455  53.134  1.00  0.00     0.202 C 
ENDBRANCH  19  20
ENDBRANCH  18  19
ENDBRANCH   1  17
BRANCH  12  22
HETATM   22  N2  UNL     1      22.330   1.351  50.086  1.00  0.00    -0.377 N 
HETATM   23  H13 UNL     1      22.450   0.868  49.166  1.00  0.00     0.160 HD
BRANCH  22  24
HETATM   24  C15 UNL     1      21.409   0.777  50.994  1.00  0.00     0.030 A 
HETATM   25  C16 UNL     1      20.040   0.790  50.830  1.00  0.00     0.029 A 
HETATM   26  C17 UNL     1      19.116   0.254  51.709  1.00  0.00     0.004 A 
HETATM   27  C18 UNL     1      19.641  -0.348  52.850  1.00  0.00     0.019 A 
HETATM   28  C19 UNL     1      20.990  -0.407  53.093  1.00  0.00     0.013 A 
HETATM   29 BR1  UNL     1      21.607  -1.246  54.686  1.00  0.00    -0.051 Br
HETATM   30  C20 UNL     1      21.809   0.161  52.151  1.00  0.00     0.048 A 
ENDBRANCH  22  24
ENDBRANCH  12  22
TORSDOF 5
ENDMDL
MODEL 2
REMARK VINA RESULT:      -8.4      3.099      5.344
REMARK  5 active torsions:
REMARK  status: ('A' for Active; 'I' for Inactive)
REMARK    1  A    between atoms: O1_2  and  C2_3 
REMARK    2  A    between atoms: C2_3  and  C3_4 
REMARK    3  A    between atoms: C4_5  and  C5_6 
REMARK    4  A    between atoms: C14_17  and  N2_18 
REMARK    5  A    between atoms: N2_18  and  C15_19 
ROOT
HETATM    1  C5  UNL     1      26.091   5.014  49.038  1.00  0.00     0.167 C 
HETATM    2  C6  UNL     1      25.905   3.537  49.178  1.00  0.00     0.099 C 
HETATM    3  C7  UNL     1      24.444   3.259  49.237  1.00  0.00     0.057 C 
HETATM    4  C8  UNL     1      23.209   2.844  49.033  1.00  0.00     0.066 C 
HETATM    5  C9  UNL     1      22.277   2.143  48.359  1.00  0.00     0.101 C 
HETATM    6  N1  UNL     1      21.515   1.544  47.803  1.00  0.00    -0.191 NA
HETATM    7  C10 UNL     1      22.399   3.829  49.781  1.00  0.00     0.004 C 
HETATM    8  C11 UNL     1      22.180   4.903  50.565  1.00  0.00     0.026 C 
HETATM    9  O2  UNL     1      23.245   5.667  51.072  1.00  0.00     0.000 OA
HETATM   10  C12 UNL     1      24.533   5.680  50.690  1.00  0.00     0.054 C 
HETATM   11  C13 UNL     1      24.706   4.607  51.433  1.00  0.00     0.035 C 
HETATM   12  C14 UNL     1      23.911   3.677  52.326  1.00  0.00     0.148 C 
HETATM   13  C21 UNL     1      23.563   2.488  51.418  1.00  0.00     0.119 C 
HETATM   14  N3  UNL     1      24.058   3.072  50.488  1.00  0.00    -0.266 NA
HETATM   15  N4  UNL     1      25.856   5.737  50.266  1.00  0.00    -0.373 N 
HETATM   16  H19 UNL     1      26.608   6.261  50.787  1.00  0.00     0.161 HD
ENDROOT
BRANCH   1  17
HETATM   17  C4  UNL     1      27.505   5.296  48.660  1.00  0.00    -0.079 C 
HETATM   18  C3  UNL     1      28.618   5.535  48.352  1.00  0.00    -0.078 C 
BRANCH  18  19
HETATM   19  C2  UNL     1      30.022   5.846  47.980  1.00  0.00     0.260 C 
BRANCH  19  20
HETATM   20  O1  UNL     1      30.875   5.246  48.939  1.00  0.00    -0.384 OA
HETATM   21  C1  UNL     1      31.667   6.262  49.451  1.00  0.00     0.202 C 
ENDBRANCH  19  20
ENDBRANCH  18  19
ENDBRANCH   1  17
BRANCH  12  22
HETATM   22  N2  UNL     1      24.548   3.271  53.521  1.00  0.00    -0.377 N 
HETATM   23  H13 UNL     1      24.551   3.827  54.407  1.00  0.00     0.160 HD
BRANCH  22  24
HETATM   24  C15 UNL     1      25.239   2.036  53.539  1.00  0.00     0.030 A 
HETATM   25  C16 UNL     1      24.631   0.799  53.502  1.00  0.00     0.029 A 
HETATM   26  C17 UNL     1      25.280  -0.422  53.537  1.00  0.00     0.004 A 
HETATM   27  C18 UNL     1      26.669  -0.369  53.614  1.00  0.00     0.019 A 
HETATM   28  C19 UNL     1      27.357   0.817  53.654  1.00  0.00     0.013 A 
HETATM   29 BR1  UNL     1      29.257   0.782  53.765  1.00  0.00    -0.051 Br
HETATM   30  C20 UNL     1      26.606   1.964  53.615  1.00  0.00     0.048 A 
ENDBRANCH  22  24
ENDBRANCH  12  22
TORSDOF 5
ENDMDL
MODEL 3
REMARK VINA RESULT:      -8.2      3.531      6.428
REMARK  5 active torsions:
REMARK  status: ('A' for Active; 'I' for Inactive)
REMARK    1  A    between atoms: O1_2  and  C2_3 
REMARK    2  A    between atoms: C2_3  and  C3_4 
REMARK    3  A    between atoms: C4_5  and  C5_6 
REMARK    4  A    between atoms: C14_17  and  N2_18 
REMARK    5  A    between atoms: N2_18  and  C15_19 
ROOT
HETATM    1  C5  UNL     1      25.332   1.986  52.357  1.00  0.00     0.167 C 
HETATM    2  C6  UNL     1      24.541   2.938  53.196  1.00  0.00     0.099 C 
HETATM    3  C7  UNL     1      23.296   3.281  52.457  1.00  0.00     0.057 C 
HETATM    4  C8  UNL     1      22.053   3.461  52.052  1.00  0.00     0.066 C 
HETATM    5  C9  UNL     1      20.718   3.382  52.212  1.00  0.00     0.101 C 
HETATM    6  N1  UNL     1      19.613   3.326  52.362  1.00  0.00    -0.191 NA
HETATM    7  C10 UNL     1      22.198   3.612  50.588  1.00  0.00     0.004 C 
HETATM    8  C11 UNL     1      22.860   3.686  49.417  1.00  0.00     0.026 C 
HETATM    9  O2  UNL     1      24.260   3.580  49.361  1.00  0.00     0.000 OA
HETATM   10  C12 UNL     1      25.113   3.133  50.299  1.00  0.00     0.054 C 
HETATM   11  C13 UNL     1      25.040   4.325  50.853  1.00  0.00     0.035 C 
HETATM   12  C14 UNL     1      24.345   5.655  50.650  1.00  0.00     0.148 C 
HETATM   13  C21 UNL     1      23.136   5.597  51.596  1.00  0.00     0.119 C 
HETATM   14  N3  UNL     1      23.419   4.457  51.863  1.00  0.00    -0.266 NA
HETATM   15  N4  UNL     1      25.996   2.623  51.244  1.00  0.00    -0.373 N 
HETATM   16  H19 UNL     1      27.044   2.692  51.153  1.00  0.00     0.161 HD
ENDROOT
BRANCH   1  17
HETATM   17  C4  UNL     1      26.412   1.381  53.188  1.00  0.00    -0.079 C 
HETATM   18  C3  UNL     1      27.258   0.912  53.860  1.00  0.00    -0.078 C 
BRANCH  18  19
HETATM   19  C2  UNL     1      28.314   0.304  54.711  1.00  0.00     0.260 C 
BRANCH  19  20
HETATM   20  O1  UNL     1      28.622  -0.975  54.186  1.00  0.00    -0.384 OA
HETATM   21  C1  UNL     1      29.884  -0.874  53.622  1.00  0.00     0.202 C 
ENDBRANCH  19  20
ENDBRANCH  18  19
ENDBRANCH   1  17
BRANCH  12  22
HETATM   22  N2  UNL     1      25.136   6.807  50.863  1.00  0.00    -0.377 N 
HETATM   23  H13 UNL     1      25.262   7.273  51.791  1.00  0.00     0.160 HD
BRANCH  22  24
HETATM   24  C15 UNL     1      25.804   7.388  49.760  1.00  0.00     0.030 A 
HETATM   25  C16 UNL     1      25.465   7.176  48.440  1.00  0.00     0.029 A 
HETATM   26  C17 UNL     1      26.111   7.717  47.343  1.00  0.00     0.004 A 
HETATM   27  C18 UNL     1      27.194   8.545  47.623  1.00  0.00     0.019 A 
HETATM   28  C19 UNL     1      27.601   8.813  48.906  1.00  0.00     0.013 A 
HETATM   29 BR1  UNL     1      29.098   9.955  49.184  1.00  0.00    -0.051 Br
HETATM   30  C20 UNL     1      26.884   8.219  49.914  1.00  0.00     0.048 A 
ENDBRANCH  22  24
ENDBRANCH  12  22
TORSDOF 5
ENDMDL
MODEL 4
REMARK VINA RESULT:      -8.1      2.971      6.321
REMARK  5 active torsions:
REMARK  status: ('A' for Active; 'I' for Inactive)
REMARK    1  A    between atoms: O1_2  and  C2_3 
REMARK    2  A    between atoms: C2_3  and  C3_4 
REMARK    3  A    between atoms: C4_5  and  C5_6 
REMARK    4  A    between atoms: C14_17  and  N2_18 
REMARK    5  A    between atoms: N2_18  and  C15_19 
ROOT
HETATM    1  C5  UNL     1      20.500   1.936  51.181  1.00  0.00     0.167 C 
HETATM    2  C6  UNL     1      20.529   3.040  52.188  1.00  0.00     0.099 C 
HETATM    3  C7  UNL     1      21.267   4.189  51.594  1.00  0.00     0.057 C 
HETATM    4  C8  UNL     1      21.649   5.356  51.112  1.00  0.00     0.066 C 
HETATM    5  C9  UNL     1      21.443   6.651  50.804  1.00  0.00     0.101 C 
HETATM    6  N1  UNL     1      21.266   7.728  50.568  1.00  0.00    -0.191 NA
HETATM    7  C10 UNL     1      22.816   5.003  50.274  1.00  0.00     0.004 C 
HETATM    8  C11 UNL     1      23.733   4.186  49.719  1.00  0.00     0.026 C 
HETATM    9  O2  UNL     1      23.737   2.806  49.986  1.00  0.00     0.000 OA
HETATM   10  C12 UNL     1      22.774   2.047  50.536  1.00  0.00     0.054 C 
HETATM   11  C13 UNL     1      23.195   2.464  51.711  1.00  0.00     0.035 C 
HETATM   12  C14 UNL     1      24.240   3.383  52.308  1.00  0.00     0.148 C 
HETATM   13  C21 UNL     1      23.483   4.693  52.575  1.00  0.00     0.119 C 
HETATM   14  N3  UNL     1      22.511   4.222  52.042  1.00  0.00    -0.266 NA
HETATM   15  N4  UNL     1      21.763   1.246  51.055  1.00  0.00    -0.373 N 
HETATM   16  H19 UNL     1      21.905   0.237  51.324  1.00  0.00     0.161 HD
ENDROOT
BRANCH   1  17
HETATM   17  C4  UNL     1      19.512   0.907  51.611  1.00  0.00    -0.079 C 
HETATM   18  C3  UNL     1      18.721   0.094  51.934  1.00  0.00    -0.078 C 
BRANCH  18  19
HETATM   19  C2  UNL     1      17.737  -0.945  52.334  1.00  0.00     0.260 C 
BRANCH  19  20
HETATM   20  O1  UNL     1      18.145  -1.481  53.580  1.00  0.00    -0.384 OA
HETATM   21  C1  UNL     1      17.693  -2.791  53.611  1.00  0.00     0.202 C 
ENDBRANCH  19  20
ENDBRANCH  18  19
ENDBRANCH   1  17
BRANCH  12  22
HETATM   22  N2  UNL     1      24.903   2.902  53.460  1.00  0.00    -0.377 N 
HETATM   23  H13 UNL     1      24.948   3.415  54.371  1.00  0.00     0.160 HD
BRANCH  22  24
HETATM   24  C15 UNL     1      25.561   1.652  53.396  1.00  0.00     0.030 A 
HETATM   25  C16 UNL     1      24.924   0.441  53.226  1.00  0.00     0.029 A 
HETATM   26  C17 UNL     1      25.540  -0.797  53.178  1.00  0.00     0.004 A 
HETATM   27  C18 UNL     1      26.926  -0.791  53.314  1.00  0.00     0.019 A 
HETATM   28  C19 UNL     1      27.641   0.367  53.486  1.00  0.00     0.013 A 
HETATM   29 BR1  UNL     1      29.533   0.267  53.669  1.00  0.00    -0.051 Br
HETATM   30  C20 UNL     1      26.922   1.534  53.520  1.00  0.00     0.048 A 
ENDBRANCH  22  24
ENDBRANCH  12  22
TORSDOF 5
ENDMDL
MODEL 5
REMARK VINA RESULT:      -8.0      3.153      5.813
REMARK  5 active torsions:
REMARK  status: ('A' for Active; 'I' for Inactive)
REMARK    1  A    between atoms: O1_2  and  C2_3 
REMARK    2  A    between atoms: C2_3  and  C3_4 
REMARK    3  A    between atoms: C4_5  and  C5_6 
REMARK    4  A    between atoms: C14_17  and  N2_18 
REMARK    5  A    between atoms: N2_18  and  C15_19 
ROOT
HETATM    1  C5  UNL     1      24.652   0.956  52.351  1.00  0.00     0.167 C 
HETATM    2  C6  UNL     1      23.495   1.236  53.255  1.00  0.00     0.099 C 
HETATM    3  C7  UNL     1      22.253   1.225  52.434  1.00  0.00     0.057 C 
HETATM    4  C8  UNL     1      21.072   0.980  51.899  1.00  0.00     0.066 C 
HETATM    5  C9  UNL     1      19.899   0.322  51.835  1.00  0.00     0.101 C 
HETATM    6  N1  UNL     1      18.923  -0.219  51.801  1.00  0.00    -0.191 NA
HETATM    7  C10 UNL     1      21.194   1.565  50.546  1.00  0.00     0.004 C 
HETATM    8  C11 UNL     1      21.801   2.215  49.535  1.00  0.00     0.026 C 
HETATM    9  O2  UNL     1      23.110   2.711  49.667  1.00  0.00     0.000 OA
HETATM   10  C12 UNL     1      24.035   2.419  50.596  1.00  0.00     0.054 C 
HETATM   11  C13 UNL     1      23.431   3.280  51.388  1.00  0.00     0.035 C 
HETATM   12  C14 UNL     1      22.235   4.209  51.389  1.00  0.00     0.148 C 
HETATM   13  C21 UNL     1      21.136   3.409  52.105  1.00  0.00     0.119 C 
HETATM   14  N3  UNL     1      21.876   2.459  52.147  1.00  0.00    -0.266 NA
HETATM   15  N4  UNL     1      25.016   2.082  51.523  1.00  0.00    -0.373 N 
HETATM   16  H19 UNL     1      25.932   2.596  51.608  1.00  0.00     0.161 HD
ENDROOT
BRANCH   1  17
HETATM   17  C4  UNL     1      25.855   0.648  53.175  1.00  0.00    -0.079 C 
HETATM   18  C3  UNL     1      26.806   0.422  53.834  1.00  0.00    -0.078 C 
BRANCH  18  19
HETATM   19  C2  UNL     1      27.993   0.133  54.680  1.00  0.00     0.260 C 
BRANCH  19  20
HETATM   20  O1  UNL     1      28.609  -1.044  54.187  1.00  0.00    -0.384 OA
HETATM   21  C1  UNL     1      29.786  -0.645  53.573  1.00  0.00     0.202 C 
ENDBRANCH  19  20
ENDBRANCH  18  19
ENDBRANCH   1  17
BRANCH  12  22
HETATM   22  N2  UNL     1      22.439   5.480  51.973  1.00  0.00    -0.377 N 
HETATM   23  H13 UNL     1      22.324   5.686  52.992  1.00  0.00     0.160 HD
BRANCH  22  24
HETATM   24  C15 UNL     1      22.817   6.560  51.140  1.00  0.00     0.030 A 
HETATM   25  C16 UNL     1      21.937   7.323  50.402  1.00  0.00     0.029 A 
HETATM   26  C17 UNL     1      22.281   8.371  49.567  1.00  0.00     0.004 A 
HETATM   27  C18 UNL     1      23.640   8.661  49.485  1.00  0.00     0.019 A 
HETATM   28  C19 UNL     1      24.584   7.956  50.185  1.00  0.00     0.013 A 
HETATM   29 BR1  UNL     1      26.419   8.428  50.000  1.00  0.00    -0.051 Br
HETATM   30  C20 UNL     1      24.125   6.936  50.980  1.00  0.00     0.048 A 
ENDBRANCH  22  24
ENDBRANCH  12  22
TORSDOF 5
ENDMDL
MODEL 6
REMARK VINA RESULT:      -7.9      3.385      7.570
REMARK  5 active torsions:
REMARK  status: ('A' for Active; 'I' for Inactive)
REMARK    1  A    between atoms: O1_2  and  C2_3 
REMARK    2  A    between atoms: C2_3  and  C3_4 
REMARK    3  A    between atoms: C4_5  and  C5_6 
REMARK    4  A    between atoms: C14_17  and  N2_18 
REMARK    5  A    between atoms: N2_18  and  C15_19 
ROOT
HETATM    1  C5  UNL     1      21.228   1.292  52.209  1.00  0.00     0.167 C 
HETATM    2  C6  UNL     1      22.322   0.410  51.700  1.00  0.00     0.099 C 
HETATM    3  C7  UNL     1      23.558   0.714  52.472  1.00  0.00     0.057 C 
HETATM    4  C8  UNL     1      24.632   0.681  53.238  1.00  0.00     0.066 C 
HETATM    5  C9  UNL     1      25.515   0.052  54.036  1.00  0.00     0.101 C 
HETATM    6  N1  UNL     1      26.251  -0.483  54.685  1.00  0.00    -0.191 NA
HETATM    7  C10 UNL     1      24.842   2.106  53.576  1.00  0.00     0.004 C 
HETATM    8  C11 UNL     1      24.586   3.428  53.553  1.00  0.00     0.026 C 
HETATM    9  O2  UNL     1      23.515   3.952  52.809  1.00  0.00     0.000 OA
HETATM   10  C12 UNL     1      22.463   3.310  52.273  1.00  0.00     0.054 C 
HETATM   11  C13 UNL     1      23.246   2.984  51.266  1.00  0.00     0.035 C 
HETATM   12  C14 UNL     1      24.679   3.160  50.811  1.00  0.00     0.148 C 
HETATM   13  C21 UNL     1      25.372   1.856  51.233  1.00  0.00     0.119 C 
HETATM   14  N3  UNL     1      24.355   1.509  51.778  1.00  0.00    -0.266 NA
HETATM   15  N4  UNL     1      21.345   2.661  51.762  1.00  0.00    -0.373 N 
HETATM   16  H19 UNL     1      20.651   3.125  51.117  1.00  0.00     0.161 HD
ENDROOT
BRANCH   1  17
HETATM   17  C4  UNL     1      19.921   0.801  51.688  1.00  0.00    -0.079 C 
HETATM   18  C3  UNL     1      18.892   0.417  51.259  1.00  0.00    -0.078 C 
BRANCH  18  19
HETATM   19  C2  UNL     1      17.604  -0.084  50.715  1.00  0.00     0.260 C 
BRANCH  19  20
HETATM   20  O1  UNL     1      16.606   0.100  51.704  1.00  0.00    -0.384 OA
HETATM   21  C1  UNL     1      16.752  -0.940  52.608  1.00  0.00     0.202 C 
ENDBRANCH  19  20
ENDBRANCH  18  19
ENDBRANCH   1  17
BRANCH  12  22
HETATM   22  N2  UNL     1      24.863   3.444  49.438  1.00  0.00    -0.377 N 
HETATM   23  H13 UNL     1      24.367   2.947  48.662  1.00  0.00     0.160 HD
BRANCH  22  24
HETATM   24  C15 UNL     1      25.777   4.458  49.068  1.00  0.00     0.030 A 
HETATM   25  C16 UNL     1      27.136   4.272  48.929  1.00  0.00     0.029 A 
HETATM   26  C17 UNL     1      28.054   5.249  48.587  1.00  0.00     0.004 A 
HETATM   27  C18 UNL     1      27.534   6.521  48.366  1.00  0.00     0.019 A 
HETATM   28  C19 UNL     1      26.195   6.796  48.481  1.00  0.00     0.013 A 
HETATM   29 BR1  UNL     1      25.583   8.571  48.165  1.00  0.00    -0.051 Br
HETATM   30  C20 UNL     1      25.380   5.748  48.828  1.00  0.00     0.048 A 
ENDBRANCH  22  24
ENDBRANCH  12  22
TORSDOF 5
ENDMDL
MODEL 7
REMARK VINA RESULT:      -7.8      3.380      5.254
REMARK  5 active torsions:
REMARK  status: ('A' for Active; 'I' for Inactive)
REMARK    1  A    between atoms: O1_2  and  C2_3 
REMARK    2  A    between atoms: C2_3  and  C3_4 
REMARK    3  A    between atoms: C4_5  and  C5_6 
REMARK    4  A    between atoms: C14_17  and  N2_18 
REMARK    5  A    between atoms: N2_18  and  C15_19 
ROOT
HETATM    1  C5  UNL     1      26.411   6.528  48.719  1.00  0.00     0.167 C 
HETATM    2  C6  UNL     1      25.558   5.307  48.586  1.00  0.00     0.099 C 
HETATM    3  C7  UNL     1      24.134   5.738  48.554  1.00  0.00     0.057 C 
HETATM    4  C8  UNL     1      22.875   5.984  48.244  1.00  0.00     0.066 C 
HETATM    5  C9  UNL     1      21.805   5.908  47.431  1.00  0.00     0.101 C 
HETATM    6  N1  UNL     1      20.919   5.824  46.755  1.00  0.00    -0.191 NA
HETATM    7  C10 UNL     1      22.528   7.111  49.137  1.00  0.00     0.004 C 
HETATM    8  C11 UNL     1      22.739   8.035  50.095  1.00  0.00     0.026 C 
HETATM    9  O2  UNL     1      23.973   8.128  50.760  1.00  0.00     0.000 OA
HETATM   10  C12 UNL     1      25.159   7.593  50.422  1.00  0.00     0.054 C 
HETATM   11  C13 UNL     1      24.742   6.468  50.963  1.00  0.00     0.035 C 
HETATM   12  C14 UNL     1      23.520   5.898  51.652  1.00  0.00     0.148 C 
HETATM   13  C21 UNL     1      22.768   5.157  50.536  1.00  0.00     0.119 C 
HETATM   14  N3  UNL     1      23.573   5.572  49.740  1.00  0.00    -0.266 NA
HETATM   15  N4  UNL     1      26.400   7.087  50.051  1.00  0.00    -0.373 N 
HETATM   16  H19 UNL     1      27.247   7.116  50.678  1.00  0.00     0.161 HD
ENDROOT
BRANCH   1  17
HETATM   17  C4  UNL     1      27.829   6.168  48.437  1.00  0.00    -0.079 C 
HETATM   18  C3  UNL     1      28.952   5.874  48.230  1.00  0.00    -0.078 C 
BRANCH  18  19
HETATM   19  C2  UNL     1      30.360   5.486  47.960  1.00  0.00     0.260 C 
BRANCH  19  20
HETATM   20  O1  UNL     1      31.025   5.348  49.204  1.00  0.00    -0.384 OA
HETATM   21  C1  UNL     1      31.702   6.538  49.422  1.00  0.00     0.202 C 
ENDBRANCH  19  20
ENDBRANCH  18  19
ENDBRANCH   1  17
BRANCH  12  22
HETATM   22  N2  UNL     1      23.769   5.070  52.771  1.00  0.00    -0.377 N 
HETATM   23  H13 UNL     1      23.994   5.425  53.728  1.00  0.00     0.160 HD
BRANCH  22  24
HETATM   24  C15 UNL     1      23.720   3.666  52.604  1.00  0.00     0.030 A 
HETATM   25  C16 UNL     1      22.563   2.916  52.619  1.00  0.00     0.029 A 
HETATM   26  C17 UNL     1      22.489   1.542  52.477  1.00  0.00     0.004 A 
HETATM   27  C18 UNL     1      23.703   0.883  52.301  1.00  0.00     0.019 A 
HETATM   28  C19 UNL     1      24.902   1.549  52.271  1.00  0.00     0.013 A 
HETATM   29 BR1  UNL     1      26.508   0.555  52.032  1.00  0.00    -0.051 Br
HETATM   30  C20 UNL     1      24.852   2.911  52.425  1.00  0.00     0.048 A 
ENDBRANCH  22  24
ENDBRANCH  12  22
TORSDOF 5
ENDMDL
MODEL 8
REMARK VINA RESULT:      -7.8      3.773      6.365
REMARK  5 active torsions:
REMARK  status: ('A' for Active; 'I' for Inactive)
REMARK    1  A    between atoms: O1_2  and  C2_3 
REMARK    2  A    between atoms: C2_3  and  C3_4 
REMARK    3  A    between atoms: C4_5  and  C5_6 
REMARK    4  A    between atoms: C14_17  and  N2_18 
REMARK    5  A    between atoms: N2_18  and  C15_19 
ROOT
HETATM    1  C5  UNL     1      25.944   3.607  49.481  1.00  0.00     0.167 C 
HETATM    2  C6  UNL     1      25.955   3.618  50.976  1.00  0.00     0.099 C 
HETATM    3  C7  UNL     1      24.987   2.593  51.453  1.00  0.00     0.057 C 
HETATM    4  C8  UNL     1      24.384   1.560  52.009  1.00  0.00     0.066 C 
HETATM    5  C9  UNL     1      24.370   0.444  52.763  1.00  0.00     0.101 C 
HETATM    6  N1  UNL     1      24.367  -0.471  53.404  1.00  0.00    -0.191 NA
HETATM    7  C10 UNL     1      23.142   1.434  51.217  1.00  0.00     0.004 C 
HETATM    8  C11 UNL     1      22.251   1.764  50.260  1.00  0.00     0.026 C 
HETATM    9  O2  UNL     1      22.465   2.863  49.411  1.00  0.00     0.000 OA
HETATM   10  C12 UNL     1      23.597   3.553  49.189  1.00  0.00     0.054 C 
HETATM   11  C13 UNL     1      23.340   4.220  50.294  1.00  0.00     0.035 C 
HETATM   12  C14 UNL     1      22.309   4.273  51.402  1.00  0.00     0.148 C 
HETATM   13  C21 UNL     1      22.931   3.446  52.537  1.00  0.00     0.119 C 
HETATM   14  N3  UNL     1      23.846   3.161  51.807  1.00  0.00    -0.266 NA
HETATM   15  N4  UNL     1      24.775   4.238  48.914  1.00  0.00    -0.373 N 
HETATM   16  H19 UNL     1      24.809   5.125  48.345  1.00  0.00     0.161 HD
ENDROOT
BRANCH   1  17
HETATM   17  C4  UNL     1      27.113   4.382  48.977  1.00  0.00    -0.079 C 
HETATM   18  C3  UNL     1      28.029   4.999  48.563  1.00  0.00    -0.078 C 
BRANCH  18  19
HETATM   19  C2  UNL     1      29.174   5.792  48.047  1.00  0.00     0.260 C 
BRANCH  19  20
HETATM   20  O1  UNL     1      30.369   5.103  48.370  1.00  0.00    -0.384 OA
HETATM   21  C1  UNL     1      31.214   6.033  48.954  1.00  0.00     0.202 C 
ENDBRANCH  19  20
ENDBRANCH  18  19
ENDBRANCH   1  17
BRANCH  12  22
HETATM   22  N2  UNL     1      21.923   5.564  51.829  1.00  0.00    -0.377 N 
HETATM   23  H13 UNL     1      21.445   5.766  52.738  1.00  0.00     0.160 HD
BRANCH  22  24
HETATM   24  C15 UNL     1      22.185   6.668  50.985  1.00  0.00     0.030 A 
HETATM   25  C16 UNL     1      21.230   7.325  50.238  1.00  0.00     0.029 A 
HETATM   26  C17 UNL     1      21.462   8.395  49.391  1.00  0.00     0.004 A 
HETATM   27  C18 UNL     1      22.783   8.827  49.306  1.00  0.00     0.019 A 
HETATM   28  C19 UNL     1      23.796   8.233  50.014  1.00  0.00     0.013 A 
HETATM   29 BR1  UNL     1      25.571   8.895  49.824  1.00  0.00    -0.051 Br
HETATM   30  C20 UNL     1      23.447   7.179  50.821  1.00  0.00     0.048 A 
ENDBRANCH  22  24
ENDBRANCH  12  22
TORSDOF 5
ENDMDL
MODEL 9
REMARK VINA RESULT:      -7.8      2.111      2.793
REMARK  5 active torsions:
REMARK  status: ('A' for Active; 'I' for Inactive)
REMARK    1  A    between atoms: O1_2  and  C2_3 
REMARK    2  A    between atoms: C2_3  and  C3_4 
REMARK    3  A    between atoms: C4_5  and  C5_6 
REMARK    4  A    between atoms: C14_17  and  N2_18 
REMARK    5  A    between atoms: N2_18  and  C15_19 
ROOT
HETATM    1  C5  UNL     1      25.995   3.143  51.199  1.00  0.00     0.167 C 
HETATM    2  C6  UNL     1      25.967   3.251  49.708  1.00  0.00     0.099 C 
HETATM    3  C7  UNL     1      26.031   4.694  49.348  1.00  0.00     0.057 C 
HETATM    4  C8  UNL     1      26.351   5.887  48.882  1.00  0.00     0.066 C 
HETATM    5  C9  UNL     1      27.135   6.728  48.181  1.00  0.00     0.101 C 
HETATM    6  N1  UNL     1      27.783   7.414  47.583  1.00  0.00    -0.191 NA
HETATM    7  C10 UNL     1      25.599   6.802  49.768  1.00  0.00     0.004 C 
HETATM    8  C11 UNL     1      24.763   7.136  50.771  1.00  0.00     0.026 C 
HETATM    9  O2  UNL     1      24.132   6.154  51.553  1.00  0.00     0.000 OA
HETATM   10  C12 UNL     1      24.419   4.846  51.662  1.00  0.00     0.054 C 
HETATM   11  C13 UNL     1      23.738   4.662  50.550  1.00  0.00     0.035 C 
HETATM   12  C14 UNL     1      22.968   5.459  49.519  1.00  0.00     0.148 C 
HETATM   13  C21 UNL     1      23.975   5.675  48.379  1.00  0.00     0.119 C 
HETATM   14  N3  UNL     1      24.826   5.153  49.053  1.00  0.00    -0.266 NA
HETATM   15  N4  UNL     1      24.742   3.502  51.820  1.00  0.00    -0.373 N 
HETATM   16  H19 UNL     1      24.135   2.819  52.346  1.00  0.00     0.161 HD
ENDROOT
BRANCH   1  17
HETATM   17  C4  UNL     1      26.251   1.726  51.582  1.00  0.00    -0.079 C 
HETATM   18  C3  UNL     1      26.464   0.610  51.899  1.00  0.00    -0.078 C 
BRANCH  18  19
HETATM   19  C2  UNL     1      26.718  -0.794  52.311  1.00  0.00     0.260 C 
BRANCH  19  20
HETATM   20  O1  UNL     1      26.851  -0.823  53.722  1.00  0.00    -0.384 OA
HETATM   21  C1  UNL     1      28.061  -0.214  54.014  1.00  0.00     0.202 C 
ENDBRANCH  19  20
ENDBRANCH  18  19
ENDBRANCH   1  17
BRANCH  12  22
HETATM   22  N2  UNL     1      21.760   4.882  49.064  1.00  0.00    -0.377 N 
HETATM   23  H13 UNL     1      20.968   5.424  48.647  1.00  0.00     0.160 HD
BRANCH  22  24
HETATM   24  C15 UNL     1      21.588   3.483  49.179  1.00  0.00     0.030 A 
HETATM   25  C16 UNL     1      22.020   2.563  48.248  1.00  0.00     0.029 A 
HETATM   26  C17 UNL     1      21.849   1.193  48.326  1.00  0.00     0.004 A 
HETATM   27  C18 UNL     1      21.180   0.727  49.455  1.00  0.00     0.019 A 
HETATM   28  C19 UNL     1      20.717   1.570  50.432  1.00  0.00     0.013 A 
HETATM   29 BR1  UNL     1      19.809   0.836  51.935  1.00  0.00    -0.051 Br
HETATM   30  C20 UNL     1      20.943   2.911  50.246  1.00  0.00     0.048 A 
ENDBRANCH  22  24
ENDBRANCH  12  22
TORSDOF 5
ENDMDL
