MODEL 1
REMARK VINA RESULT:      -8.0      0.000      0.000
REMARK  7 active torsions:
REMARK  status: ('A' for Active; 'I' for Inactive)
REMARK    1  A    between atoms: O1_2  and  C2_3 
REMARK    2  A    between atoms: C4_5  and  N1_6 
REMARK    3  A    between atoms: C6_8  and  C7_9 
REMARK    4  A    between atoms: C7_9  and  N2_10 
REMARK    5  A    between atoms: N2_10  and  C8_11 
REMARK    6  A    between atoms: C11_16  and  N5_17 
REMARK    7  A    between atoms: N5_17  and  C12_18 
ROOT
HETATM    1  C8  UNL     1      24.504   2.943  51.006  1.00  0.00     0.092 A 
HETATM    2  C9  UNL     1      24.346   3.856  50.007  1.00  0.00     0.151 A 
HETATM    3  N3  UNL     1      25.426   4.292  49.319  1.00  0.00    -0.252 NA
HETATM    4  C10 UNL     1      26.661   3.821  49.626  1.00  0.00     0.235 A 
HETATM    5  N4  UNL     1      26.824   2.926  50.603  1.00  0.00    -0.222 NA
HETATM    6  C11 UNL     1      25.785   2.465  51.311  1.00  0.00     0.157 A 
ENDROOT
BRANCH   1   7
HETATM    7  N2  UNL     1      23.327   2.504  51.696  1.00  0.00    -0.382 N 
HETATM    8  H11 UNL     1      22.950   2.816  52.598  1.00  0.00     0.160 HD
BRANCH   7   9
HETATM    9  C7  UNL     1      22.471   1.476  51.126  1.00  0.00     0.157 C 
BRANCH   9  10
HETATM   10  C6  UNL     1      21.751   0.683  52.152  1.00  0.00    -0.028 A 
HETATM   11  C2  UNL     1      22.518   0.462  53.425  1.00  0.00     0.176 A 
HETATM   12  C3  UNL     1      21.560  -0.339  54.216  1.00  0.00     0.038 A 
HETATM   13  C4  UNL     1      20.434  -0.565  53.564  1.00  0.00     0.025 A 
HETATM   14  C5  UNL     1      20.574   0.086  52.269  1.00  0.00     0.036 A 
BRANCH  11  15
HETATM   15  O1  UNL     1      23.724  -0.180  53.210  1.00  0.00    -0.382 OA
HETATM   16  C1  UNL     1      24.068  -0.791  54.430  1.00  0.00     0.202 C 
ENDBRANCH  11  15
BRANCH  13  17
HETATM   17  N1  UNL     1      19.230  -1.267  53.889  1.00  0.00    -0.399 N 
HETATM   18  H6  UNL     1      18.462  -1.562  53.234  1.00  0.00     0.156 HD
HETATM   19  H7  UNL     1      19.100  -1.517  54.912  1.00  0.00     0.156 HD
ENDBRANCH  13  17
ENDBRANCH   9  10
ENDBRANCH   7   9
ENDBRANCH   1   7
BRANCH   6  20
HETATM   20  N5  UNL     1      25.962   1.534  52.327  1.00  0.00    -0.339 N 
HETATM   21  H14 UNL     1      25.093   1.235  52.857  1.00  0.00     0.167 HD
BRANCH  20  22
HETATM   22  C12 UNL     1      27.136   0.894  52.794  1.00  0.00     0.035 A 
HETATM   23  C13 UNL     1      28.215   1.516  53.374  1.00  0.00     0.032 A 
HETATM   24  C14 UNL     1      29.342   0.885  53.821  1.00  0.00     0.046 A 
HETATM   25  C15 UNL     1      29.435  -0.466  53.697  1.00  0.00     0.138 A 
HETATM   26  F1  UNL     1      30.516  -1.149  54.116  1.00  0.00    -0.204 F 
HETATM   27  C16 UNL     1      28.397  -1.164  53.128  1.00  0.00     0.074 A 
HETATM   28 CL1  UNL     1      28.514  -2.891  52.969  1.00  0.00    -0.081 Cl
HETATM   29  C17 UNL     1      27.309  -0.478  52.706  1.00  0.00     0.056 A 
ENDBRANCH  20  22
ENDBRANCH   6  20
TORSDOF 7
ENDMDL
MODEL 2
REMARK VINA RESULT:      -7.9      1.358      1.876
REMARK  7 active torsions:
REMARK  status: ('A' for Active; 'I' for Inactive)
REMARK    1  A    between atoms: O1_2  and  C2_3 
REMARK    2  A    between atoms: C4_5  and  N1_6 
REMARK    3  A    between atoms: C6_8  and  C7_9 
REMARK    4  A    between atoms: C7_9  and  N2_10 
REMARK    5  A    between atoms: N2_10  and  C8_11 
REMARK    6  A    between atoms: C11_16  and  N5_17 
REMARK    7  A    between atoms: N5_17  and  C12_18 
ROOT
HETATM    1  C8  UNL     1      24.583   2.866  51.143  1.00  0.00     0.092 A 
HETATM    2  C9  UNL     1      24.249   3.415  49.943  1.00  0.00     0.151 A 
HETATM    3  N3  UNL     1      25.222   3.865  49.116  1.00  0.00    -0.252 NA
HETATM    4  C10 UNL     1      26.524   3.767  49.487  1.00  0.00     0.235 A 
HETATM    5  N4  UNL     1      26.859   3.230  50.662  1.00  0.00    -0.222 NA
HETATM    6  C11 UNL     1      25.931   2.772  51.512  1.00  0.00     0.157 A 
ENDROOT
BRANCH   1   7
HETATM    7  N2  UNL     1      23.516   2.394  51.977  1.00  0.00    -0.382 N 
HETATM    8  H11 UNL     1      23.099   2.831  52.806  1.00  0.00     0.160 HD
BRANCH   7   9
HETATM    9  C7  UNL     1      22.859   1.127  51.697  1.00  0.00     0.157 C 
BRANCH   9  10
HETATM   10  C6  UNL     1      22.809   0.225  52.872  1.00  0.00    -0.028 A 
HETATM   11  C2  UNL     1      21.519  -0.531  53.027  1.00  0.00     0.176 A 
HETATM   12  C3  UNL     1      21.776  -1.314  54.254  1.00  0.00     0.038 A 
HETATM   13  C4  UNL     1      22.978  -1.087  54.753  1.00  0.00     0.025 A 
HETATM   14  C5  UNL     1      23.611  -0.117  53.870  1.00  0.00     0.036 A 
BRANCH  11  15
HETATM   15  O1  UNL     1      20.425   0.308  53.131  1.00  0.00    -0.382 OA
HETATM   16  C1  UNL     1      19.298  -0.526  53.253  1.00  0.00     0.202 C 
ENDBRANCH  11  15
BRANCH  13  17
HETATM   17  N1  UNL     1      23.681  -1.586  55.895  1.00  0.00    -0.399 N 
HETATM   18  H6  UNL     1      24.093  -1.032  56.688  1.00  0.00     0.156 HD
HETATM   19  H7  UNL     1      23.800  -2.639  55.944  1.00  0.00     0.156 HD
ENDBRANCH  13  17
ENDBRANCH   9  10
ENDBRANCH   7   9
ENDBRANCH   1   7
BRANCH   6  20
HETATM   20  N5  UNL     1      26.288   2.213  52.734  1.00  0.00    -0.339 N 
HETATM   21  H14 UNL     1      25.706   2.497  53.576  1.00  0.00     0.167 HD
BRANCH  20  22
HETATM   22  C12 UNL     1      27.323   1.306  53.063  1.00  0.00     0.035 A 
HETATM   23  C13 UNL     1      28.526   1.631  53.641  1.00  0.00     0.032 A 
HETATM   24  C14 UNL     1      29.516   0.743  53.954  1.00  0.00     0.046 A 
HETATM   25  C15 UNL     1      29.328  -0.577  53.685  1.00  0.00     0.138 A 
HETATM   26  F1  UNL     1      30.262  -1.504  53.968  1.00  0.00    -0.204 F 
HETATM   27  C16 UNL     1      28.150  -0.986  53.108  1.00  0.00     0.074 A 
HETATM   28 CL1  UNL     1      27.908  -2.673  52.764  1.00  0.00    -0.081 Cl
HETATM   29  C17 UNL     1      27.210  -0.055  52.823  1.00  0.00     0.056 A 
ENDBRANCH  20  22
ENDBRANCH   6  20
TORSDOF 7
ENDMDL
MODEL 3
REMARK VINA RESULT:      -7.9      3.361      5.248
REMARK  7 active torsions:
REMARK  status: ('A' for Active; 'I' for Inactive)
REMARK    1  A    between atoms: O1_2  and  C2_3 
REMARK    2  A    between atoms: C4_5  and  N1_6 
REMARK    3  A    between atoms: C6_8  and  C7_9 
REMARK    4  A    between atoms: C7_9  and  N2_10 
REMARK    5  A    between atoms: N2_10  and  C8_11 
REMARK    6  A    between atoms: C11_16  and  N5_17 
REMARK    7  A    between atoms: N5_17  and  C12_18 
ROOT
HETATM    1  C8  UNL     1      26.818   0.603  53.423  1.00  0.00     0.092 A 
HETATM    2  C9  UNL     1      27.630   0.376  54.492  1.00  0.00     0.151 A 
HETATM    3  N3  UNL     1      28.699   1.178  54.706  1.00  0.00    -0.252 NA
HETATM    4  C10 UNL     1      28.957   2.203  53.855  1.00  0.00     0.235 A 
HETATM    5  N4  UNL     1      28.166   2.432  52.805  1.00  0.00    -0.222 NA
HETATM    6  C11 UNL     1      27.097   1.665  52.553  1.00  0.00     0.157 A 
ENDROOT
BRANCH   1   7
HETATM    7  N2  UNL     1      25.692  -0.268  53.247  1.00  0.00    -0.382 N 
HETATM    8  H11 UNL     1      25.337  -0.703  52.389  1.00  0.00     0.160 HD
BRANCH   7   9
HETATM    9  C7  UNL     1      24.868  -0.654  54.381  1.00  0.00     0.157 C 
BRANCH   9  10
HETATM   10  C6  UNL     1      23.421  -0.696  54.062  1.00  0.00    -0.028 A 
HETATM   11  C2  UNL     1      23.022   0.104  52.854  1.00  0.00     0.176 A 
HETATM   12  C3  UNL     1      21.564  -0.132  52.806  1.00  0.00     0.038 A 
HETATM   13  C4  UNL     1      21.149  -0.917  53.784  1.00  0.00     0.025 A 
HETATM   14  C5  UNL     1      22.331  -1.261  54.562  1.00  0.00     0.036 A 
BRANCH  11  15
HETATM   15  O1  UNL     1      23.358   1.440  52.972  1.00  0.00    -0.382 OA
HETATM   16  C1  UNL     1      22.314   2.164  52.368  1.00  0.00     0.202 C 
ENDBRANCH  11  15
BRANCH  13  17
HETATM   17  N1  UNL     1      19.867  -1.429  54.160  1.00  0.00    -0.399 N 
HETATM   18  H6  UNL     1      19.395  -2.300  53.806  1.00  0.00     0.156 HD
HETATM   19  H7  UNL     1      19.334  -0.863  54.881  1.00  0.00     0.156 HD
ENDBRANCH  13  17
ENDBRANCH   9  10
ENDBRANCH   7   9
ENDBRANCH   1   7
BRANCH   6  20
HETATM   20  N5  UNL     1      26.278   1.910  51.458  1.00  0.00    -0.339 N 
HETATM   21  H14 UNL     1      25.715   1.088  51.091  1.00  0.00     0.167 HD
BRANCH  20  22
HETATM   22  C12 UNL     1      26.056   3.099  50.722  1.00  0.00     0.035 A 
HETATM   23  C13 UNL     1      26.815   3.548  49.669  1.00  0.00     0.032 A 
HETATM   24  C14 UNL     1      26.588   4.698  48.967  1.00  0.00     0.046 A 
HETATM   25  C15 UNL     1      25.535   5.485  49.314  1.00  0.00     0.138 A 
HETATM   26  F1  UNL     1      25.256   6.631  48.665  1.00  0.00    -0.204 F 
HETATM   27  C16 UNL     1      24.725   5.108  50.358  1.00  0.00     0.074 A 
HETATM   28 CL1  UNL     1      23.379   6.113  50.802  1.00  0.00    -0.081 Cl
HETATM   29  C17 UNL     1      25.005   3.956  51.011  1.00  0.00     0.056 A 
ENDBRANCH  20  22
ENDBRANCH   6  20
TORSDOF 7
ENDMDL
MODEL 4
REMARK VINA RESULT:      -7.7      3.553      6.800
REMARK  7 active torsions:
REMARK  status: ('A' for Active; 'I' for Inactive)
REMARK    1  A    between atoms: O1_2  and  C2_3 
REMARK    2  A    between atoms: C4_5  and  N1_6 
REMARK    3  A    between atoms: C6_8  and  C7_9 
REMARK    4  A    between atoms: C7_9  and  N2_10 
REMARK    5  A    between atoms: N2_10  and  C8_11 
REMARK    6  A    between atoms: C11_16  and  N5_17 
REMARK    7  A    between atoms: N5_17  and  C12_18 
ROOT
HETATM    1  C8  UNL     1      27.022   1.705  53.051  1.00  0.00     0.092 A 
HETATM    2  C9  UNL     1      28.165   2.212  53.591  1.00  0.00     0.151 A 
HETATM    3  N3  UNL     1      28.887   1.464  54.457  1.00  0.00    -0.252 NA
HETATM    4  C10 UNL     1      28.471   0.215  54.784  1.00  0.00     0.235 A 
HETATM    5  N4  UNL     1      27.352  -0.290  54.258  1.00  0.00    -0.222 NA
HETATM    6  C11 UNL     1      26.605   0.413  53.397  1.00  0.00     0.157 A 
ENDROOT
BRANCH   1   7
HETATM    7  N2  UNL     1      26.299   2.532  52.129  1.00  0.00    -0.382 N 
HETATM    8  H11 UNL     1      25.567   3.225  52.318  1.00  0.00     0.160 HD
BRANCH   7   9
HETATM    9  C7  UNL     1      26.564   2.460  50.701  1.00  0.00     0.157 C 
BRANCH   9  10
HETATM   10  C6  UNL     1      26.484   3.779  50.028  1.00  0.00    -0.028 A 
HETATM   11  C2  UNL     1      25.329   4.636  50.462  1.00  0.00     0.176 A 
HETATM   12  C3  UNL     1      25.523   5.843  49.631  1.00  0.00     0.038 A 
HETATM   13  C4  UNL     1      26.580   5.749  48.845  1.00  0.00     0.025 A 
HETATM   14  C5  UNL     1      27.171   4.444  49.110  1.00  0.00     0.036 A 
BRANCH  11  15
HETATM   15  O1  UNL     1      24.109   4.019  50.259  1.00  0.00    -0.382 OA
HETATM   16  C1  UNL     1      23.261   4.475  51.285  1.00  0.00     0.202 C 
ENDBRANCH  11  15
BRANCH  13  17
HETATM   17  N1  UNL     1      27.175   6.625  47.883  1.00  0.00    -0.399 N 
HETATM   18  H6  UNL     1      26.690   7.174  47.128  1.00  0.00     0.156 HD
HETATM   19  H7  UNL     1      28.229   6.732  47.941  1.00  0.00     0.156 HD
ENDBRANCH  13  17
ENDBRANCH   9  10
ENDBRANCH   7   9
ENDBRANCH   1   7
BRANCH   6  20
HETATM   20  N5  UNL     1      25.442  -0.119  52.853  1.00  0.00    -0.339 N 
HETATM   21  H14 UNL     1      25.542  -0.652  51.941  1.00  0.00     0.167 HD
BRANCH  20  22
HETATM   22  C12 UNL     1      24.105  -0.072  53.317  1.00  0.00     0.035 A 
HETATM   23  C13 UNL     1      23.560  -0.877  54.287  1.00  0.00     0.032 A 
HETATM   24  C14 UNL     1      22.267  -0.819  54.725  1.00  0.00     0.046 A 
HETATM   25  C15 UNL     1      21.425   0.097  54.177  1.00  0.00     0.138 A 
HETATM   26  F1  UNL     1      20.140   0.206  54.562  1.00  0.00    -0.204 F 
HETATM   27  C16 UNL     1      21.892   0.942  53.199  1.00  0.00     0.074 A 
HETATM   28 CL1  UNL     1      20.817   2.114  52.498  1.00  0.00    -0.081 Cl
HETATM   29  C17 UNL     1      23.184   0.833  52.811  1.00  0.00     0.056 A 
ENDBRANCH  20  22
ENDBRANCH   6  20
TORSDOF 7
ENDMDL
MODEL 5
REMARK VINA RESULT:      -7.4      2.085      4.985
REMARK  7 active torsions:
REMARK  status: ('A' for Active; 'I' for Inactive)
REMARK    1  A    between atoms: O1_2  and  C2_3 
REMARK    2  A    between atoms: C4_5  and  N1_6 
REMARK    3  A    between atoms: C6_8  and  C7_9 
REMARK    4  A    between atoms: C7_9  and  N2_10 
REMARK    5  A    between atoms: N2_10  and  C8_11 
REMARK    6  A    between atoms: C11_16  and  N5_17 
REMARK    7  A    between atoms: N5_17  and  C12_18 
ROOT
HETATM    1  C8  UNL     1      22.593   0.584  52.696  1.00  0.00     0.092 A 
HETATM    2  C9  UNL     1      21.320   0.800  53.130  1.00  0.00     0.151 A 
HETATM    3  N3  UNL     1      20.873   0.171  54.241  1.00  0.00    -0.252 NA
HETATM    4  C10 UNL     1      21.693  -0.673  54.917  1.00  0.00     0.235 A 
HETATM    5  N4  UNL     1      22.942  -0.890  54.499  1.00  0.00    -0.222 NA
HETATM    6  C11 UNL     1      23.428  -0.289  53.405  1.00  0.00     0.157 A 
ENDROOT
BRANCH   1   7
HETATM    7  N2  UNL     1      23.022   1.285  51.521  1.00  0.00    -0.382 N 
HETATM    8  H11 UNL     1      23.824   1.095  50.909  1.00  0.00     0.160 HD
BRANCH   7   9
HETATM    9  C7  UNL     1      22.288   2.443  51.037  1.00  0.00     0.157 C 
BRANCH   9  10
HETATM   10  C6  UNL     1      23.079   3.696  51.087  1.00  0.00    -0.028 A 
HETATM   11  C2  UNL     1      24.226   3.753  50.118  1.00  0.00     0.176 A 
HETATM   12  C3  UNL     1      24.799   5.084  50.409  1.00  0.00     0.038 A 
HETATM   13  C4  UNL     1      24.140   5.718  51.363  1.00  0.00     0.025 A 
HETATM   14  C5  UNL     1      23.063   4.829  51.776  1.00  0.00     0.036 A 
BRANCH  11  15
HETATM   15  O1  UNL     1      25.123   2.717  50.301  1.00  0.00    -0.382 OA
HETATM   16  C1  UNL     1      26.385   3.218  49.932  1.00  0.00     0.202 C 
ENDBRANCH  11  15
BRANCH  13  17
HETATM   17  N1  UNL     1      24.296   6.996  51.987  1.00  0.00    -0.399 N 
HETATM   18  H6  UNL     1      24.099   7.250  52.988  1.00  0.00     0.156 HD
HETATM   19  H7  UNL     1      24.652   7.777  51.363  1.00  0.00     0.156 HD
ENDBRANCH  13  17
ENDBRANCH   9  10
ENDBRANCH   7   9
ENDBRANCH   1   7
BRANCH   6  20
HETATM   20  N5  UNL     1      24.729  -0.519  52.975  1.00  0.00    -0.339 N 
HETATM   21  H14 UNL     1      24.881  -1.356  52.340  1.00  0.00     0.167 HD
BRANCH  20  22
HETATM   22  C12 UNL     1      25.926   0.187  53.246  1.00  0.00     0.035 A 
HETATM   23  C13 UNL     1      26.032   1.540  53.462  1.00  0.00     0.032 A 
HETATM   24  C14 UNL     1      27.195   2.208  53.722  1.00  0.00     0.046 A 
HETATM   25  C15 UNL     1      28.359   1.508  53.780  1.00  0.00     0.138 A 
HETATM   26  F1  UNL     1      29.539   2.105  54.032  1.00  0.00    -0.204 F 
HETATM   27  C16 UNL     1      28.341   0.150  53.576  1.00  0.00     0.074 A 
HETATM   28 CL1  UNL     1      29.828  -0.747  53.650  1.00  0.00    -0.081 Cl
HETATM   29  C17 UNL     1      27.154  -0.451  53.322  1.00  0.00     0.056 A 
ENDBRANCH  20  22
ENDBRANCH   6  20
TORSDOF 7
ENDMDL
MODEL 6
REMARK VINA RESULT:      -7.4      3.662      6.296
REMARK  7 active torsions:
REMARK  status: ('A' for Active; 'I' for Inactive)
REMARK    1  A    between atoms: O1_2  and  C2_3 
REMARK    2  A    between atoms: C4_5  and  N1_6 
REMARK    3  A    between atoms: C6_8  and  C7_9 
REMARK    4  A    between atoms: C7_9  and  N2_10 
REMARK    5  A    between atoms: N2_10  and  C8_11 
REMARK    6  A    between atoms: C11_16  and  N5_17 
REMARK    7  A    between atoms: N5_17  and  C12_18 
ROOT
HETATM    1  C8  UNL     1      27.059   1.686  53.334  1.00  0.00     0.092 A 
HETATM    2  C9  UNL     1      28.206   2.186  53.871  1.00  0.00     0.151 A 
HETATM    3  N3  UNL     1      29.022   1.376  54.585  1.00  0.00    -0.252 NA
HETATM    4  C10 UNL     1      28.693   0.071  54.764  1.00  0.00     0.235 A 
HETATM    5  N4  UNL     1      27.570  -0.426  54.240  1.00  0.00    -0.222 NA
HETATM    6  C11 UNL     1      26.733   0.337  53.526  1.00  0.00     0.157 A 
ENDROOT
BRANCH   1   7
HETATM    7  N2  UNL     1      26.236   2.582  52.576  1.00  0.00    -0.382 N 
HETATM    8  H11 UNL     1      25.493   3.211  52.900  1.00  0.00     0.160 HD
BRANCH   7   9
HETATM    9  C7  UNL     1      26.392   2.696  51.134  1.00  0.00     0.157 C 
BRANCH   9  10
HETATM   10  C6  UNL     1      25.233   3.341  50.472  1.00  0.00    -0.028 A 
HETATM   11  C2  UNL     1      25.584   4.192  49.285  1.00  0.00     0.176 A 
HETATM   12  C3  UNL     1      24.255   4.681  48.863  1.00  0.00     0.038 A 
HETATM   13  C4  UNL     1      23.283   4.225  49.632  1.00  0.00     0.025 A 
HETATM   14  C5  UNL     1      23.919   3.384  50.638  1.00  0.00     0.036 A 
BRANCH  11  15
HETATM   15  O1  UNL     1      26.466   5.208  49.606  1.00  0.00    -0.382 OA
HETATM   16  C1  UNL     1      27.465   5.191  48.615  1.00  0.00     0.202 C 
ENDBRANCH  11  15
BRANCH  13  17
HETATM   17  N1  UNL     1      21.864   4.402  49.637  1.00  0.00    -0.399 N 
HETATM   18  H6  UNL     1      21.274   4.879  48.909  1.00  0.00     0.156 HD
HETATM   19  H7  UNL     1      21.348   4.003  50.475  1.00  0.00     0.156 HD
ENDBRANCH  13  17
ENDBRANCH   9  10
ENDBRANCH   7   9
ENDBRANCH   1   7
BRANCH   6  20
HETATM   20  N5  UNL     1      25.566  -0.188  52.984  1.00  0.00    -0.339 N 
HETATM   21  H14 UNL     1      25.661  -0.714  52.067  1.00  0.00     0.167 HD
BRANCH  20  22
HETATM   22  C12 UNL     1      24.232  -0.141  53.454  1.00  0.00     0.035 A 
HETATM   23  C13 UNL     1      23.701  -0.922  54.452  1.00  0.00     0.032 A 
HETATM   24  C14 UNL     1      22.410  -0.866  54.896  1.00  0.00     0.046 A 
HETATM   25  C15 UNL     1      21.555   0.023  54.325  1.00  0.00     0.138 A 
HETATM   26  F1  UNL     1      20.271   0.130  54.715  1.00  0.00    -0.204 F 
HETATM   27  C16 UNL     1      22.006   0.843  53.319  1.00  0.00     0.074 A 
HETATM   28 CL1  UNL     1      20.914   1.981  52.588  1.00  0.00    -0.081 Cl
HETATM   29  C17 UNL     1      23.297   0.736  52.927  1.00  0.00     0.056 A 
ENDBRANCH  20  22
ENDBRANCH   6  20
TORSDOF 7
ENDMDL
MODEL 7
REMARK VINA RESULT:      -7.4      1.978      2.556
REMARK  7 active torsions:
REMARK  status: ('A' for Active; 'I' for Inactive)
REMARK    1  A    between atoms: O1_2  and  C2_3 
REMARK    2  A    between atoms: C4_5  and  N1_6 
REMARK    3  A    between atoms: C6_8  and  C7_9 
REMARK    4  A    between atoms: C7_9  and  N2_10 
REMARK    5  A    between atoms: N2_10  and  C8_11 
REMARK    6  A    between atoms: C11_16  and  N5_17 
REMARK    7  A    between atoms: N5_17  and  C12_18 
ROOT
HETATM    1  C8  UNL     1      25.280   4.656  50.712  1.00  0.00     0.092 A 
HETATM    2  C9  UNL     1      25.520   5.745  49.929  1.00  0.00     0.151 A 
HETATM    3  N3  UNL     1      26.482   5.691  48.979  1.00  0.00    -0.252 NA
HETATM    4  C10 UNL     1      27.203   4.554  48.810  1.00  0.00     0.235 A 
HETATM    5  N4  UNL     1      26.974   3.482  49.572  1.00  0.00    -0.222 NA
HETATM    6  C11 UNL     1      26.032   3.489  50.525  1.00  0.00     0.157 A 
ENDROOT
BRANCH   1   7
HETATM    7  N2  UNL     1      24.243   4.761  51.695  1.00  0.00    -0.382 N 
HETATM    8  H11 UNL     1      24.321   4.814  52.717  1.00  0.00     0.160 HD
BRANCH   7   9
HETATM    9  C7  UNL     1      22.845   4.808  51.299  1.00  0.00     0.157 C 
BRANCH   9  10
HETATM   10  C6  UNL     1      22.343   3.514  50.778  1.00  0.00    -0.028 A 
HETATM   11  C2  UNL     1      22.054   2.484  51.833  1.00  0.00     0.176 A 
HETATM   12  C3  UNL     1      21.588   1.342  51.018  1.00  0.00     0.038 A 
HETATM   13  C4  UNL     1      21.589   1.613  49.725  1.00  0.00     0.025 A 
HETATM   14  C5  UNL     1      22.067   2.983  49.596  1.00  0.00     0.036 A 
BRANCH  11  15
HETATM   15  O1  UNL     1      23.164   2.191  52.604  1.00  0.00    -0.382 OA
HETATM   16  C1  UNL     1      22.938   0.916  53.153  1.00  0.00     0.202 C 
ENDBRANCH  11  15
BRANCH  13  17
HETATM   17  N1  UNL     1      21.236   0.862  48.561  1.00  0.00    -0.399 N 
HETATM   18  H6  UNL     1      21.656   0.933  47.599  1.00  0.00     0.156 HD
HETATM   19  H7  UNL     1      20.458   0.151  48.684  1.00  0.00     0.156 HD
ENDBRANCH  13  17
ENDBRANCH   9  10
ENDBRANCH   7   9
ENDBRANCH   1   7
BRANCH   6  20
HETATM   20  N5  UNL     1      25.800   2.370  51.315  1.00  0.00    -0.339 N 
HETATM   21  H14 UNL     1      24.792   2.048  51.401  1.00  0.00     0.167 HD
BRANCH  20  22
HETATM   22  C12 UNL     1      26.698   1.558  52.048  1.00  0.00     0.035 A 
HETATM   23  C13 UNL     1      27.726   2.008  52.841  1.00  0.00     0.032 A 
HETATM   24  C14 UNL     1      28.586   1.212  53.544  1.00  0.00     0.046 A 
HETATM   25  C15 UNL     1      28.441  -0.138  53.476  1.00  0.00     0.138 A 
HETATM   26  F1  UNL     1      29.253  -0.979  54.143  1.00  0.00    -0.204 F 
HETATM   27  C16 UNL     1      27.436  -0.670  52.704  1.00  0.00     0.074 A 
HETATM   28 CL1  UNL     1      27.249  -2.396  52.615  1.00  0.00    -0.081 Cl
HETATM   29  C17 UNL     1      26.618   0.175  52.033  1.00  0.00     0.056 A 
ENDBRANCH  20  22
ENDBRANCH   6  20
TORSDOF 7
ENDMDL
MODEL 8
REMARK VINA RESULT:      -7.3      3.681      5.385
REMARK  7 active torsions:
REMARK  status: ('A' for Active; 'I' for Inactive)
REMARK    1  A    between atoms: O1_2  and  C2_3 
REMARK    2  A    between atoms: C4_5  and  N1_6 
REMARK    3  A    between atoms: C6_8  and  C7_9 
REMARK    4  A    between atoms: C7_9  and  N2_10 
REMARK    5  A    between atoms: N2_10  and  C8_11 
REMARK    6  A    between atoms: C11_16  and  N5_17 
REMARK    7  A    between atoms: N5_17  and  C12_18 
ROOT
HETATM    1  C8  UNL     1      26.271   1.093  53.085  1.00  0.00     0.092 A 
HETATM    2  C9  UNL     1      26.776   0.782  54.311  1.00  0.00     0.151 A 
HETATM    3  N3  UNL     1      28.009   1.217  54.660  1.00  0.00    -0.252 NA
HETATM    4  C10 UNL     1      28.737   1.960  53.788  1.00  0.00     0.235 A 
HETATM    5  N4  UNL     1      28.248   2.269  52.584  1.00  0.00    -0.222 NA
HETATM    6  C11 UNL     1      27.033   1.861  52.196  1.00  0.00     0.157 A 
ENDROOT
BRANCH   1   7
HETATM    7  N2  UNL     1      24.956   0.619  52.769  1.00  0.00    -0.382 N 
HETATM    8  H11 UNL     1      24.658  -0.318  52.474  1.00  0.00     0.160 HD
BRANCH   7   9
HETATM    9  C7  UNL     1      23.807   1.507  52.845  1.00  0.00     0.157 C 
BRANCH   9  10
HETATM   10  C6  UNL     1      22.788   1.232  51.804  1.00  0.00    -0.028 A 
HETATM   11  C2  UNL     1      21.642   0.374  52.260  1.00  0.00     0.176 A 
HETATM   12  C3  UNL     1      20.827   0.284  51.030  1.00  0.00     0.038 A 
HETATM   13  C4  UNL     1      21.361   0.950  50.022  1.00  0.00     0.025 A 
HETATM   14  C5  UNL     1      22.593   1.538  50.529  1.00  0.00     0.036 A 
BRANCH  11  15
HETATM   15  O1  UNL     1      22.059  -0.857  52.733  1.00  0.00    -0.382 OA
HETATM   16  C1  UNL     1      21.332  -1.092  53.915  1.00  0.00     0.202 C 
ENDBRANCH  11  15
BRANCH  13  17
HETATM   17  N1  UNL     1      20.969   1.164  48.664  1.00  0.00    -0.399 N 
HETATM   18  H6  UNL     1      21.557   1.046  47.799  1.00  0.00     0.156 HD
HETATM   19  H7  UNL     1      19.967   1.478  48.513  1.00  0.00     0.156 HD
ENDBRANCH  13  17
ENDBRANCH   9  10
ENDBRANCH   7   9
ENDBRANCH   1   7
BRANCH   6  20
HETATM   20  N5  UNL     1      26.532   2.187  50.942  1.00  0.00    -0.339 N 
HETATM   21  H14 UNL     1      26.316   1.378  50.289  1.00  0.00     0.167 HD
BRANCH  20  22
HETATM   22  C12 UNL     1      26.250   3.448  50.363  1.00  0.00     0.035 A 
HETATM   23  C13 UNL     1      26.939   4.031  49.327  1.00  0.00     0.032 A 
HETATM   24  C14 UNL     1      26.655   5.250  48.778  1.00  0.00     0.046 A 
HETATM   25  C15 UNL     1      25.613   5.970  49.273  1.00  0.00     0.138 A 
HETATM   26  F1  UNL     1      25.280   7.176  48.779  1.00  0.00    -0.204 F 
HETATM   27  C16 UNL     1      24.872   5.458  50.311  1.00  0.00     0.074 A 
HETATM   28 CL1  UNL     1      23.540   6.377  50.945  1.00  0.00    -0.081 Cl
HETATM   29  C17 UNL     1      25.206   4.244  50.809  1.00  0.00     0.056 A 
ENDBRANCH  20  22
ENDBRANCH   6  20
TORSDOF 7
ENDMDL
MODEL 9
REMARK VINA RESULT:      -7.3      3.636      6.702
REMARK  7 active torsions:
REMARK  status: ('A' for Active; 'I' for Inactive)
REMARK    1  A    between atoms: O1_2  and  C2_3 
REMARK    2  A    between atoms: C4_5  and  N1_6 
REMARK    3  A    between atoms: C6_8  and  C7_9 
REMARK    4  A    between atoms: C7_9  and  N2_10 
REMARK    5  A    between atoms: N2_10  and  C8_11 
REMARK    6  A    between atoms: C11_16  and  N5_17 
REMARK    7  A    between atoms: N5_17  and  C12_18 
ROOT
HETATM    1  C8  UNL     1      23.109   0.745  52.989  1.00  0.00     0.092 A 
HETATM    2  C9  UNL     1      22.602  -0.514  53.107  1.00  0.00     0.151 A 
HETATM    3  N3  UNL     1      21.292  -0.738  52.854  1.00  0.00    -0.252 NA
HETATM    4  C10 UNL     1      20.488   0.291  52.485  1.00  0.00     0.235 A 
HETATM    5  N4  UNL     1      20.977   1.528  52.366  1.00  0.00    -0.222 NA
HETATM    6  C11 UNL     1      22.267   1.797  52.606  1.00  0.00     0.157 A 
ENDROOT
BRANCH   1   7
HETATM    7  N2  UNL     1      24.505   0.927  53.256  1.00  0.00    -0.382 N 
HETATM    8  H11 UNL     1      24.967   1.204  54.129  1.00  0.00     0.160 HD
BRANCH   7   9
HETATM    9  C7  UNL     1      25.496   0.712  52.213  1.00  0.00     0.157 C 
BRANCH   9  10
HETATM   10  C6  UNL     1      26.584  -0.208  52.624  1.00  0.00    -0.028 A 
HETATM   11  C2  UNL     1      27.701   0.444  53.388  1.00  0.00     0.176 A 
HETATM   12  C3  UNL     1      28.600  -0.701  53.641  1.00  0.00     0.038 A 
HETATM   13  C4  UNL     1      28.132  -1.829  53.136  1.00  0.00     0.025 A 
HETATM   14  C5  UNL     1      26.865  -1.497  52.501  1.00  0.00     0.036 A 
BRANCH  11  15
HETATM   15  O1  UNL     1      28.301   1.466  52.677  1.00  0.00    -0.382 OA
HETATM   16  C1  UNL     1      28.688   2.432  53.624  1.00  0.00     0.202 C 
ENDBRANCH  11  15
BRANCH  13  17
HETATM   17  N1  UNL     1      28.616  -3.175  53.115  1.00  0.00    -0.399 N 
HETATM   18  H6  UNL     1      29.574  -3.517  53.385  1.00  0.00     0.156 HD
HETATM   19  H7  UNL     1      27.926  -3.912  52.789  1.00  0.00     0.156 HD
ENDBRANCH  13  17
ENDBRANCH   9  10
ENDBRANCH   7   9
ENDBRANCH   1   7
BRANCH   6  20
HETATM   20  N5  UNL     1      22.769   3.087  52.481  1.00  0.00    -0.339 N 
HETATM   21  H14 UNL     1      22.670   3.721  53.326  1.00  0.00     0.167 HD
BRANCH  20  22
HETATM   22  C12 UNL     1      23.406   3.724  51.389  1.00  0.00     0.035 A 
HETATM   23  C13 UNL     1      23.618   3.175  50.148  1.00  0.00     0.032 A 
HETATM   24  C14 UNL     1      24.236   3.802  49.103  1.00  0.00     0.046 A 
HETATM   25  C15 UNL     1      24.689   5.073  49.271  1.00  0.00     0.138 A 
HETATM   26  F1  UNL     1      25.306   5.748  48.284  1.00  0.00    -0.204 F 
HETATM   27  C16 UNL     1      24.517   5.696  50.484  1.00  0.00     0.074 A 
HETATM   28 CL1  UNL     1      25.097   7.320  50.701  1.00  0.00    -0.081 Cl
HETATM   29  C17 UNL     1      23.897   5.017  51.478  1.00  0.00     0.056 A 
ENDBRANCH  20  22
ENDBRANCH   6  20
TORSDOF 7
ENDMDL
