MODEL 1
REMARK VINA RESULT:      -9.2      0.000      0.000
REMARK  5 active torsions:
REMARK  status: ('A' for Active; 'I' for Inactive)
REMARK    1  A    between atoms: C5_5  and  P1_6 
REMARK    2  A    between atoms: P1_6  and  C6_7 
REMARK    3  A    between atoms: C10_11  and  C11_12 
REMARK    4  A    between atoms: C13_15  and  N1_16 
REMARK    5  A    between atoms: C16_20  and  C17_21 
ROOT
HETATM    1  C1  UNL     1      20.961   1.607  52.054  1.00  0.00     0.050 C 
HETATM    2  C2  UNL     1      22.277   1.078  52.467  1.00  0.00    -0.033 A 
HETATM    3  C3  UNL     1      22.231   0.119  53.456  1.00  0.00     0.010 A 
HETATM    4  C4  UNL     1      23.388  -0.426  53.960  1.00  0.00     0.012 A 
HETATM    5  C5  UNL     1      24.589   0.015  53.445  1.00  0.00    -0.031 A 
HETATM    6  C12 UNL     1      24.571   0.971  52.461  1.00  0.00     0.044 A 
HETATM    7  C13 UNL     1      23.435   1.561  51.910  1.00  0.00     0.064 A 
ENDROOT
BRANCH   7   8
HETATM    8  N1  UNL     1      23.597   2.489  50.863  1.00  0.00    -0.249 N 
HETATM    9  C14 UNL     1      22.749   2.272  49.714  1.00  0.00     0.232 A 
HETATM   10  N2  UNL     1      22.829   3.122  48.726  1.00  0.00    -0.252 NA
HETATM   11  C15 UNL     1      23.719   4.241  48.748  1.00  0.00     0.149 A 
HETATM   12  C16 UNL     1      24.547   4.536  49.751  1.00  0.00     0.078 A 
HETATM   13  N4  UNL     1      24.402   3.585  50.774  1.00  0.00    -0.291 N 
HETATM   14  H21 UNL     1      24.952   3.739  51.611  1.00  0.00     0.187 HD
BRANCH  12  15
HETATM   15  C17 UNL     1      25.361   5.685  49.616  1.00  0.00     0.018 A 
HETATM   16  C18 UNL     1      26.452   5.607  48.755  1.00  0.00     0.017 A 
HETATM   17  C19 UNL     1      27.303   6.669  48.583  1.00  0.00     0.020 A 
HETATM   18  C20 UNL     1      27.162   7.870  49.221  1.00  0.00     0.117 A 
HETATM   19  N3  UNL     1      26.110   7.936  50.048  1.00  0.00    -0.265 NA
HETATM   20  C21 UNL     1      25.254   6.902  50.237  1.00  0.00     0.043 A 
HETATM   21  C22 UNL     1      24.179   7.139  51.207  1.00  0.00     0.071 C 
ENDBRANCH  12  15
ENDBRANCH   7   8
BRANCH   5  22
HETATM   22  P1  UNL     1      26.105  -0.731  54.145  1.00  0.00    -0.082 P 
HETATM   23  H6  UNL     1      25.874  -2.077  54.617  1.00  0.00     0.063 HD
BRANCH  22  24
HETATM   24  C6  UNL     1      27.536  -0.699  53.022  1.00  0.00     0.074 A 
HETATM   25  C7  UNL     1      28.217  -2.040  53.084  1.00  0.00    -0.012 A 
HETATM   26  C8  UNL     1      29.455  -1.820  53.444  1.00  0.00    -0.002 A 
HETATM   27  C9  UNL     1      29.784  -0.419  53.664  1.00  0.00     0.011 A 
HETATM   28  C10 UNL     1      28.637   0.197  53.406  1.00  0.00    -0.008 A 
BRANCH  28  29
HETATM   29  C11 UNL     1      28.276   1.608  53.439  1.00  0.00     0.266 C 
HETATM   30  O1  UNL     1      28.366   2.574  54.208  1.00  0.00    -0.302 OA
ENDBRANCH  28  29
ENDBRANCH  22  24
ENDBRANCH   5  22
TORSDOF 5
ENDMDL
MODEL 2
REMARK VINA RESULT:      -8.8      4.234      7.654
REMARK  5 active torsions:
REMARK  status: ('A' for Active; 'I' for Inactive)
REMARK    1  A    between atoms: C5_5  and  P1_6 
REMARK    2  A    between atoms: P1_6  and  C6_7 
REMARK    3  A    between atoms: C10_11  and  C11_12 
REMARK    4  A    between atoms: C13_15  and  N1_16 
REMARK    5  A    between atoms: C16_20  and  C17_21 
ROOT
HETATM    1  C1  UNL     1      22.235  -0.848  54.743  1.00  0.00     0.050 C 
HETATM    2  C2  UNL     1      21.360  -0.432  53.629  1.00  0.00    -0.033 A 
HETATM    3  C3  UNL     1      20.029  -0.755  53.785  1.00  0.00     0.010 A 
HETATM    4  C4  UNL     1      19.115  -0.459  52.801  1.00  0.00     0.012 A 
HETATM    5  C5  UNL     1      19.571   0.168  51.661  1.00  0.00    -0.031 A 
HETATM    6  C12 UNL     1      20.906   0.465  51.564  1.00  0.00     0.044 A 
HETATM    7  C13 UNL     1      21.881   0.194  52.522  1.00  0.00     0.064 A 
ENDROOT
BRANCH   7   8
HETATM    8  N1  UNL     1      23.201   0.620  52.282  1.00  0.00    -0.249 N 
HETATM    9  C14 UNL     1      23.328   1.764  51.409  1.00  0.00     0.232 A 
HETATM   10  N2  UNL     1      24.526   2.227  51.178  1.00  0.00    -0.252 NA
HETATM   11  C15 UNL     1      25.698   1.642  51.753  1.00  0.00     0.149 A 
HETATM   12  C16 UNL     1      25.701   0.585  52.567  1.00  0.00     0.078 A 
HETATM   13  N4  UNL     1      24.382   0.147  52.771  1.00  0.00    -0.291 N 
HETATM   14  H21 UNL     1      24.261  -0.626  53.416  1.00  0.00     0.187 HD
BRANCH  12  15
HETATM   15  C17 UNL     1      26.949   0.133  53.053  1.00  0.00     0.018 A 
HETATM   16  C18 UNL     1      27.775   1.062  53.680  1.00  0.00     0.017 A 
HETATM   17  C19 UNL     1      29.010   0.711  54.160  1.00  0.00     0.020 A 
HETATM   18  C20 UNL     1      29.531  -0.550  54.073  1.00  0.00     0.117 A 
HETATM   19  N3  UNL     1      28.731  -1.438  53.468  1.00  0.00    -0.265 NA
HETATM   20  C21 UNL     1      27.507  -1.117  52.983  1.00  0.00     0.043 A 
HETATM   21  C22 UNL     1      26.783  -2.207  52.318  1.00  0.00     0.071 C 
ENDBRANCH  12  15
ENDBRANCH   7   8
BRANCH   5  22
HETATM   22  P1  UNL     1      18.324   0.539  50.375  1.00  0.00    -0.082 P 
HETATM   23  H6  UNL     1      16.985   0.215  50.813  1.00  0.00     0.063 HD
BRANCH  22  24
HETATM   24  C6  UNL     1      18.383   2.248  49.754  1.00  0.00     0.074 A 
HETATM   25  C7  UNL     1      19.631   2.410  48.928  1.00  0.00    -0.012 A 
HETATM   26  C8  UNL     1      20.317   3.384  49.464  1.00  0.00    -0.002 A 
HETATM   27  C9  UNL     1      19.700   3.989  50.637  1.00  0.00     0.011 A 
HETATM   28  C10 UNL     1      18.576   3.295  50.768  1.00  0.00    -0.008 A 
BRANCH  28  29
HETATM   29  C11 UNL     1      17.498   3.390  51.744  1.00  0.00     0.266 C 
HETATM   30  O1  UNL     1      16.744   4.250  52.217  1.00  0.00    -0.302 OA
ENDBRANCH  28  29
ENDBRANCH  22  24
ENDBRANCH   5  22
TORSDOF 5
ENDMDL
MODEL 3
REMARK VINA RESULT:      -8.8      3.127      6.418
REMARK  5 active torsions:
REMARK  status: ('A' for Active; 'I' for Inactive)
REMARK    1  A    between atoms: C5_5  and  P1_6 
REMARK    2  A    between atoms: P1_6  and  C6_7 
REMARK    3  A    between atoms: C10_11  and  C11_12 
REMARK    4  A    between atoms: C13_15  and  N1_16 
REMARK    5  A    between atoms: C16_20  and  C17_21 
ROOT
HETATM    1  C1  UNL     1      22.652   4.399  52.230  1.00  0.00     0.050 C 
HETATM    2  C2  UNL     1      23.410   3.193  52.621  1.00  0.00    -0.033 A 
HETATM    3  C3  UNL     1      24.527   3.435  53.392  1.00  0.00     0.010 A 
HETATM    4  C4  UNL     1      25.342   2.402  53.790  1.00  0.00     0.012 A 
HETATM    5  C5  UNL     1      25.008   1.124  53.395  1.00  0.00    -0.031 A 
HETATM    6  C12 UNL     1      23.884   0.946  52.629  1.00  0.00     0.044 A 
HETATM    7  C13 UNL     1      23.018   1.948  52.194  1.00  0.00     0.064 A 
ENDROOT
BRANCH   7   8
HETATM    8  N1  UNL     1      21.876   1.581  51.458  1.00  0.00    -0.249 N 
HETATM    9  C14 UNL     1      21.942   1.859  50.042  1.00  0.00     0.232 A 
HETATM   10  N2  UNL     1      20.926   1.508  49.301  1.00  0.00    -0.252 NA
HETATM   11  C15 UNL     1      19.767   0.870  49.844  1.00  0.00     0.149 A 
HETATM   12  C16 UNL     1      19.595   0.569  51.132  1.00  0.00     0.078 A 
HETATM   13  N4  UNL     1      20.726   0.971  51.862  1.00  0.00    -0.291 N 
HETATM   14  H21 UNL     1      20.725   0.747  52.850  1.00  0.00     0.187 HD
BRANCH  12  15
HETATM   15  C17 UNL     1      18.388  -0.067  51.504  1.00  0.00     0.018 A 
HETATM   16  C18 UNL     1      17.269   0.150  50.705  1.00  0.00     0.017 A 
HETATM   17  C19 UNL     1      16.056  -0.412  51.007  1.00  0.00     0.020 A 
HETATM   18  C20 UNL     1      15.838  -1.218  52.090  1.00  0.00     0.117 A 
HETATM   19  N3  UNL     1      16.919  -1.422  52.853  1.00  0.00    -0.265 NA
HETATM   20  C21 UNL     1      18.130  -0.877  52.579  1.00  0.00     0.043 A 
HETATM   21  C22 UNL     1      19.193  -1.178  53.544  1.00  0.00     0.071 C 
ENDBRANCH  12  15
ENDBRANCH   7   8
BRANCH   5  22
HETATM   22  P1  UNL     1      26.121  -0.222  53.940  1.00  0.00    -0.082 P 
HETATM   23  H6  UNL     1      25.419  -1.478  54.076  1.00  0.00     0.063 HD
BRANCH  22  24
HETATM   24  C6  UNL     1      27.594  -0.438  52.895  1.00  0.00     0.074 A 
HETATM   25  C7  UNL     1      27.907  -1.908  52.817  1.00  0.00    -0.012 A 
HETATM   26  C8  UNL     1      29.129  -2.059  53.257  1.00  0.00    -0.002 A 
HETATM   27  C9  UNL     1      29.784  -0.825  53.668  1.00  0.00     0.011 A 
HETATM   28  C10 UNL     1      28.853   0.092  53.440  1.00  0.00    -0.008 A 
BRANCH  28  29
HETATM   29  C11 UNL     1      28.859   1.536  53.636  1.00  0.00     0.266 C 
HETATM   30  O1  UNL     1      29.000   2.350  54.558  1.00  0.00    -0.302 OA
ENDBRANCH  28  29
ENDBRANCH  22  24
ENDBRANCH   5  22
TORSDOF 5
ENDMDL
MODEL 4
REMARK VINA RESULT:      -8.7      3.215      7.562
REMARK  5 active torsions:
REMARK  status: ('A' for Active; 'I' for Inactive)
REMARK    1  A    between atoms: C5_5  and  P1_6 
REMARK    2  A    between atoms: P1_6  and  C6_7 
REMARK    3  A    between atoms: C10_11  and  C11_12 
REMARK    4  A    between atoms: C13_15  and  N1_16 
REMARK    5  A    between atoms: C16_20  and  C17_21 
ROOT
HETATM    1  C1  UNL     1      22.940   2.773  48.933  1.00  0.00     0.050 C 
HETATM    2  C2  UNL     1      23.698   4.008  49.216  1.00  0.00    -0.033 A 
HETATM    3  C3  UNL     1      23.497   5.031  48.314  1.00  0.00     0.010 A 
HETATM    4  C4  UNL     1      24.173   6.222  48.441  1.00  0.00     0.012 A 
HETATM    5  C5  UNL     1      25.054   6.357  49.493  1.00  0.00    -0.031 A 
HETATM    6  C12 UNL     1      25.210   5.305  50.358  1.00  0.00     0.044 A 
HETATM    7  C13 UNL     1      24.557   4.076  50.286  1.00  0.00     0.064 A 
ENDROOT
BRANCH   7   8
HETATM    8  N1  UNL     1      24.795   3.123  51.294  1.00  0.00    -0.249 N 
HETATM    9  C14 UNL     1      23.663   2.829  52.141  1.00  0.00     0.232 A 
HETATM   10  N2  UNL     1      23.814   1.926  53.072  1.00  0.00    -0.252 NA
HETATM   11  C15 UNL     1      25.049   1.234  53.275  1.00  0.00     0.149 A 
HETATM   12  C16 UNL     1      26.157   1.427  52.558  1.00  0.00     0.078 A 
HETATM   13  N4  UNL     1      25.917   2.404  51.578  1.00  0.00    -0.291 N 
HETATM   14  H21 UNL     1      26.681   2.597  50.941  1.00  0.00     0.187 HD
BRANCH  12  15
HETATM   15  C17 UNL     1      27.295   0.655  52.887  1.00  0.00     0.018 A 
HETATM   16  C18 UNL     1      27.214  -0.725  52.715  1.00  0.00     0.017 A 
HETATM   17  C19 UNL     1      28.264  -1.546  53.031  1.00  0.00     0.020 A 
HETATM   18  C20 UNL     1      29.458  -1.102  53.527  1.00  0.00     0.117 A 
HETATM   19  N3  UNL     1      29.528   0.226  53.690  1.00  0.00    -0.265 NA
HETATM   20  C21 UNL     1      28.504   1.061  53.388  1.00  0.00     0.043 A 
HETATM   21  C22 UNL     1      28.743   2.482  53.665  1.00  0.00     0.071 C 
ENDBRANCH  12  15
ENDBRANCH   7   8
BRANCH   5  22
HETATM   22  P1  UNL     1      25.937   7.954  49.623  1.00  0.00    -0.082 P 
HETATM   23  H6  UNL     1      26.479   8.162  50.948  1.00  0.00     0.063 HD
BRANCH  22  24
HETATM   24  C6  UNL     1      27.236   8.189  48.372  1.00  0.00     0.074 A 
HETATM   25  C7  UNL     1      27.723   6.834  47.933  1.00  0.00    -0.012 A 
HETATM   26  C8  UNL     1      29.009   6.800  48.165  1.00  0.00    -0.002 A 
HETATM   27  C9  UNL     1      29.555   8.018  48.747  1.00  0.00     0.011 A 
HETATM   28  C10 UNL     1      28.487   8.799  48.850  1.00  0.00    -0.008 A 
BRANCH  28  29
HETATM   29  C11 UNL     1      28.336  10.158  49.354  1.00  0.00     0.266 C 
HETATM   30  O1  UNL     1      27.697  11.184  49.088  1.00  0.00    -0.302 OA
ENDBRANCH  28  29
ENDBRANCH  22  24
ENDBRANCH   5  22
TORSDOF 5
ENDMDL
MODEL 5
REMARK VINA RESULT:      -8.7      2.252      4.252
REMARK  5 active torsions:
REMARK  status: ('A' for Active; 'I' for Inactive)
REMARK    1  A    between atoms: C5_5  and  P1_6 
REMARK    2  A    between atoms: P1_6  and  C6_7 
REMARK    3  A    between atoms: C10_11  and  C11_12 
REMARK    4  A    between atoms: C13_15  and  N1_16 
REMARK    5  A    between atoms: C16_20  and  C17_21 
ROOT
HETATM    1  C1  UNL     1      23.144   5.120  48.018  1.00  0.00     0.050 C 
HETATM    2  C2  UNL     1      23.752   4.293  49.080  1.00  0.00    -0.033 A 
HETATM    3  C3  UNL     1      23.070   3.132  49.372  1.00  0.00     0.010 A 
HETATM    4  C4  UNL     1      23.508   2.292  50.369  1.00  0.00     0.012 A 
HETATM    5  C5  UNL     1      24.645   2.648  51.063  1.00  0.00    -0.031 A 
HETATM    6  C12 UNL     1      25.281   3.816  50.726  1.00  0.00     0.044 A 
HETATM    7  C13 UNL     1      24.889   4.708  49.729  1.00  0.00     0.064 A 
ENDROOT
BRANCH   7   8
HETATM    8  N1  UNL     1      25.693   5.836  49.478  1.00  0.00    -0.249 N 
HETATM    9  C14 UNL     1      25.462   6.961  50.354  1.00  0.00     0.232 A 
HETATM   10  N2  UNL     1      26.203   8.024  50.192  1.00  0.00    -0.252 NA
HETATM   11  C15 UNL     1      27.217   8.106  49.188  1.00  0.00     0.149 A 
HETATM   12  C16 UNL     1      27.514   7.133  48.324  1.00  0.00     0.078 A 
HETATM   13  N4  UNL     1      26.683   6.026  48.561  1.00  0.00    -0.291 N 
HETATM   14  H21 UNL     1      26.855   5.206  47.991  1.00  0.00     0.187 HD
BRANCH  12  15
HETATM   15  C17 UNL     1      28.552   7.374  47.394  1.00  0.00     0.018 A 
HETATM   16  C18 UNL     1      28.242   8.116  46.257  1.00  0.00     0.017 A 
HETATM   17  C19 UNL     1      29.184   8.376  45.296  1.00  0.00     0.020 A 
HETATM   18  C20 UNL     1      30.480   7.945  45.362  1.00  0.00     0.117 A 
HETATM   19  N3  UNL     1      30.770   7.232  46.458  1.00  0.00    -0.265 NA
HETATM   20  C21 UNL     1      29.857   6.959  47.423  1.00  0.00     0.043 A 
HETATM   21  C22 UNL     1      30.340   6.133  48.536  1.00  0.00     0.071 C 
ENDBRANCH  12  15
ENDBRANCH   7   8
BRANCH   5  22
HETATM   22  P1  UNL     1      25.192   1.508  52.384  1.00  0.00    -0.082 P 
HETATM   23  H6  UNL     1      24.151   0.574  52.754  1.00  0.00     0.063 HD
BRANCH  22  24
HETATM   24  C6  UNL     1      26.729   0.613  52.005  1.00  0.00     0.074 A 
HETATM   25  C7  UNL     1      26.427  -0.861  51.983  1.00  0.00    -0.012 A 
HETATM   26  C8  UNL     1      27.211  -1.422  52.866  1.00  0.00    -0.002 A 
HETATM   27  C9  UNL     1      28.094  -0.501  53.567  1.00  0.00     0.011 A 
HETATM   28  C10 UNL     1      27.778   0.673  53.033  1.00  0.00    -0.008 A 
BRANCH  28  29
HETATM   29  C11 UNL     1      28.291   2.012  53.289  1.00  0.00     0.266 C 
HETATM   30  O1  UNL     1      28.671   2.696  54.249  1.00  0.00    -0.302 OA
ENDBRANCH  28  29
ENDBRANCH  22  24
ENDBRANCH   5  22
TORSDOF 5
ENDMDL
MODEL 6
REMARK VINA RESULT:      -8.6      3.937      7.940
REMARK  5 active torsions:
REMARK  status: ('A' for Active; 'I' for Inactive)
REMARK    1  A    between atoms: C5_5  and  P1_6 
REMARK    2  A    between atoms: P1_6  and  C6_7 
REMARK    3  A    between atoms: C10_11  and  C11_12 
REMARK    4  A    between atoms: C13_15  and  N1_16 
REMARK    5  A    between atoms: C16_20  and  C17_21 
ROOT
HETATM    1  C1  UNL     1      22.643  -1.144  54.760  1.00  0.00     0.050 C 
HETATM    2  C2  UNL     1      21.706  -0.594  53.759  1.00  0.00    -0.033 A 
HETATM    3  C3  UNL     1      20.380  -0.902  53.975  1.00  0.00     0.010 A 
HETATM    4  C4  UNL     1      19.410  -0.484  53.094  1.00  0.00     0.012 A 
HETATM    5  C5  UNL     1      19.805   0.249  51.996  1.00  0.00    -0.031 A 
HETATM    6  C12 UNL     1      21.139   0.526  51.836  1.00  0.00     0.044 A 
HETATM    7  C13 UNL     1      22.169   0.133  52.689  1.00  0.00     0.064 A 
ENDROOT
BRANCH   7   8
HETATM    8  N1  UNL     1      23.481   0.552  52.402  1.00  0.00    -0.249 N 
HETATM    9  C14 UNL     1      23.582   1.724  51.563  1.00  0.00     0.232 A 
HETATM   10  N2  UNL     1      24.774   2.182  51.291  1.00  0.00    -0.252 NA
HETATM   11  C15 UNL     1      25.963   1.564  51.790  1.00  0.00     0.149 A 
HETATM   12  C16 UNL     1      25.991   0.480  52.567  1.00  0.00     0.078 A 
HETATM   13  N4  UNL     1      24.678   0.050  52.819  1.00  0.00    -0.291 N 
HETATM   14  H21 UNL     1      24.577  -0.743  53.442  1.00  0.00     0.187 HD
BRANCH  12  15
HETATM   15  C17 UNL     1      27.255  -0.002  52.979  1.00  0.00     0.018 A 
HETATM   16  C18 UNL     1      28.171   0.923  53.474  1.00  0.00     0.017 A 
HETATM   17  C19 UNL     1      29.425   0.541  53.874  1.00  0.00     0.020 A 
HETATM   18  C20 UNL     1      29.882  -0.747  53.827  1.00  0.00     0.117 A 
HETATM   19  N3  UNL     1      28.995  -1.630  53.348  1.00  0.00    -0.265 NA
HETATM   20  C21 UNL     1      27.749  -1.280  52.945  1.00  0.00     0.043 A 
HETATM   21  C22 UNL     1      26.925  -2.371  52.414  1.00  0.00     0.071 C 
ENDBRANCH  12  15
ENDBRANCH   7   8
BRANCH   5  22
HETATM   22  P1  UNL     1      18.486   0.782  50.846  1.00  0.00    -0.082 P 
HETATM   23  H6  UNL     1      17.559  -0.290  50.558  1.00  0.00     0.063 HD
BRANCH  22  24
HETATM   24  C6  UNL     1      17.581   2.263  51.389  1.00  0.00     0.074 A 
HETATM   25  C7  UNL     1      16.263   2.305  50.663  1.00  0.00    -0.012 A 
HETATM   26  C8  UNL     1      16.221   3.442  50.019  1.00  0.00    -0.002 A 
HETATM   27  C9  UNL     1      17.399   4.281  50.189  1.00  0.00     0.011 A 
HETATM   28  C10 UNL     1      18.164   3.554  50.994  1.00  0.00    -0.008 A 
BRANCH  28  29
HETATM   29  C11 UNL     1      19.483   3.812  51.556  1.00  0.00     0.266 C 
HETATM   30  O1  UNL     1      20.630   4.063  51.163  1.00  0.00    -0.302 OA
ENDBRANCH  28  29
ENDBRANCH  22  24
ENDBRANCH   5  22
TORSDOF 5
ENDMDL
MODEL 7
REMARK VINA RESULT:      -8.5      3.109      5.513
REMARK  5 active torsions:
REMARK  status: ('A' for Active; 'I' for Inactive)
REMARK    1  A    between atoms: C5_5  and  P1_6 
REMARK    2  A    between atoms: P1_6  and  C6_7 
REMARK    3  A    between atoms: C10_11  and  C11_12 
REMARK    4  A    between atoms: C13_15  and  N1_16 
REMARK    5  A    between atoms: C16_20  and  C17_21 
ROOT
HETATM    1  C1  UNL     1      26.740   2.499  51.150  1.00  0.00     0.050 C 
HETATM    2  C2  UNL     1      25.299   2.433  51.470  1.00  0.00    -0.033 A 
HETATM    3  C3  UNL     1      24.940   1.406  52.317  1.00  0.00     0.010 A 
HETATM    4  C4  UNL     1      23.624   1.209  52.662  1.00  0.00     0.012 A 
HETATM    5  C5  UNL     1      22.681   2.068  52.138  1.00  0.00    -0.031 A 
HETATM    6  C12 UNL     1      23.100   3.072  51.303  1.00  0.00     0.044 A 
HETATM    7  C13 UNL     1      24.414   3.324  50.915  1.00  0.00     0.064 A 
ENDROOT
BRANCH   7   8
HETATM    8  N1  UNL     1      24.674   4.436  50.091  1.00  0.00    -0.249 N 
HETATM    9  C14 UNL     1      23.685   4.687  49.068  1.00  0.00     0.232 A 
HETATM   10  N2  UNL     1      23.853   5.726  48.296  1.00  0.00    -0.252 NA
HETATM   11  C15 UNL     1      24.972   6.607  48.430  1.00  0.00     0.149 A 
HETATM   12  C16 UNL     1      25.944   6.472  49.333  1.00  0.00     0.078 A 
HETATM   13  N4  UNL     1      25.693   5.340  50.126  1.00  0.00    -0.291 N 
HETATM   14  H21 UNL     1      26.347   5.167  50.881  1.00  0.00     0.187 HD
BRANCH  12  15
HETATM   15  C17 UNL     1      26.979   7.435  49.335  1.00  0.00     0.018 A 
HETATM   16  C18 UNL     1      26.748   8.632  50.009  1.00  0.00     0.017 A 
HETATM   17  C19 UNL     1      27.691   9.626  50.040  1.00  0.00     0.020 A 
HETATM   18  C20 UNL     1      28.912   9.539  49.432  1.00  0.00     0.117 A 
HETATM   19  N3  UNL     1      29.126   8.385  48.785  1.00  0.00    -0.265 NA
HETATM   20  C21 UNL     1      28.211   7.386  48.737  1.00  0.00     0.043 A 
HETATM   21  C22 UNL     1      28.600   6.209  47.953  1.00  0.00     0.071 C 
ENDBRANCH  12  15
ENDBRANCH   7   8
BRANCH   5  22
HETATM   22  P1  UNL     1      20.942   1.769  52.618  1.00  0.00    -0.082 P 
HETATM   23  H6  UNL     1      20.058   2.790  52.100  1.00  0.00     0.063 HD
BRANCH  22  24
HETATM   24  C6  UNL     1      20.320   0.119  52.174  1.00  0.00     0.074 A 
HETATM   25  C7  UNL     1      18.974   0.280  51.520  1.00  0.00    -0.012 A 
HETATM   26  C8  UNL     1      18.124  -0.422  52.224  1.00  0.00    -0.002 A 
HETATM   27  C9  UNL     1      18.705  -1.111  53.367  1.00  0.00     0.011 A 
HETATM   28  C10 UNL     1      19.985  -0.767  53.299  1.00  0.00    -0.008 A 
BRANCH  28  29
HETATM   29  C11 UNL     1      21.119  -1.115  54.145  1.00  0.00     0.266 C 
HETATM   30  O1  UNL     1      21.364  -1.832  55.124  1.00  0.00    -0.302 OA
ENDBRANCH  28  29
ENDBRANCH  22  24
ENDBRANCH   5  22
TORSDOF 5
ENDMDL
MODEL 8
REMARK VINA RESULT:      -8.4      3.581      7.813
REMARK  5 active torsions:
REMARK  status: ('A' for Active; 'I' for Inactive)
REMARK    1  A    between atoms: C5_5  and  P1_6 
REMARK    2  A    between atoms: P1_6  and  C6_7 
REMARK    3  A    between atoms: C10_11  and  C11_12 
REMARK    4  A    between atoms: C13_15  and  N1_16 
REMARK    5  A    between atoms: C16_20  and  C17_21 
ROOT
HETATM    1  C1  UNL     1      26.290   3.442  49.526  1.00  0.00     0.050 C 
HETATM    2  C2  UNL     1      24.850   3.697  49.734  1.00  0.00    -0.033 A 
HETATM    3  C3  UNL     1      24.306   4.660  48.912  1.00  0.00     0.010 A 
HETATM    4  C4  UNL     1      22.985   5.020  49.031  1.00  0.00     0.012 A 
HETATM    5  C5  UNL     1      22.226   4.390  49.994  1.00  0.00    -0.031 A 
HETATM    6  C12 UNL     1      22.822   3.438  50.781  1.00  0.00     0.044 A 
HETATM    7  C13 UNL     1      24.152   3.028  50.711  1.00  0.00     0.064 A 
ENDROOT
BRANCH   7   8
HETATM    8  N1  UNL     1      24.587   1.995  51.562  1.00  0.00    -0.249 N 
HETATM    9  C14 UNL     1      23.532   1.225  52.182  1.00  0.00     0.232 A 
HETATM   10  N2  UNL     1      23.874   0.230  52.954  1.00  0.00    -0.252 NA
HETATM   11  C15 UNL     1      25.240  -0.113  53.203  1.00  0.00     0.149 A 
HETATM   12  C16 UNL     1      26.292   0.527  52.689  1.00  0.00     0.078 A 
HETATM   13  N4  UNL     1      25.847   1.578  51.870  1.00  0.00    -0.291 N 
HETATM   14  H21 UNL     1      26.565   2.105  51.387  1.00  0.00     0.187 HD
BRANCH  12  15
HETATM   15  C17 UNL     1      27.580   0.056  53.033  1.00  0.00     0.018 A 
HETATM   16  C18 UNL     1      27.812  -1.314  52.951  1.00  0.00     0.017 A 
HETATM   17  C19 UNL     1      29.026  -1.854  53.287  1.00  0.00     0.020 A 
HETATM   18  C20 UNL     1      30.094  -1.119  53.720  1.00  0.00     0.117 A 
HETATM   19  N3  UNL     1      29.863   0.198  53.796  1.00  0.00    -0.265 NA
HETATM   20  C21 UNL     1      28.672   0.759  53.472  1.00  0.00     0.043 A 
HETATM   21  C22 UNL     1      28.586   2.212  53.651  1.00  0.00     0.071 C 
ENDBRANCH  12  15
ENDBRANCH   7   8
BRANCH   5  22
HETATM   22  P1  UNL     1      20.474   4.900  50.124  1.00  0.00    -0.082 P 
HETATM   23  H6  UNL     1      20.146   5.944  49.178  1.00  0.00     0.063 HD
BRANCH  22  24
HETATM   24  C6  UNL     1      19.287   3.530  49.979  1.00  0.00     0.074 A 
HETATM   25  C7  UNL     1      19.185   2.847  51.316  1.00  0.00    -0.012 A 
HETATM   26  C8  UNL     1      19.501   1.593  51.127  1.00  0.00    -0.002 A 
HETATM   27  C9  UNL     1      19.837   1.251  49.752  1.00  0.00     0.011 A 
HETATM   28  C10 UNL     1      19.699   2.410  49.119  1.00  0.00    -0.008 A 
BRANCH  28  29
HETATM   29  C11 UNL     1      19.885   2.767  47.719  1.00  0.00     0.266 C 
HETATM   30  O1  UNL     1      19.199   3.110  46.747  1.00  0.00    -0.302 OA
ENDBRANCH  28  29
ENDBRANCH  22  24
ENDBRANCH   5  22
TORSDOF 5
ENDMDL
MODEL 9
REMARK VINA RESULT:      -8.4      1.498      2.506
REMARK  5 active torsions:
REMARK  status: ('A' for Active; 'I' for Inactive)
REMARK    1  A    between atoms: C5_5  and  P1_6 
REMARK    2  A    between atoms: P1_6  and  C6_7 
REMARK    3  A    between atoms: C10_11  and  C11_12 
REMARK    4  A    between atoms: C13_15  and  N1_16 
REMARK    5  A    between atoms: C16_20  and  C17_21 
ROOT
HETATM    1  C1  UNL     1      21.593   3.374  50.123  1.00  0.00     0.050 C 
HETATM    2  C2  UNL     1      22.636   2.673  50.900  1.00  0.00    -0.033 A 
HETATM    3  C3  UNL     1      22.340   1.365  51.219  1.00  0.00     0.010 A 
HETATM    4  C4  UNL     1      23.209   0.613  51.974  1.00  0.00     0.012 A 
HETATM    5  C5  UNL     1      24.378   1.206  52.398  1.00  0.00    -0.031 A 
HETATM    6  C12 UNL     1      24.618   2.510  52.048  1.00  0.00     0.044 A 
HETATM    7  C13 UNL     1      23.781   3.324  51.287  1.00  0.00     0.064 A 
ENDROOT
BRANCH   7   8
HETATM    8  N1  UNL     1      24.210   4.628  50.973  1.00  0.00    -0.249 N 
HETATM    9  C14 UNL     1      23.532   5.686  51.686  1.00  0.00     0.232 A 
HETATM   10  N2  UNL     1      23.911   6.915  51.463  1.00  0.00    -0.252 NA
HETATM   11  C15 UNL     1      24.959   7.238  50.546  1.00  0.00     0.149 A 
HETATM   12  C16 UNL     1      25.650   6.347  49.833  1.00  0.00     0.078 A 
HETATM   13  N4  UNL     1      25.190   5.053  50.128  1.00  0.00    -0.291 N 
HETATM   14  H21 UNL     1      25.680   4.290  49.676  1.00  0.00     0.187 HD
BRANCH  12  15
HETATM   15  C17 UNL     1      26.661   6.835  48.972  1.00  0.00     0.018 A 
HETATM   16  C18 UNL     1      26.631   8.187  48.640  1.00  0.00     0.017 A 
HETATM   17  C19 UNL     1      27.561   8.734  47.795  1.00  0.00     0.020 A 
HETATM   18  C20 UNL     1      28.577   8.025  47.216  1.00  0.00     0.117 A 
HETATM   19  N3  UNL     1      28.598   6.726  47.540  1.00  0.00    -0.265 NA
HETATM   20  C21 UNL     1      27.690   6.158  48.372  1.00  0.00     0.043 A 
HETATM   21  C22 UNL     1      27.843   4.715  48.587  1.00  0.00     0.071 C 
ENDBRANCH  12  15
ENDBRANCH   7   8
BRANCH   5  22
HETATM   22  P1  UNL     1      25.505   0.173  53.404  1.00  0.00    -0.082 P 
HETATM   23  H6  UNL     1      24.897  -1.087  53.769  1.00  0.00     0.063 HD
BRANCH  22  24
HETATM   24  C6  UNL     1      27.131  -0.114  52.641  1.00  0.00     0.074 A 
HETATM   25  C7  UNL     1      27.436  -1.586  52.715  1.00  0.00    -0.012 A 
HETATM   26  C8  UNL     1      28.564  -1.706  53.365  1.00  0.00    -0.002 A 
HETATM   27  C9  UNL     1      29.154  -0.448  53.798  1.00  0.00     0.011 A 
HETATM   28  C10 UNL     1      28.285   0.452  53.354  1.00  0.00    -0.008 A 
BRANCH  28  29
HETATM   29  C11 UNL     1      28.276   1.906  53.451  1.00  0.00     0.266 C 
HETATM   30  O1  UNL     1      29.041   2.858  53.246  1.00  0.00    -0.302 OA
ENDBRANCH  28  29
ENDBRANCH  22  24
ENDBRANCH   5  22
TORSDOF 5
ENDMDL
