MODEL 1
REMARK VINA RESULT:      -9.1      0.000      0.000
REMARK  3 active torsions:
REMARK  status: ('A' for Active; 'I' for Inactive)
REMARK    1  A    between atoms: C3_3  and  C4_5 
REMARK    2  A    between atoms: C7_9  and  C8_10 
REMARK    3  A    between atoms: C8_10  and  C9_11 
ROOT
HETATM    1  C4  UNL     1      20.687  -0.515  53.186  1.00  0.00     0.068 C 
HETATM    2  C5  UNL     1      21.523   0.212  52.162  1.00  0.00     0.132 C 
HETATM    3  N1  UNL     1      22.918   0.231  52.491  1.00  0.00    -0.385 N 
HETATM    4  C6  UNL     1      23.672  -0.294  53.572  1.00  0.00     0.089 C 
HETATM    5  C7  UNL     1      24.996  -0.449  53.682  1.00  0.00     0.069 C 
HETATM    6  N2  UNL     1      25.175  -1.007  54.950  1.00  0.00    -0.245 NA
HETATM    7  C16 UNL     1      24.047  -1.362  55.445  1.00  0.00     0.124 C 
HETATM    8  C17 UNL     1      23.037  -0.775  54.820  1.00  0.00     0.128 C 
HETATM    9  O1  UNL     1      21.730  -0.670  55.275  1.00  0.00    -0.346 OA
HETATM   10  C18 UNL     1      20.751   0.105  54.562  1.00  0.00     0.187 C 
HETATM   11  H8  UNL     1      23.509   0.732  51.799  1.00  0.00     0.159 HD
ENDROOT
BRANCH   5  12
HETATM   12  C8  UNL     1      25.942  -0.075  52.631  1.00  0.00     0.101 C 
BRANCH  12  13
HETATM   13  C9  UNL     1      27.363  -0.381  52.991  1.00  0.00    -0.046 A 
HETATM   14  C10 UNL     1      27.884  -1.677  52.921  1.00  0.00     0.008 A 
HETATM   15  C11 UNL     1      29.196  -1.980  53.245  1.00  0.00     0.001 A 
HETATM   16  C12 UNL     1      29.978  -0.913  53.650  1.00  0.00     0.001 A 
HETATM   17  C13 UNL     1      29.500   0.383  53.734  1.00  0.00     0.007 A 
HETATM   18  C14 UNL     1      28.181   0.644  53.400  1.00  0.00    -0.055 A 
HETATM   19  C15 UNL     1      27.759   2.056  53.525  1.00  0.00     0.049 C 
ENDBRANCH  12  13
ENDBRANCH   5  12
BRANCH   1  20
HETATM   20  C3  UNL     1      19.283  -0.524  52.716  1.00  0.00    -0.008 C 
HETATM   21  C2  UNL     1      18.823   0.274  51.764  1.00  0.00    -0.016 C 
HETATM   22  C1  UNL     1      17.419   0.220  51.334  1.00  0.00     0.037 C 
HETATM   23 BR1  UNL     1      17.971  -1.716  53.449  1.00  0.00    -0.056 Br
ENDBRANCH   1  20
TORSDOF 3
ENDMDL
MODEL 2
REMARK VINA RESULT:      -8.2      2.064      2.765
REMARK  3 active torsions:
REMARK  status: ('A' for Active; 'I' for Inactive)
REMARK    1  A    between atoms: C3_3  and  C4_5 
REMARK    2  A    between atoms: C7_9  and  C8_10 
REMARK    3  A    between atoms: C8_10  and  C9_11 
ROOT
HETATM    1  C4  UNL     1      21.190   0.551  52.159  1.00  0.00     0.068 C 
HETATM    2  C5  UNL     1      21.938  -0.301  53.153  1.00  0.00     0.132 C 
HETATM    3  N1  UNL     1      23.334   0.015  53.222  1.00  0.00    -0.385 N 
HETATM    4  C6  UNL     1      24.153   0.963  52.556  1.00  0.00     0.089 C 
HETATM    5  C7  UNL     1      25.394   1.364  52.853  1.00  0.00     0.069 C 
HETATM    6  N2  UNL     1      25.700   2.303  51.865  1.00  0.00    -0.245 NA
HETATM    7  C16 UNL     1      24.652   2.597  51.189  1.00  0.00     0.124 C 
HETATM    8  C17 UNL     1      23.702   1.687  51.346  1.00  0.00     0.128 C 
HETATM    9  O1  UNL     1      22.585   1.507  50.542  1.00  0.00    -0.346 OA
HETATM   10  C18 UNL     1      21.691   0.399  50.742  1.00  0.00     0.187 C 
HETATM   11  H8  UNL     1      23.867  -0.566  53.900  1.00  0.00     0.159 HD
ENDROOT
BRANCH   5  12
HETATM   12  C8  UNL     1      26.156   0.853  53.991  1.00  0.00     0.101 C 
BRANCH  12  13
HETATM   13  C9  UNL     1      27.106  -0.240  53.613  1.00  0.00    -0.046 A 
HETATM   14  C10 UNL     1      26.670  -1.434  53.028  1.00  0.00     0.008 A 
HETATM   15  C11 UNL     1      27.533  -2.456  52.667  1.00  0.00     0.001 A 
HETATM   16  C12 UNL     1      28.874  -2.228  52.919  1.00  0.00     0.001 A 
HETATM   17  C13 UNL     1      29.346  -1.062  53.496  1.00  0.00     0.007 A 
HETATM   18  C14 UNL     1      28.450  -0.065  53.843  1.00  0.00    -0.055 A 
HETATM   19  C15 UNL     1      29.044   1.142  54.457  1.00  0.00     0.049 C 
ENDBRANCH  12  13
ENDBRANCH   5  12
BRANCH   1  20
HETATM   20  C3  UNL     1      19.758   0.181  52.216  1.00  0.00    -0.008 C 
HETATM   21  C2  UNL     1      19.253  -0.664  53.102  1.00  0.00    -0.016 C 
HETATM   22  C1  UNL     1      17.821  -0.994  53.116  1.00  0.00     0.037 C 
HETATM   23 BR1  UNL     1      18.469   0.905  50.993  1.00  0.00    -0.056 Br
ENDBRANCH   1  20
TORSDOF 3
ENDMDL
MODEL 3
REMARK VINA RESULT:      -8.1      1.480      2.078
REMARK  3 active torsions:
REMARK  status: ('A' for Active; 'I' for Inactive)
REMARK    1  A    between atoms: C3_3  and  C4_5 
REMARK    2  A    between atoms: C7_9  and  C8_10 
REMARK    3  A    between atoms: C8_10  and  C9_11 
ROOT
HETATM    1  C4  UNL     1      20.573   0.407  51.884  1.00  0.00     0.068 C 
HETATM    2  C5  UNL     1      21.609   1.129  51.058  1.00  0.00     0.132 C 
HETATM    3  N1  UNL     1      22.932   1.017  51.598  1.00  0.00    -0.385 N 
HETATM    4  C6  UNL     1      23.466   0.368  52.741  1.00  0.00     0.089 C 
HETATM    5  C7  UNL     1      24.742   0.103  53.042  1.00  0.00     0.069 C 
HETATM    6  N2  UNL     1      24.679  -0.545  54.278  1.00  0.00    -0.245 NA
HETATM    7  C16 UNL     1      23.465  -0.841  54.565  1.00  0.00     0.124 C 
HETATM    8  C17 UNL     1      22.610  -0.138  53.837  1.00  0.00     0.128 C 
HETATM    9  O1  UNL     1      21.257   0.041  54.092  1.00  0.00    -0.346 OA
HETATM   10  C18 UNL     1      20.459   0.934  53.295  1.00  0.00     0.187 C 
HETATM   11  H8  UNL     1      23.659   1.512  51.044  1.00  0.00     0.159 HD
ENDROOT
BRANCH   5  12
HETATM   12  C8  UNL     1      25.867   0.465  52.180  1.00  0.00     0.101 C 
BRANCH  12  13
HETATM   13  C9  UNL     1      27.196   0.185  52.809  1.00  0.00    -0.046 A 
HETATM   14  C10 UNL     1      27.959   1.191  53.412  1.00  0.00     0.008 A 
HETATM   15  C11 UNL     1      29.189   0.951  54.003  1.00  0.00     0.001 A 
HETATM   16  C12 UNL     1      29.631  -0.359  53.964  1.00  0.00     0.001 A 
HETATM   17  C13 UNL     1      28.907  -1.381  53.376  1.00  0.00     0.007 A 
HETATM   18  C14 UNL     1      27.681  -1.100  52.796  1.00  0.00    -0.055 A 
HETATM   19  C15 UNL     1      26.983  -2.254  52.189  1.00  0.00     0.049 C 
ENDBRANCH  12  13
ENDBRANCH   5  12
BRANCH   1  20
HETATM   20  C3  UNL     1      19.265   0.538  51.204  1.00  0.00    -0.008 C 
HETATM   21  C2  UNL     1      18.199  -0.181  51.519  1.00  0.00    -0.016 C 
HETATM   22  C1  UNL     1      16.922  -0.008  50.813  1.00  0.00     0.037 C 
HETATM   23 BR1  UNL     1      18.978   1.789  49.777  1.00  0.00    -0.056 Br
ENDBRANCH   1  20
TORSDOF 3
ENDMDL
MODEL 4
REMARK VINA RESULT:      -7.8      3.670      7.122
REMARK  3 active torsions:
REMARK  status: ('A' for Active; 'I' for Inactive)
REMARK    1  A    between atoms: C3_3  and  C4_5 
REMARK    2  A    between atoms: C7_9  and  C8_10 
REMARK    3  A    between atoms: C8_10  and  C9_11 
ROOT
HETATM    1  C4  UNL     1      26.496   0.463  53.388  1.00  0.00     0.068 C 
HETATM    2  C5  UNL     1      26.149   1.492  52.341  1.00  0.00     0.132 C 
HETATM    3  N1  UNL     1      24.736   1.643  52.153  1.00  0.00    -0.385 N 
HETATM    4  C6  UNL     1      23.602   1.031  52.747  1.00  0.00     0.089 C 
HETATM    5  C7  UNL     1      22.318   1.402  52.694  1.00  0.00     0.069 C 
HETATM    6  N2  UNL     1      21.649   0.440  53.454  1.00  0.00    -0.245 NA
HETATM    7  C16 UNL     1      22.490  -0.293  54.086  1.00  0.00     0.124 C 
HETATM    8  C17 UNL     1      23.704  -0.197  53.566  1.00  0.00     0.128 C 
HETATM    9  O1  UNL     1      24.767  -1.065  53.776  1.00  0.00    -0.346 OA
HETATM   10  C18 UNL     1      26.001  -0.924  53.052  1.00  0.00     0.187 C 
HETATM   11  H8  UNL     1      24.478   2.346  51.431  1.00  0.00     0.159 HD
ENDROOT
BRANCH   5  12
HETATM   12  C8  UNL     1      21.847   2.579  51.965  1.00  0.00     0.101 C 
BRANCH  12  13
HETATM   13  C9  UNL     1      22.012   2.450  50.483  1.00  0.00    -0.046 A 
HETATM   14  C10 UNL     1      21.488   1.367  49.769  1.00  0.00     0.008 A 
HETATM   15  C11 UNL     1      21.626   1.232  48.397  1.00  0.00     0.001 A 
HETATM   16  C12 UNL     1      22.321   2.244  47.759  1.00  0.00     0.001 A 
HETATM   17  C13 UNL     1      22.855   3.330  48.429  1.00  0.00     0.007 A 
HETATM   18  C14 UNL     1      22.695   3.428  49.801  1.00  0.00    -0.055 A 
HETATM   19  C15 UNL     1      23.303   4.620  50.431  1.00  0.00     0.049 C 
ENDBRANCH  12  13
ENDBRANCH   5  12
BRANCH   1  20
HETATM   20  C3  UNL     1      27.968   0.435  53.541  1.00  0.00    -0.008 C 
HETATM   21  C2  UNL     1      28.692  -0.672  53.471  1.00  0.00    -0.016 C 
HETATM   22  C1  UNL     1      30.153  -0.642  53.627  1.00  0.00     0.037 C 
HETATM   23 BR1  UNL     1      28.991   2.028  53.855  1.00  0.00    -0.056 Br
ENDBRANCH   1  20
TORSDOF 3
ENDMDL
MODEL 5
REMARK VINA RESULT:      -7.7      5.249      6.547
REMARK  3 active torsions:
REMARK  status: ('A' for Active; 'I' for Inactive)
REMARK    1  A    between atoms: C3_3  and  C4_5 
REMARK    2  A    between atoms: C7_9  and  C8_10 
REMARK    3  A    between atoms: C8_10  and  C9_11 
ROOT
HETATM    1  C4  UNL     1      24.666   5.568  49.310  1.00  0.00     0.068 C 
HETATM    2  C5  UNL     1      25.894   4.705  49.157  1.00  0.00     0.132 C 
HETATM    3  N1  UNL     1      25.958   3.648  50.122  1.00  0.00    -0.385 N 
HETATM    4  C6  UNL     1      25.107   3.244  51.184  1.00  0.00     0.089 C 
HETATM    5  C7  UNL     1      25.110   2.102  51.880  1.00  0.00     0.069 C 
HETATM    6  N2  UNL     1      24.063   2.250  52.792  1.00  0.00    -0.245 NA
HETATM    7  C16 UNL     1      23.363   3.285  52.503  1.00  0.00     0.124 C 
HETATM    8  C17 UNL     1      24.021   4.107  51.699  1.00  0.00     0.128 C 
HETATM    9  O1  UNL     1      23.717   5.437  51.445  1.00  0.00    -0.346 OA
HETATM   10  C18 UNL     1      24.584   6.262  50.649  1.00  0.00     0.187 C 
HETATM   11  H8  UNL     1      26.800   3.045  50.034  1.00  0.00     0.159 HD
ENDROOT
BRANCH   5  12
HETATM   12  C8  UNL     1      26.057   1.013  51.641  1.00  0.00     0.101 C 
BRANCH  12  13
HETATM   13  C9  UNL     1      27.202   1.015  52.604  1.00  0.00    -0.046 A 
HETATM   14  C10 UNL     1      27.837   2.197  53.001  1.00  0.00     0.008 A 
HETATM   15  C11 UNL     1      28.896   2.220  53.894  1.00  0.00     0.001 A 
HETATM   16  C12 UNL     1      29.299   0.990  54.382  1.00  0.00     0.001 A 
HETATM   17  C13 UNL     1      28.698  -0.201  54.014  1.00  0.00     0.007 A 
HETATM   18  C14 UNL     1      27.642  -0.181  53.118  1.00  0.00    -0.055 A 
HETATM   19  C15 UNL     1      27.067  -1.501  52.781  1.00  0.00     0.049 C 
ENDBRANCH  12  13
ENDBRANCH   5  12
BRANCH   1  20
HETATM   20  C3  UNL     1      24.674   6.582  48.231  1.00  0.00    -0.008 C 
HETATM   21  C2  UNL     1      25.741   7.295  47.902  1.00  0.00    -0.016 C 
HETATM   22  C1  UNL     1      25.694   8.286  46.819  1.00  0.00     0.037 C 
HETATM   23 BR1  UNL     1      23.114   6.966  47.182  1.00  0.00    -0.056 Br
ENDBRANCH   1  20
TORSDOF 3
ENDMDL
MODEL 6
REMARK VINA RESULT:      -7.6      3.340      4.143
REMARK  3 active torsions:
REMARK  status: ('A' for Active; 'I' for Inactive)
REMARK    1  A    between atoms: C3_3  and  C4_5 
REMARK    2  A    between atoms: C7_9  and  C8_10 
REMARK    3  A    between atoms: C8_10  and  C9_11 
ROOT
HETATM    1  C4  UNL     1      22.299   3.259  50.981  1.00  0.00     0.068 C 
HETATM    2  C5  UNL     1      22.383   2.224  52.075  1.00  0.00     0.132 C 
HETATM    3  N1  UNL     1      23.727   1.815  52.355  1.00  0.00    -0.385 N 
HETATM    4  C6  UNL     1      24.990   2.184  51.823  1.00  0.00     0.089 C 
HETATM    5  C7  UNL     1      26.213   1.941  52.305  1.00  0.00     0.069 C 
HETATM    6  N2  UNL     1      27.075   2.531  51.377  1.00  0.00    -0.245 NA
HETATM    7  C16 UNL     1      26.413   3.253  50.550  1.00  0.00     0.124 C 
HETATM    8  C17 UNL     1      25.124   2.944  50.560  1.00  0.00     0.128 C 
HETATM    9  O1  UNL     1      24.185   3.280  49.595  1.00  0.00    -0.346 OA
HETATM   10  C18 UNL     1      22.839   2.775  49.656  1.00  0.00     0.187 C 
HETATM   11  H8  UNL     1      23.804   1.099  53.105  1.00  0.00     0.159 HD
ENDROOT
BRANCH   5  12
HETATM   12  C8  UNL     1      26.461   1.206  53.545  1.00  0.00     0.101 C 
BRANCH  12  13
HETATM   13  C9  UNL     1      27.220  -0.066  53.327  1.00  0.00    -0.046 A 
HETATM   14  C10 UNL     1      26.622  -1.201  52.769  1.00  0.00     0.008 A 
HETATM   15  C11 UNL     1      27.308  -2.385  52.555  1.00  0.00     0.001 A 
HETATM   16  C12 UNL     1      28.640  -2.385  52.929  1.00  0.00     0.001 A 
HETATM   17  C13 UNL     1      29.267  -1.285  53.485  1.00  0.00     0.007 A 
HETATM   18  C14 UNL     1      28.546  -0.119  53.683  1.00  0.00    -0.055 A 
HETATM   19  C15 UNL     1      29.298   1.002  54.286  1.00  0.00     0.049 C 
ENDBRANCH  12  13
ENDBRANCH   5  12
BRANCH   1  20
HETATM   20  C3  UNL     1      20.880   3.648  50.819  1.00  0.00    -0.008 C 
HETATM   21  C2  UNL     1      20.486   4.729  50.162  1.00  0.00    -0.016 C 
HETATM   22  C1  UNL     1      19.062   5.067  50.029  1.00  0.00     0.037 C 
HETATM   23 BR1  UNL     1      19.446   2.605  51.554  1.00  0.00    -0.056 Br
ENDBRANCH   1  20
TORSDOF 3
ENDMDL
MODEL 7
REMARK VINA RESULT:      -7.5      3.282      7.885
REMARK  3 active torsions:
REMARK  status: ('A' for Active; 'I' for Inactive)
REMARK    1  A    between atoms: C3_3  and  C4_5 
REMARK    2  A    between atoms: C7_9  and  C8_10 
REMARK    3  A    between atoms: C8_10  and  C9_11 
ROOT
HETATM    1  C4  UNL     1      26.157   0.762  52.258  1.00  0.00     0.068 C 
HETATM    2  C5  UNL     1      25.145   0.887  53.370  1.00  0.00     0.132 C 
HETATM    3  N1  UNL     1      24.038   1.729  53.025  1.00  0.00    -0.385 N 
HETATM    4  C6  UNL     1      23.697   2.463  51.859  1.00  0.00     0.089 C 
HETATM    5  C7  UNL     1      22.529   3.023  51.526  1.00  0.00     0.069 C 
HETATM    6  N2  UNL     1      22.769   3.609  50.281  1.00  0.00    -0.245 NA
HETATM    7  C16 UNL     1      23.903   3.229  49.820  1.00  0.00     0.124 C 
HETATM    8  C17 UNL     1      24.670   2.724  50.775  1.00  0.00     0.128 C 
HETATM    9  O1  UNL     1      26.041   2.516  50.714  1.00  0.00    -0.346 OA
HETATM   10  C18 UNL     1      26.782   2.080  51.866  1.00  0.00     0.187 C 
HETATM   11  H8  UNL     1      23.332   1.831  53.781  1.00  0.00     0.159 HD
ENDROOT
BRANCH   5  12
HETATM   12  C8  UNL     1      21.336   2.965  52.369  1.00  0.00     0.101 C 
BRANCH  12  13
HETATM   13  C9  UNL     1      20.346   1.940  51.909  1.00  0.00    -0.046 A 
HETATM   14  C10 UNL     1      19.654   2.067  50.700  1.00  0.00     0.008 A 
HETATM   15  C11 UNL     1      18.738   1.128  50.254  1.00  0.00     0.001 A 
HETATM   16  C12 UNL     1      18.542   0.038  51.084  1.00  0.00     0.001 A 
HETATM   17  C13 UNL     1      19.205  -0.123  52.287  1.00  0.00     0.007 A 
HETATM   18  C14 UNL     1      20.113   0.839  52.697  1.00  0.00    -0.055 A 
HETATM   19  C15 UNL     1      20.770   0.584  53.997  1.00  0.00     0.049 C 
ENDBRANCH  12  13
ENDBRANCH   5  12
BRANCH   1  20
HETATM   20  C3  UNL     1      27.217  -0.172  52.700  1.00  0.00    -0.008 C 
HETATM   21  C2  UNL     1      28.342   0.216  53.282  1.00  0.00    -0.016 C 
HETATM   22  C1  UNL     1      29.360  -0.755  53.704  1.00  0.00     0.037 C 
HETATM   23 BR1  UNL     1      27.062  -2.071  52.472  1.00  0.00    -0.056 Br
ENDBRANCH   1  20
TORSDOF 3
ENDMDL
MODEL 8
REMARK VINA RESULT:      -7.5      5.747      7.383
REMARK  3 active torsions:
REMARK  status: ('A' for Active; 'I' for Inactive)
REMARK    1  A    between atoms: C3_3  and  C4_5 
REMARK    2  A    between atoms: C7_9  and  C8_10 
REMARK    3  A    between atoms: C8_10  and  C9_11 
ROOT
HETATM    1  C4  UNL     1      25.065   5.633  48.790  1.00  0.00     0.068 C 
HETATM    2  C5  UNL     1      25.309   5.652  50.279  1.00  0.00     0.132 C 
HETATM    3  N1  UNL     1      24.612   4.610  50.973  1.00  0.00    -0.385 N 
HETATM    4  C6  UNL     1      23.747   3.567  50.552  1.00  0.00     0.089 C 
HETATM    5  C7  UNL     1      23.335   2.488  51.226  1.00  0.00     0.069 C 
HETATM    6  N2  UNL     1      22.504   1.815  50.327  1.00  0.00    -0.245 NA
HETATM    7  C16 UNL     1      22.604   2.328  49.157  1.00  0.00     0.124 C 
HETATM    8  C17 UNL     1      23.139   3.539  49.203  1.00  0.00     0.128 C 
HETATM    9  O1  UNL     1      23.105   4.499  48.200  1.00  0.00    -0.346 OA
HETATM   10  C18 UNL     1      23.613   5.826  48.419  1.00  0.00     0.187 C 
HETATM   11  H8  UNL     1      24.766   4.610  52.001  1.00  0.00     0.159 HD
ENDROOT
BRANCH   5  12
HETATM   12  C8  UNL     1      23.739   2.191  52.600  1.00  0.00     0.101 C 
BRANCH  12  13
HETATM   13  C9  UNL     1      24.811   1.149  52.680  1.00  0.00    -0.046 A 
HETATM   14  C10 UNL     1      26.102   1.373  52.191  1.00  0.00     0.008 A 
HETATM   15  C11 UNL     1      27.109   0.423  52.260  1.00  0.00     0.001 A 
HETATM   16  C12 UNL     1      26.762  -0.780  52.848  1.00  0.00     0.001 A 
HETATM   17  C13 UNL     1      25.496  -1.041  53.342  1.00  0.00     0.007 A 
HETATM   18  C14 UNL     1      24.518  -0.065  53.254  1.00  0.00    -0.055 A 
HETATM   19  C15 UNL     1      23.195  -0.435  53.804  1.00  0.00     0.049 C 
ENDBRANCH  12  13
ENDBRANCH   5  12
BRANCH   1  20
HETATM   20  C3  UNL     1      25.876   6.707  48.173  1.00  0.00    -0.008 C 
HETATM   21  C2  UNL     1      25.358   7.723  47.500  1.00  0.00    -0.016 C 
HETATM   22  C1  UNL     1      26.211   8.764  46.910  1.00  0.00     0.037 C 
HETATM   23 BR1  UNL     1      27.791   6.735  48.294  1.00  0.00    -0.056 Br
ENDBRANCH   1  20
TORSDOF 3
ENDMDL
MODEL 9
REMARK VINA RESULT:      -7.4      4.686      6.185
REMARK  3 active torsions:
REMARK  status: ('A' for Active; 'I' for Inactive)
REMARK    1  A    between atoms: C3_3  and  C4_5 
REMARK    2  A    between atoms: C7_9  and  C8_10 
REMARK    3  A    between atoms: C8_10  and  C9_11 
ROOT
HETATM    1  C4  UNL     1      23.068   0.958  52.377  1.00  0.00     0.068 C 
HETATM    2  C5  UNL     1      22.446   2.160  51.712  1.00  0.00     0.132 C 
HETATM    3  N1  UNL     1      23.415   3.031  51.115  1.00  0.00    -0.385 N 
HETATM    4  C6  UNL     1      24.830   2.995  51.016  1.00  0.00     0.089 C 
HETATM    5  C7  UNL     1      25.641   3.714  50.232  1.00  0.00     0.069 C 
HETATM    6  N2  UNL     1      26.923   3.263  50.554  1.00  0.00    -0.245 NA
HETATM    7  C16 UNL     1      26.856   2.215  51.289  1.00  0.00     0.124 C 
HETATM    8  C17 UNL     1      25.657   2.084  51.838  1.00  0.00     0.128 C 
HETATM    9  O1  UNL     1      25.323   1.275  52.915  1.00  0.00    -0.346 OA
HETATM   10  C18 UNL     1      24.011   1.316  53.502  1.00  0.00     0.187 C 
HETATM   11  H8  UNL     1      23.005   3.869  50.655  1.00  0.00     0.159 HD
ENDROOT
BRANCH   5  12
HETATM   12  C8  UNL     1      25.164   4.722  49.285  1.00  0.00     0.101 C 
BRANCH  12  13
HETATM   13  C9  UNL     1      26.020   5.949  49.261  1.00  0.00    -0.046 A 
HETATM   14  C10 UNL     1      27.164   6.041  48.462  1.00  0.00     0.008 A 
HETATM   15  C11 UNL     1      27.967   7.169  48.422  1.00  0.00     0.001 A 
HETATM   16  C12 UNL     1      27.569   8.220  49.229  1.00  0.00     0.001 A 
HETATM   17  C13 UNL     1      26.446   8.168  50.034  1.00  0.00     0.007 A 
HETATM   18  C14 UNL     1      25.669   7.021  50.046  1.00  0.00    -0.055 A 
HETATM   19  C15 UNL     1      24.491   7.057  50.940  1.00  0.00     0.049 C 
ENDBRANCH  12  13
ENDBRANCH   5  12
BRANCH   1  20
HETATM   20  C3  UNL     1      21.979   0.103  52.902  1.00  0.00    -0.008 C 
HETATM   21  C2  UNL     1      22.152  -0.808  53.848  1.00  0.00    -0.016 C 
HETATM   22  C1  UNL     1      21.034  -1.626  54.335  1.00  0.00     0.037 C 
HETATM   23 BR1  UNL     1      20.177   0.238  52.257  1.00  0.00    -0.056 Br
ENDBRANCH   1  20
TORSDOF 3
ENDMDL
