MODEL 1
REMARK VINA RESULT:      -7.5      0.000      0.000
REMARK  7 active torsions:
REMARK  status: ('A' for Active; 'I' for Inactive)
REMARK    1  A    between atoms: N1_2  and  C3_4 
REMARK    2  A    between atoms: C3_4  and  C4_5 
REMARK    3  A    between atoms: C5_6  and  C6_7 
REMARK       I    between atoms: C6_7  and  N2_9 
REMARK    4  A    between atoms: C13_19  and  N5_20 
REMARK    5  A    between atoms: N5_20  and  C14_21 
REMARK    6  A    between atoms: C14_21  and  C15_22 
REMARK    7  A    between atoms: C15_22  and  O2_23 
ROOT
HETATM    1  C6  UNL     1      26.653   4.810  49.195  1.00  0.00     0.243 C 
HETATM    2  O1  UNL     1      27.668   4.118  48.857  1.00  0.00    -0.268 OA
HETATM    3  N2  UNL     1      25.891   4.007  50.040  1.00  0.00    -0.344 N 
HETATM    4  C7  UNL     1      26.402   2.698  50.281  1.00  0.00     0.131 C 
HETATM    5  C8  UNL     1      26.363   2.432  51.801  1.00  0.00     0.060 C 
HETATM    6  C9  UNL     1      24.982   2.079  52.169  1.00  0.00    -0.025 A 
HETATM    7  C10 UNL     1      24.216   3.095  51.537  1.00  0.00     0.010 A 
HETATM    8  S1  UNL     1      22.516   2.664  51.968  1.00  0.00    -0.072 SA
HETATM    9  C11 UNL     1      22.893   1.244  52.907  1.00  0.00     0.114 A 
HETATM   10  N3  UNL     1      22.067   0.418  53.543  1.00  0.00    -0.234 NA
HETATM   11  C12 UNL     1      22.561  -0.627  54.224  1.00  0.00     0.236 A 
HETATM   12  N4  UNL     1      23.886  -0.731  54.192  1.00  0.00    -0.224 NA
HETATM   13  C13 UNL     1      24.754   0.072  53.569  1.00  0.00     0.138 A 
HETATM   14  C16 UNL     1      24.259   1.146  52.866  1.00  0.00     0.053 A 
HETATM   15  C17 UNL     1      24.668   4.224  50.737  1.00  0.00     0.172 C 
ENDROOT
BRANCH   1  16
HETATM   16  C5  UNL     1      26.364   6.165  48.774  1.00  0.00     0.072 C 
HETATM   17  C4  UNL     1      27.348   6.961  48.452  1.00  0.00     0.008 C 
BRANCH  17  18
HETATM   18  C3  UNL     1      27.446   8.359  47.990  1.00  0.00     0.299 C 
BRANCH  18  19
HETATM   19  N1  UNL     1      28.177   9.222  48.884  1.00  0.00     0.083 N 
HETATM   20  C1  UNL     1      29.556   8.855  49.018  1.00  0.00     0.309 C 
HETATM   21  C2  UNL     1      27.504   9.391  50.150  1.00  0.00     0.309 C 
ENDBRANCH  18  19
ENDBRANCH  17  18
ENDBRANCH   1  16
BRANCH  13  22
HETATM   22  N5  UNL     1      26.140  -0.286  53.754  1.00  0.00    -0.372 N 
HETATM   23  H16 UNL     1      26.768  -0.869  53.210  1.00  0.00     0.161 HD
BRANCH  22  24
HETATM   24  C14 UNL     1      26.901   0.208  54.852  1.00  0.00     0.147 C 
BRANCH  24  25
HETATM   25  C15 UNL     1      28.413   0.122  54.653  1.00  0.00     0.183 C 
BRANCH  25  26
HETATM   26  O2  UNL     1      28.911   1.391  55.015  1.00  0.00    -0.399 OA
HETATM   27  H21 UNL     1      28.347   2.091  54.651  1.00  0.00     0.209 HD
ENDBRANCH  25  26
ENDBRANCH  24  25
ENDBRANCH  22  24
ENDBRANCH  13  22
TORSDOF 7
ENDMDL
MODEL 2
REMARK VINA RESULT:      -7.4      2.547      3.713
REMARK  7 active torsions:
REMARK  status: ('A' for Active; 'I' for Inactive)
REMARK    1  A    between atoms: N1_2  and  C3_4 
REMARK    2  A    between atoms: C3_4  and  C4_5 
REMARK    3  A    between atoms: C5_6  and  C6_7 
REMARK       I    between atoms: C6_7  and  N2_9 
REMARK    4  A    between atoms: C13_19  and  N5_20 
REMARK    5  A    between atoms: N5_20  and  C14_21 
REMARK    6  A    between atoms: C14_21  and  C15_22 
REMARK    7  A    between atoms: C15_22  and  O2_23 
ROOT
HETATM    1  C6  UNL     1      26.006   4.318  49.600  1.00  0.00     0.243 C 
HETATM    2  O1  UNL     1      24.875   4.883  49.436  1.00  0.00    -0.268 OA
HETATM    3  N2  UNL     1      25.821   3.337  50.571  1.00  0.00    -0.344 N 
HETATM    4  C7  UNL     1      24.505   3.235  51.109  1.00  0.00     0.131 C 
HETATM    5  C8  UNL     1      24.090   1.748  51.102  1.00  0.00     0.060 C 
HETATM    6  C9  UNL     1      24.729   1.089  52.252  1.00  0.00    -0.025 A 
HETATM    7  C10 UNL     1      26.079   1.521  52.155  1.00  0.00     0.010 A 
HETATM    8  S1  UNL     1      26.871   0.731  53.574  1.00  0.00    -0.072 SA
HETATM    9  C11 UNL     1      25.452  -0.081  54.180  1.00  0.00     0.114 A 
HETATM   10  N3  UNL     1      25.330  -0.871  55.243  1.00  0.00    -0.234 NA
HETATM   11  C12 UNL     1      24.139  -1.410  55.541  1.00  0.00     0.236 A 
HETATM   12  N4  UNL     1      23.160  -1.084  54.703  1.00  0.00    -0.224 NA
HETATM   13  C13 UNL     1      23.233  -0.297  53.625  1.00  0.00     0.138 A 
HETATM   14  C16 UNL     1      24.451   0.263  53.311  1.00  0.00     0.053 A 
HETATM   15  C17 UNL     1      26.699   2.384  51.161  1.00  0.00     0.172 C 
ENDROOT
BRANCH   1  16
HETATM   16  C5  UNL     1      27.231   4.644  48.902  1.00  0.00     0.072 C 
HETATM   17  C4  UNL     1      27.459   5.881  48.546  1.00  0.00     0.008 C 
BRANCH  17  18
HETATM   18  C3  UNL     1      28.556   6.576  47.846  1.00  0.00     0.299 C 
BRANCH  18  19
HETATM   19  N1  UNL     1      28.625   7.989  48.123  1.00  0.00     0.083 N 
HETATM   20  C1  UNL     1      28.330   8.801  46.979  1.00  0.00     0.309 C 
HETATM   21  C2  UNL     1      29.855   8.356  48.783  1.00  0.00     0.309 C 
ENDBRANCH  18  19
ENDBRANCH  17  18
ENDBRANCH   1  16
BRANCH  13  22
HETATM   22  N5  UNL     1      21.997  -0.165  52.893  1.00  0.00    -0.372 N 
HETATM   23  H16 UNL     1      21.733  -0.439  51.952  1.00  0.00     0.161 HD
BRANCH  22  24
HETATM   24  C14 UNL     1      20.841   0.429  53.477  1.00  0.00     0.147 C 
BRANCH  24  25
HETATM   25  C15 UNL     1      19.624  -0.492  53.526  1.00  0.00     0.183 C 
BRANCH  25  26
HETATM   26  O2  UNL     1      20.041  -1.626  54.256  1.00  0.00    -0.399 OA
HETATM   27  H21 UNL     1      19.292  -2.013  54.734  1.00  0.00     0.209 HD
ENDBRANCH  25  26
ENDBRANCH  24  25
ENDBRANCH  22  24
ENDBRANCH  13  22
TORSDOF 7
ENDMDL
MODEL 3
REMARK VINA RESULT:      -7.3      3.760      8.711
REMARK  7 active torsions:
REMARK  status: ('A' for Active; 'I' for Inactive)
REMARK    1  A    between atoms: N1_2  and  C3_4 
REMARK    2  A    between atoms: C3_4  and  C4_5 
REMARK    3  A    between atoms: C5_6  and  C6_7 
REMARK       I    between atoms: C6_7  and  N2_9 
REMARK    4  A    between atoms: C13_19  and  N5_20 
REMARK    5  A    between atoms: N5_20  and  C14_21 
REMARK    6  A    between atoms: C14_21  and  C15_22 
REMARK    7  A    between atoms: C15_22  and  O2_23 
ROOT
HETATM    1  C6  UNL     1      20.409   0.363  52.180  1.00  0.00     0.243 C 
HETATM    2  O1  UNL     1      20.295   0.853  51.008  1.00  0.00    -0.268 OA
HETATM    3  N2  UNL     1      21.763   0.419  52.502  1.00  0.00    -0.344 N 
HETATM    4  C7  UNL     1      22.619   0.959  51.498  1.00  0.00     0.131 C 
HETATM    5  C8  UNL     1      23.547   2.001  52.158  1.00  0.00     0.060 C 
HETATM    6  C9  UNL     1      24.628   1.279  52.847  1.00  0.00    -0.025 A 
HETATM    7  C10 UNL     1      23.929   0.284  53.581  1.00  0.00     0.010 A 
HETATM    8  S1  UNL     1      25.249  -0.621  54.419  1.00  0.00    -0.072 SA
HETATM    9  C11 UNL     1      26.577   0.315  53.787  1.00  0.00     0.114 A 
HETATM   10  N3  UNL     1      27.880   0.179  54.015  1.00  0.00    -0.234 NA
HETATM   11  C12 UNL     1      28.751   1.014  53.432  1.00  0.00     0.236 A 
HETATM   12  N4  UNL     1      28.195   1.936  52.651  1.00  0.00    -0.224 NA
HETATM   13  C13 UNL     1      26.896   2.112  52.392  1.00  0.00     0.138 A 
HETATM   14  C16 UNL     1      25.993   1.259  52.984  1.00  0.00     0.053 A 
HETATM   15  C17 UNL     1      22.496   0.037  53.661  1.00  0.00     0.172 C 
ENDROOT
BRANCH   1  16
HETATM   16  C5  UNL     1      19.330  -0.145  53.000  1.00  0.00     0.072 C 
HETATM   17  C4  UNL     1      18.437  -0.938  52.469  1.00  0.00     0.008 C 
BRANCH  17  18
HETATM   18  C3  UNL     1      17.236  -1.633  52.970  1.00  0.00     0.299 C 
BRANCH  18  19
HETATM   19  N1  UNL     1      16.024  -1.282  52.274  1.00  0.00     0.083 N 
HETATM   20  C1  UNL     1      15.455  -0.046  52.723  1.00  0.00     0.309 C 
HETATM   21  C2  UNL     1      15.076  -2.371  52.245  1.00  0.00     0.309 C 
ENDBRANCH  18  19
ENDBRANCH  17  18
ENDBRANCH   1  16
BRANCH  13  22
HETATM   22  N5  UNL     1      26.603   3.230  51.527  1.00  0.00    -0.372 N 
HETATM   23  H16 UNL     1      26.383   4.201  51.725  1.00  0.00     0.161 HD
BRANCH  22  24
HETATM   24  C14 UNL     1      26.599   3.099  50.109  1.00  0.00     0.147 C 
BRANCH  24  25
HETATM   25  C15 UNL     1      26.575   4.429  49.359  1.00  0.00     0.183 C 
BRANCH  25  26
HETATM   26  O2  UNL     1      27.908   4.893  49.379  1.00  0.00    -0.399 OA
HETATM   27  H21 UNL     1      28.299   4.832  48.494  1.00  0.00     0.209 HD
ENDBRANCH  25  26
ENDBRANCH  24  25
ENDBRANCH  22  24
ENDBRANCH  13  22
TORSDOF 7
ENDMDL
MODEL 4
REMARK VINA RESULT:      -7.1      2.135      2.419
REMARK  7 active torsions:
REMARK  status: ('A' for Active; 'I' for Inactive)
REMARK    1  A    between atoms: N1_2  and  C3_4 
REMARK    2  A    between atoms: C3_4  and  C4_5 
REMARK    3  A    between atoms: C5_6  and  C6_7 
REMARK       I    between atoms: C6_7  and  N2_9 
REMARK    4  A    between atoms: C13_19  and  N5_20 
REMARK    5  A    between atoms: N5_20  and  C14_21 
REMARK    6  A    between atoms: C14_21  and  C15_22 
REMARK    7  A    between atoms: C15_22  and  O2_23 
ROOT
HETATM    1  C6  UNL     1      26.687   5.040  49.145  1.00  0.00     0.243 C 
HETATM    2  O1  UNL     1      27.647   4.347  48.674  1.00  0.00    -0.268 OA
HETATM    3  N2  UNL     1      25.969   4.197  49.991  1.00  0.00    -0.344 N 
HETATM    4  C7  UNL     1      26.453   2.860  50.092  1.00  0.00     0.131 C 
HETATM    5  C8  UNL     1      26.531   2.482  51.587  1.00  0.00     0.060 C 
HETATM    6  C9  UNL     1      25.173   2.141  52.044  1.00  0.00    -0.025 A 
HETATM    7  C10 UNL     1      24.393   3.223  51.554  1.00  0.00     0.010 A 
HETATM    8  S1  UNL     1      22.720   2.808  52.094  1.00  0.00    -0.072 SA
HETATM    9  C11 UNL     1      23.124   1.312  52.893  1.00  0.00     0.114 A 
HETATM   10  N3  UNL     1      22.325   0.464  53.534  1.00  0.00    -0.234 NA
HETATM   11  C12 UNL     1      22.837  -0.642  54.094  1.00  0.00     0.236 A 
HETATM   12  N4  UNL     1      24.151  -0.780  53.943  1.00  0.00    -0.224 NA
HETATM   13  C13 UNL     1      24.993   0.042  53.309  1.00  0.00     0.138 A 
HETATM   14  C16 UNL     1      24.478   1.179  52.729  1.00  0.00     0.053 A 
HETATM   15  C17 UNL     1      24.816   4.396  50.802  1.00  0.00     0.172 C 
ENDROOT
BRANCH   1  16
HETATM   16  C5  UNL     1      26.411   6.430  48.849  1.00  0.00     0.072 C 
HETATM   17  C4  UNL     1      25.251   6.763  48.350  1.00  0.00     0.008 C 
BRANCH  17  18
HETATM   18  C3  UNL     1      24.624   8.032  47.934  1.00  0.00     0.299 C 
BRANCH  18  19
HETATM   19  N1  UNL     1      23.342   8.280  48.544  1.00  0.00     0.083 N 
HETATM   20  C1  UNL     1      22.770   9.537  48.160  1.00  0.00     0.309 C 
HETATM   21  C2  UNL     1      23.368   8.075  49.972  1.00  0.00     0.309 C 
ENDBRANCH  18  19
ENDBRANCH  17  18
ENDBRANCH   1  16
BRANCH  13  22
HETATM   22  N5  UNL     1      26.376  -0.367  53.350  1.00  0.00    -0.372 N 
HETATM   23  H16 UNL     1      27.188   0.030  53.810  1.00  0.00     0.161 HD
BRANCH  22  24
HETATM   24  C14 UNL     1      26.830  -1.537  52.675  1.00  0.00     0.147 C 
BRANCH  24  25
HETATM   25  C15 UNL     1      28.271  -1.925  53.001  1.00  0.00     0.183 C 
BRANCH  25  26
HETATM   26  O2  UNL     1      28.313  -3.331  52.894  1.00  0.00    -0.399 OA
HETATM   27  H21 UNL     1      28.286  -3.599  51.962  1.00  0.00     0.209 HD
ENDBRANCH  25  26
ENDBRANCH  24  25
ENDBRANCH  22  24
ENDBRANCH  13  22
TORSDOF 7
ENDMDL
MODEL 5
REMARK VINA RESULT:      -6.9      4.611      7.405
REMARK  7 active torsions:
REMARK  status: ('A' for Active; 'I' for Inactive)
REMARK    1  A    between atoms: N1_2  and  C3_4 
REMARK    2  A    between atoms: C3_4  and  C4_5 
REMARK    3  A    between atoms: C5_6  and  C6_7 
REMARK       I    between atoms: C6_7  and  N2_9 
REMARK    4  A    between atoms: C13_19  and  N5_20 
REMARK    5  A    between atoms: N5_20  and  C14_21 
REMARK    6  A    between atoms: C14_21  and  C15_22 
REMARK    7  A    between atoms: C15_22  and  O2_23 
ROOT
HETATM    1  C6  UNL     1      24.955   1.763  51.829  1.00  0.00     0.243 C 
HETATM    2  O1  UNL     1      24.839   2.760  51.043  1.00  0.00    -0.268 OA
HETATM    3  N2  UNL     1      23.670   1.265  52.029  1.00  0.00    -0.344 N 
HETATM    4  C7  UNL     1      22.622   1.963  51.359  1.00  0.00     0.131 C 
HETATM    5  C8  UNL     1      21.725   0.927  50.648  1.00  0.00     0.060 C 
HETATM    6  C9  UNL     1      20.832   0.328  51.654  1.00  0.00    -0.025 A 
HETATM    7  C10 UNL     1      21.723  -0.008  52.709  1.00  0.00     0.010 A 
HETATM    8  S1  UNL     1      20.635  -0.730  53.958  1.00  0.00    -0.072 SA
HETATM    9  C11 UNL     1      19.148  -0.557  53.065  1.00  0.00     0.114 A 
HETATM   10  N3  UNL     1      17.915  -0.906  53.418  1.00  0.00    -0.234 NA
HETATM   11  C12 UNL     1      16.893  -0.692  52.576  1.00  0.00     0.236 A 
HETATM   12  N4  UNL     1      17.237  -0.128  51.422  1.00  0.00    -0.224 NA
HETATM   13  C13 UNL     1      18.458   0.239  51.023  1.00  0.00     0.138 A 
HETATM   14  C16 UNL     1      19.514   0.026  51.880  1.00  0.00     0.053 A 
HETATM   15  C17 UNL     1      23.165   0.170  52.786  1.00  0.00     0.172 C 
ENDROOT
BRANCH   1  16
HETATM   16  C5  UNL     1      26.190   1.261  52.393  1.00  0.00     0.072 C 
HETATM   17  C4  UNL     1      26.435  -0.022  52.366  1.00  0.00     0.008 C 
BRANCH  17  18
HETATM   18  C3  UNL     1      27.545  -0.879  52.824  1.00  0.00     0.299 C 
BRANCH  18  19
HETATM   19  N1  UNL     1      28.565  -0.173  53.558  1.00  0.00     0.083 N 
HETATM   20  C1  UNL     1      29.863  -0.767  53.431  1.00  0.00     0.309 C 
HETATM   21  C2  UNL     1      28.180   0.073  54.928  1.00  0.00     0.309 C 
ENDBRANCH  18  19
ENDBRANCH  17  18
ENDBRANCH   1  16
BRANCH  13  22
HETATM   22  N5  UNL     1      18.513   0.795  49.692  1.00  0.00    -0.372 N 
HETATM   23  H16 UNL     1      18.732   0.380  48.792  1.00  0.00     0.161 HD
BRANCH  22  24
HETATM   24  C14 UNL     1      18.215   2.165  49.440  1.00  0.00     0.147 C 
BRANCH  24  25
HETATM   25  C15 UNL     1      19.319   2.917  48.701  1.00  0.00     0.183 C 
BRANCH  25  26
HETATM   26  O2  UNL     1      19.289   2.423  47.379  1.00  0.00    -0.399 OA
HETATM   27  H21 UNL     1      19.298   3.156  46.745  1.00  0.00     0.209 HD
ENDBRANCH  25  26
ENDBRANCH  24  25
ENDBRANCH  22  24
ENDBRANCH  13  22
TORSDOF 7
ENDMDL
MODEL 6
REMARK VINA RESULT:      -6.7      2.789      8.402
REMARK  7 active torsions:
REMARK  status: ('A' for Active; 'I' for Inactive)
REMARK    1  A    between atoms: N1_2  and  C3_4 
REMARK    2  A    between atoms: C3_4  and  C4_5 
REMARK    3  A    between atoms: C5_6  and  C6_7 
REMARK       I    between atoms: C6_7  and  N2_9 
REMARK    4  A    between atoms: C13_19  and  N5_20 
REMARK    5  A    between atoms: N5_20  and  C14_21 
REMARK    6  A    between atoms: C14_21  and  C15_22 
REMARK    7  A    between atoms: C15_22  and  O2_23 
ROOT
HETATM    1  C6  UNL     1      24.420   1.826  51.373  1.00  0.00     0.243 C 
HETATM    2  O1  UNL     1      25.443   1.385  51.992  1.00  0.00    -0.268 OA
HETATM    3  N2  UNL     1      24.837   2.956  50.675  1.00  0.00    -0.344 N 
HETATM    4  C7  UNL     1      26.208   3.314  50.834  1.00  0.00     0.131 C 
HETATM    5  C8  UNL     1      26.808   3.580  49.437  1.00  0.00     0.060 C 
HETATM    6  C9  UNL     1      26.393   4.926  49.009  1.00  0.00    -0.025 A 
HETATM    7  C10 UNL     1      24.996   4.925  49.269  1.00  0.00     0.010 A 
HETATM    8  S1  UNL     1      24.477   6.580  48.764  1.00  0.00    -0.072 SA
HETATM    9  C11 UNL     1      26.047   7.147  48.265  1.00  0.00     0.114 A 
HETATM   10  N3  UNL     1      26.389   8.332  47.765  1.00  0.00    -0.234 NA
HETATM   11  C12 UNL     1      27.666   8.573  47.433  1.00  0.00     0.236 A 
HETATM   12  N4  UNL     1      28.494   7.555  47.646  1.00  0.00    -0.224 NA
HETATM   13  C13 UNL     1      28.199   6.351  48.143  1.00  0.00     0.138 A 
HETATM   14  C16 UNL     1      26.892   6.093  48.490  1.00  0.00     0.053 A 
HETATM   15  C17 UNL     1      24.162   3.860  49.806  1.00  0.00     0.172 C 
ENDROOT
BRANCH   1  16
HETATM   16  C5  UNL     1      23.092   1.252  51.402  1.00  0.00     0.072 C 
HETATM   17  C4  UNL     1      22.809   0.329  52.283  1.00  0.00     0.008 C 
BRANCH  17  18
HETATM   18  C3  UNL     1      21.608  -0.463  52.610  1.00  0.00     0.299 C 
BRANCH  18  19
HETATM   19  N1  UNL     1      20.591   0.278  53.312  1.00  0.00     0.083 N 
HETATM   20  C1  UNL     1      20.799   0.314  54.730  1.00  0.00     0.309 C 
HETATM   21  C2  UNL     1      19.259  -0.137  52.940  1.00  0.00     0.309 C 
ENDBRANCH  18  19
ENDBRANCH  17  18
ENDBRANCH   1  16
BRANCH  13  22
HETATM   22  N5  UNL     1      29.318   5.443  48.220  1.00  0.00    -0.372 N 
HETATM   23  H16 UNL     1      29.391   4.482  48.540  1.00  0.00     0.161 HD
BRANCH  22  24
HETATM   24  C14 UNL     1      30.621   5.822  47.788  1.00  0.00     0.147 C 
BRANCH  24  25
HETATM   25  C15 UNL     1      31.647   5.922  48.915  1.00  0.00     0.183 C 
BRANCH  25  26
HETATM   26  O2  UNL     1      30.967   5.505  50.079  1.00  0.00    -0.399 OA
HETATM   27  H21 UNL     1      31.552   4.970  50.637  1.00  0.00     0.209 HD
ENDBRANCH  25  26
ENDBRANCH  24  25
ENDBRANCH  22  24
ENDBRANCH  13  22
TORSDOF 7
ENDMDL
MODEL 7
REMARK VINA RESULT:      -6.6      2.702      4.049
REMARK  7 active torsions:
REMARK  status: ('A' for Active; 'I' for Inactive)
REMARK    1  A    between atoms: N1_2  and  C3_4 
REMARK    2  A    between atoms: C3_4  and  C4_5 
REMARK    3  A    between atoms: C5_6  and  C6_7 
REMARK       I    between atoms: C6_7  and  N2_9 
REMARK    4  A    between atoms: C13_19  and  N5_20 
REMARK    5  A    between atoms: N5_20  and  C14_21 
REMARK    6  A    between atoms: C14_21  and  C15_22 
REMARK    7  A    between atoms: C15_22  and  O2_23 
ROOT
HETATM    1  C6  UNL     1      26.296   5.365  48.986  1.00  0.00     0.243 C 
HETATM    2  O1  UNL     1      25.280   6.063  48.657  1.00  0.00    -0.268 OA
HETATM    3  N2  UNL     1      25.823   4.338  49.799  1.00  0.00    -0.344 N 
HETATM    4  C7  UNL     1      24.419   4.340  50.050  1.00  0.00     0.131 C 
HETATM    5  C8  UNL     1      23.880   2.913  49.812  1.00  0.00     0.060 C 
HETATM    6  C9  UNL     1      24.201   2.099  50.996  1.00  0.00    -0.025 A 
HETATM    7  C10 UNL     1      25.576   2.385  51.214  1.00  0.00     0.010 A 
HETATM    8  S1  UNL     1      25.978   1.404  52.676  1.00  0.00    -0.072 SA
HETATM    9  C11 UNL     1      24.396   0.709  52.903  1.00  0.00     0.114 A 
HETATM   10  N3  UNL     1      23.982  -0.143  53.836  1.00  0.00    -0.234 NA
HETATM   11  C12 UNL     1      22.711  -0.570  53.835  1.00  0.00     0.236 A 
HETATM   12  N4  UNL     1      21.962  -0.073  52.855  1.00  0.00    -0.224 NA
HETATM   13  C13 UNL     1      22.331   0.783  51.898  1.00  0.00     0.138 A 
HETATM   14  C16 UNL     1      23.633   1.229  51.890  1.00  0.00     0.053 A 
HETATM   15  C17 UNL     1      26.467   3.250  50.454  1.00  0.00     0.172 C 
ENDROOT
BRANCH   1  16
HETATM   16  C5  UNL     1      27.664   5.608  48.584  1.00  0.00     0.072 C 
HETATM   17  C4  UNL     1      28.052   6.829  48.324  1.00  0.00     0.008 C 
BRANCH  17  18
HETATM   18  C3  UNL     1      29.322   7.449  47.902  1.00  0.00     0.299 C 
BRANCH  18  19
HETATM   19  N1  UNL     1      30.466   7.021  48.668  1.00  0.00     0.083 N 
HETATM   20  C1  UNL     1      31.166   8.107  49.288  1.00  0.00     0.309 C 
HETATM   21  C2  UNL     1      31.327   6.139  47.917  1.00  0.00     0.309 C 
ENDBRANCH  18  19
ENDBRANCH  17  18
ENDBRANCH   1  16
BRANCH  13  22
HETATM   22  N5  UNL     1      21.292   1.108  50.950  1.00  0.00    -0.372 N 
HETATM   23  H16 UNL     1      21.212   0.951  49.951  1.00  0.00     0.161 HD
BRANCH  22  24
HETATM   24  C14 UNL     1      20.091   1.760  51.351  1.00  0.00     0.147 C 
BRANCH  24  25
HETATM   25  C15 UNL     1      20.307   3.140  51.970  1.00  0.00     0.183 C 
BRANCH  25  26
HETATM   26  O2  UNL     1      19.021   3.594  52.332  1.00  0.00    -0.399 OA
HETATM   27  H21 UNL     1      18.359   3.268  51.703  1.00  0.00     0.209 HD
ENDBRANCH  25  26
ENDBRANCH  24  25
ENDBRANCH  22  24
ENDBRANCH  13  22
TORSDOF 7
ENDMDL
MODEL 8
REMARK VINA RESULT:      -6.5      2.189      2.645
REMARK  7 active torsions:
REMARK  status: ('A' for Active; 'I' for Inactive)
REMARK    1  A    between atoms: N1_2  and  C3_4 
REMARK    2  A    between atoms: C3_4  and  C4_5 
REMARK    3  A    between atoms: C5_6  and  C6_7 
REMARK       I    between atoms: C6_7  and  N2_9 
REMARK    4  A    between atoms: C13_19  and  N5_20 
REMARK    5  A    between atoms: N5_20  and  C14_21 
REMARK    6  A    between atoms: C14_21  and  C15_22 
REMARK    7  A    between atoms: C15_22  and  O2_23 
ROOT
HETATM    1  C6  UNL     1      25.047   4.494  49.246  1.00  0.00     0.243 C 
HETATM    2  O1  UNL     1      26.296   4.487  48.990  1.00  0.00    -0.268 OA
HETATM    3  N2  UNL     1      24.844   3.549  50.249  1.00  0.00    -0.344 N 
HETATM    4  C7  UNL     1      26.007   2.851  50.690  1.00  0.00     0.131 C 
HETATM    5  C8  UNL     1      26.028   2.867  52.233  1.00  0.00     0.060 C 
HETATM    6  C9  UNL     1      25.093   1.838  52.715  1.00  0.00    -0.025 A 
HETATM    7  C10 UNL     1      23.922   2.090  51.951  1.00  0.00     0.010 A 
HETATM    8  S1  UNL     1      22.771   0.820  52.521  1.00  0.00    -0.072 SA
HETATM    9  C11 UNL     1      23.842   0.071  53.674  1.00  0.00     0.114 A 
HETATM   10  N3  UNL     1      23.615  -0.965  54.478  1.00  0.00    -0.234 NA
HETATM   11  C12 UNL     1      24.578  -1.391  55.307  1.00  0.00     0.236 A 
HETATM   12  N4  UNL     1      25.712  -0.701  55.237  1.00  0.00    -0.224 NA
HETATM   13  C13 UNL     1      25.988   0.343  54.449  1.00  0.00     0.138 A 
HETATM   14  C16 UNL     1      25.006   0.788  53.592  1.00  0.00     0.053 A 
HETATM   15  C17 UNL     1      23.682   3.119  50.949  1.00  0.00     0.172 C 
ENDROOT
BRANCH   1  16
HETATM   16  C5  UNL     1      24.051   5.330  48.611  1.00  0.00     0.072 C 
HETATM   17  C4  UNL     1      24.284   6.606  48.457  1.00  0.00     0.008 C 
BRANCH  17  18
HETATM   18  C3  UNL     1      23.537   7.737  47.875  1.00  0.00     0.299 C 
BRANCH  18  19
HETATM   19  N1  UNL     1      24.009   8.144  46.576  1.00  0.00     0.083 N 
HETATM   20  C1  UNL     1      23.373   7.440  45.501  1.00  0.00     0.309 C 
HETATM   21  C2  UNL     1      25.450   8.137  46.491  1.00  0.00     0.309 C 
ENDBRANCH  18  19
ENDBRANCH  17  18
ENDBRANCH   1  16
BRANCH  13  22
HETATM   22  N5  UNL     1      27.305   0.903  54.633  1.00  0.00    -0.372 N 
HETATM   23  H16 UNL     1      27.633   1.862  54.688  1.00  0.00     0.161 HD
BRANCH  22  24
HETATM   24  C14 UNL     1      28.453   0.076  54.797  1.00  0.00     0.147 C 
BRANCH  24  25
HETATM   25  C15 UNL     1      29.460   0.174  53.653  1.00  0.00     0.183 C 
BRANCH  25  26
HETATM   26  O2  UNL     1      29.428   1.523  53.239  1.00  0.00    -0.399 OA
HETATM   27  H21 UNL     1      30.313   1.914  53.299  1.00  0.00     0.209 HD
ENDBRANCH  25  26
ENDBRANCH  24  25
ENDBRANCH  22  24
ENDBRANCH  13  22
TORSDOF 7
ENDMDL
MODEL 9
REMARK VINA RESULT:      -6.5      5.319      9.401
REMARK  7 active torsions:
REMARK  status: ('A' for Active; 'I' for Inactive)
REMARK    1  A    between atoms: N1_2  and  C3_4 
REMARK    2  A    between atoms: C3_4  and  C4_5 
REMARK    3  A    between atoms: C5_6  and  C6_7 
REMARK       I    between atoms: C6_7  and  N2_9 
REMARK    4  A    between atoms: C13_19  and  N5_20 
REMARK    5  A    between atoms: N5_20  and  C14_21 
REMARK    6  A    between atoms: C14_21  and  C15_22 
REMARK    7  A    between atoms: C15_22  and  O2_23 
ROOT
HETATM    1  C6  UNL     1      17.596  -0.148  51.799  1.00  0.00     0.243 C 
HETATM    2  O1  UNL     1      17.613   0.262  50.592  1.00  0.00    -0.268 OA
HETATM    3  N2  UNL     1      18.920  -0.163  52.230  1.00  0.00    -0.344 N 
HETATM    4  C7  UNL     1      19.892   0.242  51.268  1.00  0.00     0.131 C 
HETATM    5  C8  UNL     1      20.840   1.262  51.934  1.00  0.00     0.060 C 
HETATM    6  C9  UNL     1      21.806   0.519  52.759  1.00  0.00    -0.025 A 
HETATM    7  C10 UNL     1      20.977  -0.369  53.496  1.00  0.00     0.010 A 
HETATM    8  S1  UNL     1      22.154  -1.300  54.501  1.00  0.00    -0.072 SA
HETATM    9  C11 UNL     1      23.595  -0.507  53.923  1.00  0.00     0.114 A 
HETATM   10  N3  UNL     1      24.862  -0.717  54.269  1.00  0.00    -0.234 NA
HETATM   11  C12 UNL     1      25.838   0.011  53.707  1.00  0.00     0.236 A 
HETATM   12  N4  UNL     1      25.416   0.909  52.822  1.00  0.00    -0.224 NA
HETATM   13  C13 UNL     1      24.159   1.157  52.442  1.00  0.00     0.138 A 
HETATM   14  C16 UNL     1      23.150   0.414  53.012  1.00  0.00     0.053 A 
HETATM   15  C17 UNL     1      19.529  -0.509  53.470  1.00  0.00     0.172 C 
ENDROOT
BRANCH   1  16
HETATM   16  C5  UNL     1      16.420  -0.519  52.557  1.00  0.00     0.072 C 
HETATM   17  C4  UNL     1      15.379   0.270  52.557  1.00  0.00     0.008 C 
BRANCH  17  18
HETATM   18  C3  UNL     1      14.045   0.232  53.185  1.00  0.00     0.299 C 
BRANCH  18  19
HETATM   19  N1  UNL     1      13.488   1.533  53.458  1.00  0.00     0.083 N 
HETATM   20  C1  UNL     1      12.093   1.625  53.141  1.00  0.00     0.309 C 
HETATM   21  C2  UNL     1      14.276   2.596  52.881  1.00  0.00     0.309 C 
ENDBRANCH  18  19
ENDBRANCH  17  18
ENDBRANCH   1  16
BRANCH  13  22
HETATM   22  N5  UNL     1      24.021   2.226  51.483  1.00  0.00    -0.372 N 
HETATM   23  H16 UNL     1      23.677   2.241  50.528  1.00  0.00     0.161 HD
BRANCH  22  24
HETATM   24  C14 UNL     1      24.381   3.567  51.801  1.00  0.00     0.147 C 
BRANCH  24  25
HETATM   25  C15 UNL     1      23.267   4.370  52.469  1.00  0.00     0.183 C 
BRANCH  25  26
HETATM   26  O2  UNL     1      23.923   5.381  53.203  1.00  0.00    -0.399 OA
HETATM   27  H21 UNL     1      23.714   5.302  54.146  1.00  0.00     0.209 HD
ENDBRANCH  25  26
ENDBRANCH  24  25
ENDBRANCH  22  24
ENDBRANCH  13  22
TORSDOF 7
ENDMDL
