MODEL 1
REMARK VINA RESULT:      -6.7      0.000      0.000
REMARK  8 active torsions:
REMARK  status: ('A' for Active; 'I' for Inactive)
REMARK    1  A    between atoms: N1_2  and  C3_4 
REMARK    2  A    between atoms: C3_4  and  C4_5 
REMARK    3  A    between atoms: C4_5  and  N2_6 
REMARK    4  A    between atoms: N2_6  and  C5_7 
REMARK    5  A    between atoms: C5_7  and  C12_17 
REMARK    6  A    between atoms: C6_8  and  C7_9 
REMARK    7  A    between atoms: C12_17  and  O1_18 
REMARK    8  A    between atoms: O1_18  and  C13_19 
ROOT
HETATM    1  C5  UNL     1      24.754   2.203  52.457  1.00  0.00     0.029 C 
HETATM    2  C6  UNL     1      25.665   1.614  53.225  1.00  0.00     0.048 C 
ENDROOT
BRANCH   1   3
HETATM    3  N2  UNL     1      25.135   3.497  52.018  1.00  0.00    -0.390 N 
HETATM    4  H11 UNL     1      25.879   4.208  52.278  1.00  0.00     0.159 HD
BRANCH   3   5
HETATM    5  C4  UNL     1      24.216   3.835  50.948  1.00  0.00     0.139 C 
BRANCH   5   6
HETATM    6  C3  UNL     1      24.941   3.828  49.595  1.00  0.00     0.135 C 
BRANCH   6   7
HETATM    7  N1  UNL     1      25.988   4.817  49.732  1.00  0.00    -0.419 N 
HETATM    8  C1  UNL     1      25.549   6.172  49.673  1.00  0.00     0.142 C 
HETATM    9  C2  UNL     1      27.166   4.504  48.992  1.00  0.00     0.142 C 
ENDBRANCH   6   7
ENDBRANCH   5   6
ENDBRANCH   3   5
ENDBRANCH   1   3
BRANCH   1  10
HETATM   10  C12 UNL     1      23.534   1.433  52.193  1.00  0.00     0.224 C 
BRANCH  10  11
HETATM   11  O1  UNL     1      22.772   1.342  53.328  1.00  0.00    -0.378 OA
BRANCH  11  12
HETATM   12  C13 UNL     1      21.642   0.601  53.124  1.00  0.00     0.147 C 
HETATM   13  C14 UNL     1      21.050   0.281  54.497  1.00  0.00     0.060 C 
HETATM   14  C15 UNL     1      21.957  -0.828  54.953  1.00  0.00     0.170 C 
HETATM   15  O2  UNL     1      22.719  -1.225  53.879  1.00  0.00    -0.389 OA
HETATM   16  C16 UNL     1      22.088  -0.808  52.714  1.00  0.00     0.199 C 
ENDBRANCH  11  12
ENDBRANCH  10  11
ENDBRANCH   1  10
BRANCH   2  17
HETATM   17  C7  UNL     1      25.872   0.322  53.970  1.00  0.00     0.240 C 
HETATM   18  N3  UNL     1      26.998   0.489  54.786  1.00  0.00    -0.253 NA
HETATM   19  C8  UNL     1      28.249   0.281  54.993  1.00  0.00     0.229 C 
HETATM   20  N4  UNL     1      29.383  -0.381  54.338  1.00  0.00    -0.246 NA
HETATM   21  C9  UNL     1      29.433  -1.193  53.278  1.00  0.00     0.183 C 
HETATM   22  C10 UNL     1      28.108  -1.073  53.179  1.00  0.00    -0.036 C 
HETATM   23  C11 UNL     1      27.010  -0.961  53.115  1.00  0.00     0.014 C 
HETATM   24  N5  UNL     1      25.717  -0.812  53.058  1.00  0.00    -0.323 N 
HETATM   25  H16 UNL     1      25.065  -1.379  52.529  1.00  0.00     0.172 HD
ENDBRANCH   2  17
TORSDOF 8
ENDMDL
MODEL 2
REMARK VINA RESULT:      -6.6      1.313      2.042
REMARK  8 active torsions:
REMARK  status: ('A' for Active; 'I' for Inactive)
REMARK    1  A    between atoms: N1_2  and  C3_4 
REMARK    2  A    between atoms: C3_4  and  C4_5 
REMARK    3  A    between atoms: C4_5  and  N2_6 
REMARK    4  A    between atoms: N2_6  and  C5_7 
REMARK    5  A    between atoms: C5_7  and  C12_17 
REMARK    6  A    between atoms: C6_8  and  C7_9 
REMARK    7  A    between atoms: C12_17  and  O1_18 
REMARK    8  A    between atoms: O1_18  and  C13_19 
ROOT
HETATM    1  C5  UNL     1      24.925   2.170  52.454  1.00  0.00     0.029 C 
HETATM    2  C6  UNL     1      25.807   1.702  53.330  1.00  0.00     0.048 C 
ENDROOT
BRANCH   1   3
HETATM    3  N2  UNL     1      25.245   3.463  51.964  1.00  0.00    -0.390 N 
HETATM    4  H11 UNL     1      26.116   4.068  51.905  1.00  0.00     0.159 HD
BRANCH   3   5
HETATM    5  C4  UNL     1      24.007   4.000  51.435  1.00  0.00     0.139 C 
BRANCH   5   6
HETATM    6  C3  UNL     1      23.408   5.027  52.406  1.00  0.00     0.135 C 
BRANCH   6   7
HETATM    7  N1  UNL     1      22.039   5.194  51.971  1.00  0.00    -0.419 N 
HETATM    8  C1  UNL     1      21.343   3.982  51.694  1.00  0.00     0.142 C 
HETATM    9  C2  UNL     1      21.868   6.249  51.027  1.00  0.00     0.142 C 
ENDBRANCH   6   7
ENDBRANCH   5   6
ENDBRANCH   3   5
ENDBRANCH   1   3
BRANCH   1  10
HETATM   10  C12 UNL     1      23.793   1.293  52.143  1.00  0.00     0.224 C 
BRANCH  10  11
HETATM   11  O1  UNL     1      22.962   1.181  53.226  1.00  0.00    -0.378 OA
BRANCH  11  12
HETATM   12  C13 UNL     1      21.854   0.435  52.943  1.00  0.00     0.147 C 
HETATM   13  C14 UNL     1      21.003   0.377  54.212  1.00  0.00     0.060 C 
HETATM   14  C15 UNL     1      21.753  -0.646  55.019  1.00  0.00     0.170 C 
HETATM   15  O2  UNL     1      22.680  -1.243  54.195  1.00  0.00    -0.389 OA
HETATM   16  C16 UNL     1      22.296  -1.032  52.877  1.00  0.00     0.199 C 
ENDBRANCH  11  12
ENDBRANCH  10  11
ENDBRANCH   1  10
BRANCH   2  17
HETATM   17  C7  UNL     1      26.045   0.476  54.172  1.00  0.00     0.240 C 
HETATM   18  N3  UNL     1      27.274   0.649  54.821  1.00  0.00    -0.253 NA
HETATM   19  C8  UNL     1      28.530   0.384  54.891  1.00  0.00     0.229 C 
HETATM   20  N4  UNL     1      29.535  -0.408  54.171  1.00  0.00    -0.246 NA
HETATM   21  C9  UNL     1      29.406  -1.319  53.203  1.00  0.00     0.183 C 
HETATM   22  C10 UNL     1      28.086  -1.125  53.257  1.00  0.00    -0.036 C 
HETATM   23  C11 UNL     1      26.997  -0.951  53.319  1.00  0.00     0.014 C 
HETATM   24  N5  UNL     1      25.717  -0.728  53.408  1.00  0.00    -0.323 N 
HETATM   25  H16 UNL     1      24.973  -1.301  53.025  1.00  0.00     0.172 HD
ENDBRANCH   2  17
TORSDOF 8
ENDMDL
MODEL 3
REMARK VINA RESULT:      -6.5      2.348      5.099
REMARK  8 active torsions:
REMARK  status: ('A' for Active; 'I' for Inactive)
REMARK    1  A    between atoms: N1_2  and  C3_4 
REMARK    2  A    between atoms: C3_4  and  C4_5 
REMARK    3  A    between atoms: C4_5  and  N2_6 
REMARK    4  A    between atoms: N2_6  and  C5_7 
REMARK    5  A    between atoms: C5_7  and  C12_17 
REMARK    6  A    between atoms: C6_8  and  C7_9 
REMARK    7  A    between atoms: C12_17  and  O1_18 
REMARK    8  A    between atoms: O1_18  and  C13_19 
ROOT
HETATM    1  C5  UNL     1      24.374   3.014  52.898  1.00  0.00     0.029 C 
HETATM    2  C6  UNL     1      23.368   2.172  52.689  1.00  0.00     0.048 C 
ENDROOT
BRANCH   1   3
HETATM    3  N2  UNL     1      23.953   4.330  53.222  1.00  0.00    -0.390 N 
HETATM    4  H11 UNL     1      24.109   5.011  54.022  1.00  0.00     0.159 HD
BRANCH   3   5
HETATM    5  C4  UNL     1      23.108   4.754  52.123  1.00  0.00     0.139 C 
BRANCH   5   6
HETATM    6  C3  UNL     1      23.766   5.907  51.353  1.00  0.00     0.135 C 
BRANCH   6   7
HETATM    7  N1  UNL     1      24.130   5.339  50.074  1.00  0.00    -0.419 N 
HETATM    8  C1  UNL     1      23.237   4.342  49.582  1.00  0.00     0.142 C 
HETATM    9  C2  UNL     1      25.522   5.052  49.954  1.00  0.00     0.142 C 
ENDBRANCH   6   7
ENDBRANCH   5   6
ENDBRANCH   3   5
ENDBRANCH   1   3
BRANCH   1  10
HETATM   10  C12 UNL     1      25.723   2.457  52.764  1.00  0.00     0.224 C 
BRANCH  10  11
HETATM   11  O1  UNL     1      26.004   1.626  53.816  1.00  0.00    -0.378 OA
BRANCH  11  12
HETATM   12  C13 UNL     1      27.223   1.025  53.679  1.00  0.00     0.147 C 
HETATM   13  C14 UNL     1      27.137   0.087  52.474  1.00  0.00     0.060 C 
HETATM   14  C15 UNL     1      26.388  -1.076  53.063  1.00  0.00     0.170 C 
HETATM   15  O2  UNL     1      26.341  -0.906  54.428  1.00  0.00    -0.389 OA
HETATM   16  C16 UNL     1      27.346  -0.020  54.795  1.00  0.00     0.199 C 
ENDBRANCH  11  12
ENDBRANCH  10  11
ENDBRANCH   1  10
BRANCH   2  17
HETATM   17  C7  UNL     1      23.140   0.726  52.333  1.00  0.00     0.240 C 
HETATM   18  N3  UNL     1      22.023   0.678  51.489  1.00  0.00    -0.253 NA
HETATM   19  C8  UNL     1      20.769   0.442  51.334  1.00  0.00     0.229 C 
HETATM   20  N4  UNL     1      19.617   0.010  52.134  1.00  0.00    -0.246 NA
HETATM   21  C9  UNL     1      19.544  -0.472  53.378  1.00  0.00     0.183 C 
HETATM   22  C10 UNL     1      20.871  -0.352  53.456  1.00  0.00    -0.036 C 
HETATM   23  C11 UNL     1      21.970  -0.245  53.499  1.00  0.00     0.014 C 
HETATM   24  N5  UNL     1      23.265  -0.109  53.528  1.00  0.00    -0.323 N 
HETATM   25  H16 UNL     1      23.902  -0.517  54.202  1.00  0.00     0.172 HD
ENDBRANCH   2  17
TORSDOF 8
ENDMDL
MODEL 4
REMARK VINA RESULT:      -6.4      1.387      5.625
REMARK  8 active torsions:
REMARK  status: ('A' for Active; 'I' for Inactive)
REMARK    1  A    between atoms: N1_2  and  C3_4 
REMARK    2  A    between atoms: C3_4  and  C4_5 
REMARK    3  A    between atoms: C4_5  and  N2_6 
REMARK    4  A    between atoms: N2_6  and  C5_7 
REMARK    5  A    between atoms: C5_7  and  C12_17 
REMARK    6  A    between atoms: C6_8  and  C7_9 
REMARK    7  A    between atoms: C12_17  and  O1_18 
REMARK    8  A    between atoms: O1_18  and  C13_19 
ROOT
HETATM    1  C5  UNL     1      25.322   1.496  53.435  1.00  0.00     0.029 C 
HETATM    2  C6  UNL     1      24.938   2.611  52.823  1.00  0.00     0.048 C 
ENDROOT
BRANCH   1   3
HETATM    3  N2  UNL     1      26.308   1.710  54.434  1.00  0.00    -0.390 N 
HETATM    4  H11 UNL     1      26.320   2.042  55.442  1.00  0.00     0.159 HD
BRANCH   3   5
HETATM    5  C4  UNL     1      27.573   1.356  53.819  1.00  0.00     0.139 C 
BRANCH   5   6
HETATM    6  C3  UNL     1      28.188   0.138  54.521  1.00  0.00     0.135 C 
BRANCH   6   7
HETATM    7  N1  UNL     1      28.692  -0.692  53.449  1.00  0.00    -0.419 N 
HETATM    8  C1  UNL     1      27.763  -1.646  52.938  1.00  0.00     0.142 C 
HETATM    9  C2  UNL     1      30.020  -1.163  53.669  1.00  0.00     0.142 C 
ENDBRANCH   6   7
ENDBRANCH   5   6
ENDBRANCH   3   5
ENDBRANCH   1   3
BRANCH   1  10
HETATM   10  C12 UNL     1      24.677   0.258  52.990  1.00  0.00     0.224 C 
BRANCH  10  11
HETATM   11  O1  UNL     1      23.742  -0.150  53.905  1.00  0.00    -0.378 OA
BRANCH  11  12
HETATM   12  C13 UNL     1      22.767  -0.915  53.330  1.00  0.00     0.147 C 
HETATM   13  C14 UNL     1      21.812   0.032  52.601  1.00  0.00     0.060 C 
HETATM   14  C15 UNL     1      21.010   0.576  53.751  1.00  0.00     0.170 C 
HETATM   15  O2  UNL     1      21.298  -0.177  54.867  1.00  0.00    -0.389 OA
HETATM   16  C16 UNL     1      21.836  -1.389  54.452  1.00  0.00     0.199 C 
ENDBRANCH  11  12
ENDBRANCH  10  11
ENDBRANCH   1  10
BRANCH   2  17
HETATM   17  C7  UNL     1      23.988   3.054  51.742  1.00  0.00     0.240 C 
HETATM   18  N3  UNL     1      24.753   3.668  50.742  1.00  0.00    -0.253 NA
HETATM   19  C8  UNL     1      25.175   4.746  50.183  1.00  0.00     0.229 C 
HETATM   20  N4  UNL     1      25.039   6.198  50.340  1.00  0.00    -0.246 NA
HETATM   21  C9  UNL     1      24.222   6.927  51.106  1.00  0.00     0.183 C 
HETATM   22  C10 UNL     1      23.703   5.784  51.560  1.00  0.00    -0.036 C 
HETATM   23  C11 UNL     1      23.285   4.827  51.923  1.00  0.00     0.014 C 
HETATM   24  N5  UNL     1      22.811   3.687  52.337  1.00  0.00    -0.323 N 
HETATM   25  H16 UNL     1      21.948   3.540  52.847  1.00  0.00     0.172 HD
ENDBRANCH   2  17
TORSDOF 8
ENDMDL
MODEL 5
REMARK VINA RESULT:      -6.4      2.418      5.755
REMARK  8 active torsions:
REMARK  status: ('A' for Active; 'I' for Inactive)
REMARK    1  A    between atoms: N1_2  and  C3_4 
REMARK    2  A    between atoms: C3_4  and  C4_5 
REMARK    3  A    between atoms: C4_5  and  N2_6 
REMARK    4  A    between atoms: N2_6  and  C5_7 
REMARK    5  A    between atoms: C5_7  and  C12_17 
REMARK    6  A    between atoms: C6_8  and  C7_9 
REMARK    7  A    between atoms: C12_17  and  O1_18 
REMARK    8  A    between atoms: O1_18  and  C13_19 
ROOT
HETATM    1  C5  UNL     1      23.887   2.223  51.736  1.00  0.00     0.029 C 
HETATM    2  C6  UNL     1      24.975   1.587  52.155  1.00  0.00     0.048 C 
ENDROOT
BRANCH   1   3
HETATM    3  N2  UNL     1      22.758   2.028  52.574  1.00  0.00    -0.390 N 
HETATM    4  H11 UNL     1      21.947   2.620  52.921  1.00  0.00     0.159 HD
BRANCH   3   5
HETATM    5  C4  UNL     1      22.826   0.645  53.007  1.00  0.00     0.139 C 
BRANCH   5   6
HETATM    6  C3  UNL     1      21.641  -0.152  52.445  1.00  0.00     0.135 C 
BRANCH   6   7
HETATM    7  N1  UNL     1      20.836  -0.483  53.600  1.00  0.00    -0.419 N 
HETATM    8  C1  UNL     1      21.367  -1.513  54.431  1.00  0.00     0.142 C 
HETATM    9  C2  UNL     1      19.440  -0.560  53.318  1.00  0.00     0.142 C 
ENDBRANCH   6   7
ENDBRANCH   5   6
ENDBRANCH   3   5
ENDBRANCH   1   3
BRANCH   1  10
HETATM   10  C12 UNL     1      24.029   3.008  50.507  1.00  0.00     0.224 C 
BRANCH  10  11
HETATM   11  O1  UNL     1      24.629   4.211  50.773  1.00  0.00    -0.378 OA
BRANCH  11  12
HETATM   12  C13 UNL     1      23.900   5.261  50.293  1.00  0.00     0.147 C 
HETATM   13  C14 UNL     1      24.217   5.396  48.803  1.00  0.00     0.060 C 
HETATM   14  C15 UNL     1      25.560   6.070  48.852  1.00  0.00     0.170 C 
HETATM   15  O2  UNL     1      25.783   6.484  50.145  1.00  0.00    -0.389 OA
HETATM   16  C16 UNL     1      24.561   6.548  50.803  1.00  0.00     0.199 C 
ENDBRANCH  11  12
ENDBRANCH  10  11
ENDBRANCH   1  10
BRANCH   2  17
HETATM   17  C7  UNL     1      26.412   1.390  51.753  1.00  0.00     0.240 C 
HETATM   18  N3  UNL     1      26.760   0.074  52.085  1.00  0.00    -0.253 NA
HETATM   19  C8  UNL     1      27.348  -0.741  52.887  1.00  0.00     0.229 C 
HETATM   20  N4  UNL     1      28.121  -0.701  54.133  1.00  0.00    -0.246 NA
HETATM   21  C9  UNL     1      28.640   0.325  54.812  1.00  0.00     0.183 C 
HETATM   22  C10 UNL     1      28.140   1.138  53.880  1.00  0.00    -0.036 C 
HETATM   23  C11 UNL     1      27.718   1.794  53.096  1.00  0.00     0.014 C 
HETATM   24  N5  UNL     1      27.210   2.546  52.162  1.00  0.00    -0.323 N 
HETATM   25  H16 UNL     1      27.433   3.518  51.979  1.00  0.00     0.172 HD
ENDBRANCH   2  17
TORSDOF 8
ENDMDL
MODEL 6
REMARK VINA RESULT:      -6.3      2.456      6.905
REMARK  8 active torsions:
REMARK  status: ('A' for Active; 'I' for Inactive)
REMARK    1  A    between atoms: N1_2  and  C3_4 
REMARK    2  A    between atoms: C3_4  and  C4_5 
REMARK    3  A    between atoms: C4_5  and  N2_6 
REMARK    4  A    between atoms: N2_6  and  C5_7 
REMARK    5  A    between atoms: C5_7  and  C12_17 
REMARK    6  A    between atoms: C6_8  and  C7_9 
REMARK    7  A    between atoms: C12_17  and  O1_18 
REMARK    8  A    between atoms: O1_18  and  C13_19 
ROOT
HETATM    1  C5  UNL     1      25.857   1.311  52.294  1.00  0.00     0.029 C 
HETATM    2  C6  UNL     1      25.023   2.031  51.551  1.00  0.00     0.048 C 
ENDROOT
BRANCH   1   3
HETATM    3  N2  UNL     1      25.394  -0.005  52.552  1.00  0.00    -0.390 N 
HETATM    4  H11 UNL     1      25.605  -0.979  52.185  1.00  0.00     0.159 HD
BRANCH   3   5
HETATM    5  C4  UNL     1      24.389   0.128  53.589  1.00  0.00     0.139 C 
BRANCH   5   6
HETATM    6  C3  UNL     1      23.145  -0.701  53.241  1.00  0.00     0.135 C 
BRANCH   6   7
HETATM    7  N1  UNL     1      22.480  -0.919  54.506  1.00  0.00    -0.419 N 
HETATM    8  C1  UNL     1      23.312  -1.429  55.545  1.00  0.00     0.142 C 
HETATM    9  C2  UNL     1      21.194  -1.522  54.376  1.00  0.00     0.142 C 
ENDBRANCH   6   7
ENDBRANCH   5   6
ENDBRANCH   3   5
ENDBRANCH   1   3
BRANCH   1  10
HETATM   10  C12 UNL     1      27.092   1.980  52.714  1.00  0.00     0.224 C 
BRANCH  10  11
HETATM   11  O1  UNL     1      28.163   1.135  52.580  1.00  0.00    -0.378 OA
BRANCH  11  12
HETATM   12  C13 UNL     1      28.892   1.050  53.732  1.00  0.00     0.147 C 
HETATM   13  C14 UNL     1      30.033   0.063  53.481  1.00  0.00     0.060 C 
HETATM   14  C15 UNL     1      29.309  -1.250  53.585  1.00  0.00     0.170 C 
HETATM   15  O2  UNL     1      28.054  -1.007  54.095  1.00  0.00    -0.389 OA
HETATM   16  C16 UNL     1      28.070   0.227  54.732  1.00  0.00     0.199 C 
ENDBRANCH  11  12
ENDBRANCH  10  11
ENDBRANCH   1  10
BRANCH   2  17
HETATM   17  C7  UNL     1      24.921   3.410  50.955  1.00  0.00     0.240 C 
HETATM   18  N3  UNL     1      24.201   4.201  51.859  1.00  0.00    -0.253 NA
HETATM   19  C8  UNL     1      23.093   4.759  52.196  1.00  0.00     0.229 C 
HETATM   20  N4  UNL     1      21.718   4.878  51.696  1.00  0.00    -0.246 NA
HETATM   21  C9  UNL     1      21.176   4.527  50.527  1.00  0.00     0.183 C 
HETATM   22  C10 UNL     1      22.379   4.089  50.150  1.00  0.00    -0.036 C 
HETATM   23  C11 UNL     1      23.383   3.732  49.858  1.00  0.00     0.014 C 
HETATM   24  N5  UNL     1      24.575   3.317  49.536  1.00  0.00    -0.323 N 
HETATM   25  H16 UNL     1      24.906   3.087  48.606  1.00  0.00     0.172 HD
ENDBRANCH   2  17
TORSDOF 8
ENDMDL
MODEL 7
REMARK VINA RESULT:      -5.9      2.762      5.252
REMARK  8 active torsions:
REMARK  status: ('A' for Active; 'I' for Inactive)
REMARK    1  A    between atoms: N1_2  and  C3_4 
REMARK    2  A    between atoms: C3_4  and  C4_5 
REMARK    3  A    between atoms: C4_5  and  N2_6 
REMARK    4  A    between atoms: N2_6  and  C5_7 
REMARK    5  A    between atoms: C5_7  and  C12_17 
REMARK    6  A    between atoms: C6_8  and  C7_9 
REMARK    7  A    between atoms: C12_17  and  O1_18 
REMARK    8  A    between atoms: O1_18  and  C13_19 
ROOT
HETATM    1  C5  UNL     1      23.917   2.185  51.421  1.00  0.00     0.029 C 
HETATM    2  C6  UNL     1      24.987   1.596  51.943  1.00  0.00     0.048 C 
ENDROOT
BRANCH   1   3
HETATM    3  N2  UNL     1      22.743   2.022  52.202  1.00  0.00    -0.390 N 
HETATM    4  H11 UNL     1      22.474   1.495  53.084  1.00  0.00     0.159 HD
BRANCH   3   5
HETATM    5  C4  UNL     1      21.721   2.814  51.544  1.00  0.00     0.139 C 
BRANCH   5   6
HETATM    6  C3  UNL     1      20.443   2.852  52.393  1.00  0.00     0.135 C 
BRANCH   6   7
HETATM    7  N1  UNL     1      19.596   3.827  51.742  1.00  0.00    -0.419 N 
HETATM    8  C1  UNL     1      18.283   3.369  51.424  1.00  0.00     0.142 C 
HETATM    9  C2  UNL     1      20.265   4.575  50.728  1.00  0.00     0.142 C 
ENDBRANCH   6   7
ENDBRANCH   5   6
ENDBRANCH   3   5
ENDBRANCH   1   3
BRANCH   1  10
HETATM   10  C12 UNL     1      24.121   2.894  50.154  1.00  0.00     0.224 C 
BRANCH  10  11
HETATM   11  O1  UNL     1      24.870   4.024  50.354  1.00  0.00    -0.378 OA
BRANCH  11  12
HETATM   12  C13 UNL     1      24.864   4.839  49.258  1.00  0.00     0.147 C 
HETATM   13  C14 UNL     1      25.917   5.924  49.487  1.00  0.00     0.060 C 
HETATM   14  C15 UNL     1      25.193   6.835  50.438  1.00  0.00     0.170 C 
HETATM   15  O2  UNL     1      23.872   6.450  50.477  1.00  0.00    -0.389 OA
HETATM   16  C16 UNL     1      23.599   5.703  49.338  1.00  0.00     0.199 C 
ENDBRANCH  11  12
ENDBRANCH  10  11
ENDBRANCH   1  10
BRANCH   2  17
HETATM   17  C7  UNL     1      26.449   1.400  51.639  1.00  0.00     0.240 C 
HETATM   18  N3  UNL     1      26.772   0.082  51.986  1.00  0.00    -0.253 NA
HETATM   19  C8  UNL     1      27.302  -0.740  52.821  1.00  0.00     0.229 C 
HETATM   20  N4  UNL     1      27.988  -0.709  54.118  1.00  0.00    -0.246 NA
HETATM   21  C9  UNL     1      28.460   0.313  54.838  1.00  0.00     0.183 C 
HETATM   22  C10 UNL     1      28.025   1.132  53.878  1.00  0.00    -0.036 C 
HETATM   23  C11 UNL     1      27.659   1.793  53.072  1.00  0.00     0.014 C 
HETATM   24  N5  UNL     1      27.217   2.552  52.110  1.00  0.00    -0.323 N 
HETATM   25  H16 UNL     1      27.453   3.525  51.949  1.00  0.00     0.172 HD
ENDBRANCH   2  17
TORSDOF 8
ENDMDL
MODEL 8
REMARK VINA RESULT:      -5.8      3.975      7.003
REMARK  8 active torsions:
REMARK  status: ('A' for Active; 'I' for Inactive)
REMARK    1  A    between atoms: N1_2  and  C3_4 
REMARK    2  A    between atoms: C3_4  and  C4_5 
REMARK    3  A    between atoms: C4_5  and  N2_6 
REMARK    4  A    between atoms: N2_6  and  C5_7 
REMARK    5  A    between atoms: C5_7  and  C12_17 
REMARK    6  A    between atoms: C6_8  and  C7_9 
REMARK    7  A    between atoms: C12_17  and  O1_18 
REMARK    8  A    between atoms: O1_18  and  C13_19 
ROOT
HETATM    1  C5  UNL     1      26.641   4.412  49.584  1.00  0.00     0.029 C 
HETATM    2  C6  UNL     1      25.774   5.373  49.885  1.00  0.00     0.048 C 
ENDROOT
BRANCH   1   3
HETATM    3  N2  UNL     1      27.729   4.860  48.791  1.00  0.00    -0.390 N 
HETATM    4  H11 UNL     1      28.658   4.460  48.466  1.00  0.00     0.159 HD
BRANCH   3   5
HETATM    5  C4  UNL     1      27.382   6.204  48.371  1.00  0.00     0.139 C 
BRANCH   5   6
HETATM    6  C3  UNL     1      28.632   6.955  47.891  1.00  0.00     0.135 C 
BRANCH   6   7
HETATM    7  N1  UNL     1      28.266   8.354  47.948  1.00  0.00    -0.419 N 
HETATM    8  C1  UNL     1      28.297   8.933  49.250  1.00  0.00     0.142 C 
HETATM    9  C2  UNL     1      27.137   8.680  47.140  1.00  0.00     0.142 C 
ENDBRANCH   6   7
ENDBRANCH   5   6
ENDBRANCH   3   5
ENDBRANCH   1   3
BRANCH   1  10
HETATM   10  C12 UNL     1      26.339   3.078  50.111  1.00  0.00     0.224 C 
BRANCH  10  11
HETATM   11  O1  UNL     1      27.045   2.848  51.263  1.00  0.00    -0.378 OA
BRANCH  11  12
HETATM   12  C13 UNL     1      26.830   1.590  51.748  1.00  0.00     0.147 C 
HETATM   13  C14 UNL     1      25.462   1.588  52.431  1.00  0.00     0.060 C 
HETATM   14  C15 UNL     1      25.786   2.270  53.732  1.00  0.00     0.170 C 
HETATM   15  O2  UNL     1      27.155   2.354  53.840  1.00  0.00    -0.389 OA
HETATM   16  C16 UNL     1      27.722   1.418  52.984  1.00  0.00     0.199 C 
ENDBRANCH  11  12
ENDBRANCH  10  11
ENDBRANCH   1  10
BRANCH   2  17
HETATM   17  C7  UNL     1      24.487   5.556  50.645  1.00  0.00     0.240 C 
HETATM   18  N3  UNL     1      23.445   5.529  49.710  1.00  0.00    -0.253 NA
HETATM   19  C8  UNL     1      22.586   6.168  48.998  1.00  0.00     0.229 C 
HETATM   20  N4  UNL     1      22.168   7.553  48.749  1.00  0.00    -0.246 NA
HETATM   21  C9  UNL     1      22.487   8.692  49.370  1.00  0.00     0.183 C 
HETATM   22  C10 UNL     1      23.261   7.977  50.189  1.00  0.00    -0.036 C 
HETATM   23  C11 UNL     1      23.895   7.366  50.858  1.00  0.00     0.014 C 
HETATM   24  N5  UNL     1      24.636   6.626  51.631  1.00  0.00    -0.323 N 
HETATM   25  H16 UNL     1      25.042   6.896  52.520  1.00  0.00     0.172 HD
ENDBRANCH   2  17
TORSDOF 8
ENDMDL
MODEL 9
REMARK VINA RESULT:      -5.7      1.684      2.204
REMARK  8 active torsions:
REMARK  status: ('A' for Active; 'I' for Inactive)
REMARK    1  A    between atoms: N1_2  and  C3_4 
REMARK    2  A    between atoms: C3_4  and  C4_5 
REMARK    3  A    between atoms: C4_5  and  N2_6 
REMARK    4  A    between atoms: N2_6  and  C5_7 
REMARK    5  A    between atoms: C5_7  and  C12_17 
REMARK    6  A    between atoms: C6_8  and  C7_9 
REMARK    7  A    between atoms: C12_17  and  O1_18 
REMARK    8  A    between atoms: O1_18  and  C13_19 
ROOT
HETATM    1  C5  UNL     1      25.164   2.950  51.374  1.00  0.00     0.029 C 
HETATM    2  C6  UNL     1      26.125   2.406  52.112  1.00  0.00     0.048 C 
ENDROOT
BRANCH   1   3
HETATM    3  N2  UNL     1      25.512   3.089  50.005  1.00  0.00    -0.390 N 
HETATM    4  H11 UNL     1      25.565   2.451  49.157  1.00  0.00     0.159 HD
BRANCH   3   5
HETATM    5  C4  UNL     1      25.863   4.485  49.829  1.00  0.00     0.139 C 
BRANCH   5   6
HETATM    6  C3  UNL     1      24.792   5.209  49.001  1.00  0.00     0.135 C 
BRANCH   6   7
HETATM    7  N1  UNL     1      25.186   6.600  49.022  1.00  0.00    -0.419 N 
HETATM    8  C1  UNL     1      25.513   7.115  50.310  1.00  0.00     0.142 C 
HETATM    9  C2  UNL     1      24.373   7.434  48.198  1.00  0.00     0.142 C 
ENDBRANCH   6   7
ENDBRANCH   5   6
ENDBRANCH   3   5
ENDBRANCH   1   3
BRANCH   1  10
HETATM   10  C12 UNL     1      23.929   3.306  52.078  1.00  0.00     0.224 C 
BRANCH  10  11
HETATM   11  O1  UNL     1      23.221   2.179  52.404  1.00  0.00    -0.378 OA
BRANCH  11  12
HETATM   12  C13 UNL     1      21.875   2.367  52.270  1.00  0.00     0.147 C 
HETATM   13  C14 UNL     1      21.182   1.105  52.786  1.00  0.00     0.060 C 
HETATM   14  C15 UNL     1      21.386   0.168  51.628  1.00  0.00     0.170 C 
HETATM   15  O2  UNL     1      21.853   0.902  50.562  1.00  0.00    -0.389 OA
HETATM   16  C16 UNL     1      21.542   2.238  50.778  1.00  0.00     0.199 C 
ENDBRANCH  11  12
ENDBRANCH  10  11
ENDBRANCH   1  10
BRANCH   2  17
HETATM   17  C7  UNL     1      26.383   2.006  53.541  1.00  0.00     0.240 C 
HETATM   18  N3  UNL     1      27.740   2.241  53.799  1.00  0.00    -0.253 NA
HETATM   19  C8  UNL     1      28.932   1.780  53.932  1.00  0.00     0.229 C 
HETATM   20  N4  UNL     1      29.633   0.492  53.866  1.00  0.00    -0.246 NA
HETATM   21  C9  UNL     1      29.169  -0.758  53.790  1.00  0.00     0.183 C 
HETATM   22  C10 UNL     1      27.934  -0.252  53.802  1.00  0.00    -0.036 C 
HETATM   23  C11 UNL     1      26.919   0.187  53.814  1.00  0.00     0.014 C 
HETATM   24  N5  UNL     1      25.734   0.726  53.828  1.00  0.00    -0.323 N 
HETATM   25  H16 UNL     1      24.854   0.252  53.997  1.00  0.00     0.172 HD
ENDBRANCH   2  17
TORSDOF 8
ENDMDL
