MODEL 1
REMARK VINA RESULT:      -8.4      0.000      0.000
REMARK  4 active torsions:
REMARK  status: ('A' for Active; 'I' for Inactive)
REMARK    1  A    between atoms: N1_1  and  C1_2 
REMARK    2  A    between atoms: C7_9  and  O1_10 
REMARK    3  A    between atoms: O1_10  and  C8_11 
REMARK    4  A    between atoms: C8_11  and  C9_12 
ROOT
HETATM    1  C1  UNL     1      20.325   0.348  52.059  1.00  0.00     0.037 A 
HETATM    2  C2  UNL     1      19.107  -0.113  52.277  1.00  0.00     0.022 A 
HETATM    3  C3  UNL     1      18.781  -1.063  53.342  1.00  0.00     0.149 A 
HETATM    4  N2  UNL     1      19.891  -1.472  54.155  1.00  0.00    -0.386 N 
HETATM    5  C4  UNL     1      21.180  -0.948  53.881  1.00  0.00     0.042 A 
HETATM    6  C5  UNL     1      22.182  -1.397  54.711  1.00  0.00     0.033 A 
HETATM    7  C6  UNL     1      23.450  -0.920  54.489  1.00  0.00     0.041 A 
HETATM    8  C7  UNL     1      23.836  -0.032  53.515  1.00  0.00     0.091 A 
HETATM    9  C15 UNL     1      22.775   0.398  52.691  1.00  0.00     0.082 A 
HETATM   10 CL1  UNL     1      22.893   1.537  51.336  1.00  0.00    -0.080 Cl
HETATM   11  C16 UNL     1      21.463  -0.055  52.873  1.00  0.00     0.041 A 
HETATM   12  H6  UNL     1      19.670  -2.148  54.916  1.00  0.00     0.160 HD
ENDROOT
BRANCH   8  13
HETATM   13  O1  UNL     1      24.954   0.583  53.082  1.00  0.00    -0.345 OA
BRANCH  13  14
HETATM   14  C8  UNL     1      25.893   0.163  52.167  1.00  0.00     0.214 C 
BRANCH  14  15
HETATM   15  C9  UNL     1      27.252   0.103  52.750  1.00  0.00    -0.031 A 
HETATM   16  C10 UNL     1      28.159   1.018  53.225  1.00  0.00     0.009 A 
HETATM   17  C11 UNL     1      29.362   0.664  53.739  1.00  0.00     0.004 A 
HETATM   18  C12 UNL     1      29.768  -0.661  53.824  1.00  0.00     0.042 A 
HETATM   19  C13 UNL     1      28.896  -1.616  53.361  1.00  0.00     0.117 A 
HETATM   20  F1  UNL     1      29.332  -2.879  53.463  1.00  0.00    -0.206 F 
HETATM   21  C14 UNL     1      27.661  -1.239  52.834  1.00  0.00     0.051 A 
ENDBRANCH  14  15
ENDBRANCH  13  14
ENDBRANCH   8  13
BRANCH   1  22
HETATM   22  N1  UNL     1      20.558   1.270  51.002  1.00  0.00    -0.399 N 
HETATM   23  H1  UNL     1      21.460   1.715  51.324  1.00  0.00     0.156 HD
HETATM   24  H2  UNL     1      19.757   1.152  50.327  1.00  0.00     0.156 HD
ENDBRANCH   1  22
TORSDOF 4
ENDMDL
MODEL 2
REMARK VINA RESULT:      -8.3      4.947      7.077
REMARK  4 active torsions:
REMARK  status: ('A' for Active; 'I' for Inactive)
REMARK    1  A    between atoms: N1_1  and  C1_2 
REMARK    2  A    between atoms: C7_9  and  O1_10 
REMARK    3  A    between atoms: O1_10  and  C8_11 
REMARK    4  A    between atoms: C8_11  and  C9_12 
ROOT
HETATM    1  C1  UNL     1      29.137  -0.202  53.420  1.00  0.00     0.037 A 
HETATM    2  C2  UNL     1      29.733  -1.379  53.473  1.00  0.00     0.022 A 
HETATM    3  C3  UNL     1      29.031  -2.649  53.276  1.00  0.00     0.149 A 
HETATM    4  N2  UNL     1      27.625  -2.535  53.015  1.00  0.00    -0.386 N 
HETATM    5  C4  UNL     1      27.032  -1.248  52.967  1.00  0.00     0.042 A 
HETATM    6  C5  UNL     1      25.679  -1.236  52.711  1.00  0.00     0.033 A 
HETATM    7  C6  UNL     1      25.055  -0.015  52.654  1.00  0.00     0.041 A 
HETATM    8  C7  UNL     1      25.639   1.215  52.827  1.00  0.00     0.091 A 
HETATM    9  C15 UNL     1      27.024   1.152  53.086  1.00  0.00     0.082 A 
HETATM   10 CL1  UNL     1      28.106   2.531  53.361  1.00  0.00    -0.080 Cl
HETATM   11  C16 UNL     1      27.712  -0.066  53.155  1.00  0.00     0.041 A 
HETATM   12  H6  UNL     1      27.117  -3.433  52.873  1.00  0.00     0.160 HD
ENDROOT
BRANCH   8  13
HETATM   13  O1  UNL     1      25.292   2.517  52.826  1.00  0.00    -0.345 OA
BRANCH  13  14
HETATM   14  C8  UNL     1      24.542   3.229  51.917  1.00  0.00     0.214 C 
BRANCH  14  15
HETATM   15  C9  UNL     1      25.375   3.810  50.841  1.00  0.00    -0.031 A 
HETATM   16  C10 UNL     1      26.482   3.413  50.131  1.00  0.00     0.009 A 
HETATM   17  C11 UNL     1      27.038   4.167  49.152  1.00  0.00     0.004 A 
HETATM   18  C12 UNL     1      26.526   5.406  48.792  1.00  0.00     0.042 A 
HETATM   19  C13 UNL     1      25.419   5.850  49.473  1.00  0.00     0.117 A 
HETATM   20  F1  UNL     1      24.961   7.050  49.092  1.00  0.00    -0.206 F 
HETATM   21  C14 UNL     1      24.855   5.064  50.478  1.00  0.00     0.051 A 
ENDBRANCH  14  15
ENDBRANCH  13  14
ENDBRANCH   8  13
BRANCH   1  22
HETATM   22  N1  UNL     1      29.890   0.987  53.622  1.00  0.00    -0.399 N 
HETATM   23  H1  UNL     1      29.666   1.193  54.633  1.00  0.00     0.156 HD
HETATM   24  H2  UNL     1      30.365   1.194  52.704  1.00  0.00     0.156 HD
ENDBRANCH   1  22
TORSDOF 4
ENDMDL
MODEL 3
REMARK VINA RESULT:      -8.2      3.811      7.406
REMARK  4 active torsions:
REMARK  status: ('A' for Active; 'I' for Inactive)
REMARK    1  A    between atoms: N1_1  and  C1_2 
REMARK    2  A    between atoms: C7_9  and  O1_10 
REMARK    3  A    between atoms: O1_10  and  C8_11 
REMARK    4  A    between atoms: C8_11  and  C9_12 
ROOT
HETATM    1  C1  UNL     1      28.433  -1.507  53.157  1.00  0.00     0.037 A 
HETATM    2  C2  UNL     1      29.704  -1.577  53.511  1.00  0.00     0.022 A 
HETATM    3  C3  UNL     1      30.535  -0.401  53.774  1.00  0.00     0.149 A 
HETATM    4  N2  UNL     1      29.870   0.862  53.621  1.00  0.00    -0.386 N 
HETATM    5  C4  UNL     1      28.505   0.884  53.240  1.00  0.00     0.042 A 
HETATM    6  C5  UNL     1      27.952   2.139  53.118  1.00  0.00     0.033 A 
HETATM    7  C6  UNL     1      26.631   2.217  52.752  1.00  0.00     0.041 A 
HETATM    8  C7  UNL     1      25.788   1.166  52.488  1.00  0.00     0.091 A 
HETATM    9  C15 UNL     1      26.399  -0.097  52.626  1.00  0.00     0.082 A 
HETATM   10 CL1  UNL     1      25.625  -1.673  52.369  1.00  0.00    -0.080 Cl
HETATM   11  C16 UNL     1      27.742  -0.236  52.998  1.00  0.00     0.041 A 
HETATM   12  H6  UNL     1      30.453   1.705  53.806  1.00  0.00     0.160 HD
ENDROOT
BRANCH   8  13
HETATM   13  O1  UNL     1      24.508   0.953  52.125  1.00  0.00    -0.345 OA
BRANCH  13  14
HETATM   14  C8  UNL     1      23.342   1.409  52.697  1.00  0.00     0.214 C 
BRANCH  14  15
HETATM   15  C9  UNL     1      22.567   0.318  53.329  1.00  0.00    -0.031 A 
HETATM   16  C10 UNL     1      22.838  -0.693  54.220  1.00  0.00     0.009 A 
HETATM   17  C11 UNL     1      21.895  -1.563  54.654  1.00  0.00     0.004 A 
HETATM   18  C12 UNL     1      20.575  -1.498  54.228  1.00  0.00     0.042 A 
HETATM   19  C13 UNL     1      20.253  -0.505  53.335  1.00  0.00     0.117 A 
HETATM   20  F1  UNL     1      18.969  -0.481  52.952  1.00  0.00    -0.206 F 
HETATM   21  C14 UNL     1      21.232   0.386  52.896  1.00  0.00     0.051 A 
ENDBRANCH  14  15
ENDBRANCH  13  14
ENDBRANCH   8  13
BRANCH   1  22
HETATM   22  N1  UNL     1      27.694  -2.698  52.920  1.00  0.00    -0.399 N 
HETATM   23  H1  UNL     1      26.771  -2.451  53.370  1.00  0.00     0.156 HD
HETATM   24  H2  UNL     1      28.342  -3.348  52.402  1.00  0.00     0.156 HD
ENDBRANCH   1  22
TORSDOF 4
ENDMDL
MODEL 4
REMARK VINA RESULT:      -8.2      1.390      2.349
REMARK  4 active torsions:
REMARK  status: ('A' for Active; 'I' for Inactive)
REMARK    1  A    between atoms: N1_1  and  C1_2 
REMARK    2  A    between atoms: C7_9  and  O1_10 
REMARK    3  A    between atoms: O1_10  and  C8_11 
REMARK    4  A    between atoms: C8_11  and  C9_12 
ROOT
HETATM    1  C1  UNL     1      20.446  -0.607  53.419  1.00  0.00     0.037 A 
HETATM    2  C2  UNL     1      19.229  -0.500  52.917  1.00  0.00     0.022 A 
HETATM    3  C3  UNL     1      18.915   0.278  51.717  1.00  0.00     0.149 A 
HETATM    4  N2  UNL     1      20.036   0.932  51.104  1.00  0.00    -0.386 N 
HETATM    5  C4  UNL     1      21.323   0.786  51.680  1.00  0.00     0.042 A 
HETATM    6  C5  UNL     1      22.336   1.449  51.025  1.00  0.00     0.033 A 
HETATM    7  C6  UNL     1      23.604   1.340  51.542  1.00  0.00     0.041 A 
HETATM    8  C7  UNL     1      23.978   0.634  52.658  1.00  0.00     0.091 A 
HETATM    9  C15 UNL     1      22.907  -0.027  53.294  1.00  0.00     0.082 A 
HETATM   10 CL1  UNL     1      23.009  -1.029  54.754  1.00  0.00    -0.080 Cl
HETATM   11  C16 UNL     1      21.595   0.048  52.810  1.00  0.00     0.041 A 
HETATM   12  H6  UNL     1      19.823   1.488  50.249  1.00  0.00     0.160 HD
ENDROOT
BRANCH   8  13
HETATM   13  O1  UNL     1      25.092   0.361  53.365  1.00  0.00    -0.345 OA
BRANCH  13  14
HETATM   14  C8  UNL     1      26.126   1.192  53.737  1.00  0.00     0.214 C 
BRANCH  14  15
HETATM   15  C9  UNL     1      27.441   0.519  53.650  1.00  0.00    -0.031 A 
HETATM   16  C10 UNL     1      28.747   0.880  53.876  1.00  0.00     0.009 A 
HETATM   17  C11 UNL     1      29.784   0.020  53.732  1.00  0.00     0.004 A 
HETATM   18  C12 UNL     1      29.601  -1.300  53.344  1.00  0.00     0.042 A 
HETATM   19  C13 UNL     1      28.312  -1.711  53.105  1.00  0.00     0.117 A 
HETATM   20  F1  UNL     1      28.185  -2.992  52.733  1.00  0.00    -0.206 F 
HETATM   21  C14 UNL     1      27.253  -0.816  53.257  1.00  0.00     0.051 A 
ENDBRANCH  14  15
ENDBRANCH  13  14
ENDBRANCH   8  13
BRANCH   1  22
HETATM   22  N1  UNL     1      20.668  -1.383  54.589  1.00  0.00    -0.399 N 
HETATM   23  H1  UNL     1      20.935  -2.312  54.162  1.00  0.00     0.156 HD
HETATM   24  H2  UNL     1      20.482  -0.743  55.406  1.00  0.00     0.156 HD
ENDBRANCH   1  22
TORSDOF 4
ENDMDL
MODEL 5
REMARK VINA RESULT:      -8.2      4.392      6.952
REMARK  4 active torsions:
REMARK  status: ('A' for Active; 'I' for Inactive)
REMARK    1  A    between atoms: N1_1  and  C1_2 
REMARK    2  A    between atoms: C7_9  and  O1_10 
REMARK    3  A    between atoms: O1_10  and  C8_11 
REMARK    4  A    between atoms: C8_11  and  C9_12 
ROOT
HETATM    1  C1  UNL     1      29.178  -0.242  53.482  1.00  0.00     0.037 A 
HETATM    2  C2  UNL     1      29.760  -1.426  53.418  1.00  0.00     0.022 A 
HETATM    3  C3  UNL     1      29.026  -2.677  53.223  1.00  0.00     0.149 A 
HETATM    4  N2  UNL     1      27.603  -2.537  53.101  1.00  0.00    -0.386 N 
HETATM    5  C4  UNL     1      27.026  -1.244  53.176  1.00  0.00     0.042 A 
HETATM    6  C5  UNL     1      25.656  -1.207  53.049  1.00  0.00     0.033 A 
HETATM    7  C6  UNL     1      25.046   0.022  53.114  1.00  0.00     0.041 A 
HETATM    8  C7  UNL     1      25.660   1.236  53.294  1.00  0.00     0.091 A 
HETATM    9  C15 UNL     1      27.063   1.146  53.419  1.00  0.00     0.082 A 
HETATM   10 CL1  UNL     1      28.184   2.499  53.662  1.00  0.00    -0.080 Cl
HETATM   11  C16 UNL     1      27.737  -0.080  53.360  1.00  0.00     0.041 A 
HETATM   12  H6  UNL     1      27.072  -3.422  52.962  1.00  0.00     0.160 HD
ENDROOT
BRANCH   8  13
HETATM   13  O1  UNL     1      25.333   2.539  53.394  1.00  0.00    -0.345 OA
BRANCH  13  14
HETATM   14  C8  UNL     1      24.172   3.186  53.034  1.00  0.00     0.214 C 
BRANCH  14  15
HETATM   15  C9  UNL     1      24.022   3.287  51.565  1.00  0.00    -0.031 A 
HETATM   16  C10 UNL     1      24.610   4.023  50.564  1.00  0.00     0.009 A 
HETATM   17  C11 UNL     1      24.277   3.886  49.258  1.00  0.00     0.004 A 
HETATM   18  C12 UNL     1      23.311   2.985  48.831  1.00  0.00     0.042 A 
HETATM   19  C13 UNL     1      22.693   2.225  49.794  1.00  0.00     0.117 A 
HETATM   20  F1  UNL     1      21.768   1.371  49.335  1.00  0.00    -0.206 F 
HETATM   21  C14 UNL     1      23.044   2.374  51.135  1.00  0.00     0.051 A 
ENDBRANCH  14  15
ENDBRANCH  13  14
ENDBRANCH   8  13
BRANCH   1  22
HETATM   22  N1  UNL     1      29.963   0.928  53.674  1.00  0.00    -0.399 N 
HETATM   23  H1  UNL     1      29.502   1.589  52.992  1.00  0.00     0.156 HD
HETATM   24  H2  UNL     1      30.683   0.682  54.404  1.00  0.00     0.156 HD
ENDBRANCH   1  22
TORSDOF 4
ENDMDL
MODEL 6
REMARK VINA RESULT:      -7.9      3.832      7.448
REMARK  4 active torsions:
REMARK  status: ('A' for Active; 'I' for Inactive)
REMARK    1  A    between atoms: N1_1  and  C1_2 
REMARK    2  A    between atoms: C7_9  and  O1_10 
REMARK    3  A    between atoms: O1_10  and  C8_11 
REMARK    4  A    between atoms: C8_11  and  C9_12 
ROOT
HETATM    1  C1  UNL     1      27.305   1.832  52.893  1.00  0.00     0.037 A 
HETATM    2  C2  UNL     1      28.452   1.661  53.527  1.00  0.00     0.022 A 
HETATM    3  C3  UNL     1      28.650   0.667  54.584  1.00  0.00     0.149 A 
HETATM    4  N2  UNL     1      27.498  -0.129  54.897  1.00  0.00    -0.386 N 
HETATM    5  C4  UNL     1      26.290   0.093  54.188  1.00  0.00     0.042 A 
HETATM    6  C5  UNL     1      25.239  -0.716  54.556  1.00  0.00     0.033 A 
HETATM    7  C6  UNL     1      24.045  -0.543  53.901  1.00  0.00     0.041 A 
HETATM    8  C7  UNL     1      23.779   0.363  52.904  1.00  0.00     0.091 A 
HETATM    9  C15 UNL     1      24.885   1.168  52.562  1.00  0.00     0.082 A 
HETATM   10 CL1  UNL     1      24.917   2.440  51.326  1.00  0.00    -0.080 Cl
HETATM   11  C16 UNL     1      26.126   1.034  53.197  1.00  0.00     0.041 A 
HETATM   12  H6  UNL     1      27.629  -0.839  55.648  1.00  0.00     0.160 HD
ENDROOT
BRANCH   8  13
HETATM   13  O1  UNL     1      22.752   0.740  52.116  1.00  0.00    -0.345 OA
BRANCH  13  14
HETATM   14  C8  UNL     1      21.613   1.445  52.432  1.00  0.00     0.214 C 
BRANCH  14  15
HETATM   15  C9  UNL     1      20.427   0.567  52.547  1.00  0.00    -0.031 A 
HETATM   16  C10 UNL     1      19.922  -0.285  53.500  1.00  0.00     0.009 A 
HETATM   17  C11 UNL     1      18.763  -0.967  53.337  1.00  0.00     0.004 A 
HETATM   18  C12 UNL     1      17.994  -0.855  52.186  1.00  0.00     0.042 A 
HETATM   19  C13 UNL     1      18.456  -0.016  51.202  1.00  0.00     0.117 A 
HETATM   20  F1  UNL     1      17.682   0.059  50.111  1.00  0.00    -0.206 F 
HETATM   21  C14 UNL     1      19.651   0.682  51.381  1.00  0.00     0.051 A 
ENDBRANCH  14  15
ENDBRANCH  13  14
ENDBRANCH   8  13
BRANCH   1  22
HETATM   22  N1  UNL     1      27.194   2.820  51.877  1.00  0.00    -0.399 N 
HETATM   23  H1  UNL     1      28.210   3.069  51.732  1.00  0.00     0.156 HD
HETATM   24  H2  UNL     1      26.165   2.916  51.672  1.00  0.00     0.156 HD
ENDBRANCH   1  22
TORSDOF 4
ENDMDL
MODEL 7
REMARK VINA RESULT:      -7.9      4.235      5.442
REMARK  4 active torsions:
REMARK  status: ('A' for Active; 'I' for Inactive)
REMARK    1  A    between atoms: N1_1  and  C1_2 
REMARK    2  A    between atoms: C7_9  and  O1_10 
REMARK    3  A    between atoms: O1_10  and  C8_11 
REMARK    4  A    between atoms: C8_11  and  C9_12 
ROOT
HETATM    1  C1  UNL     1      25.374   5.983  50.098  1.00  0.00     0.037 A 
HETATM    2  C2  UNL     1      24.984   7.245  50.061  1.00  0.00     0.022 A 
HETATM    3  C3  UNL     1      23.796   7.743  50.756  1.00  0.00     0.149 A 
HETATM    4  N2  UNL     1      23.063   6.756  51.496  1.00  0.00    -0.386 N 
HETATM    5  C4  UNL     1      23.522   5.415  51.505  1.00  0.00     0.042 A 
HETATM    6  C5  UNL     1      22.757   4.539  52.241  1.00  0.00     0.033 A 
HETATM    7  C6  UNL     1      23.158   3.227  52.283  1.00  0.00     0.041 A 
HETATM    8  C7  UNL     1      24.255   2.683  51.661  1.00  0.00     0.091 A 
HETATM    9  C15 UNL     1      25.007   3.618  50.920  1.00  0.00     0.082 A 
HETATM   10 CL1  UNL     1      26.480   3.282  49.991  1.00  0.00    -0.080 Cl
HETATM   11  C16 UNL     1      24.644   4.969  50.844  1.00  0.00     0.041 A 
HETATM   12  H6  UNL     1      22.216   7.102  51.994  1.00  0.00     0.160 HD
ENDROOT
BRANCH   8  13
HETATM   13  O1  UNL     1      24.864   1.488  51.532  1.00  0.00    -0.345 OA
BRANCH  13  14
HETATM   14  C8  UNL     1      25.273   0.598  52.499  1.00  0.00     0.214 C 
BRANCH  14  15
HETATM   15  C9  UNL     1      26.667   0.845  52.931  1.00  0.00    -0.031 A 
HETATM   16  C10 UNL     1      27.406   1.949  53.284  1.00  0.00     0.009 A 
HETATM   17  C11 UNL     1      28.702   1.873  53.671  1.00  0.00     0.004 A 
HETATM   18  C12 UNL     1      29.385   0.666  53.739  1.00  0.00     0.042 A 
HETATM   19  C13 UNL     1      28.690  -0.468  53.395  1.00  0.00     0.117 A 
HETATM   20  F1  UNL     1      29.389  -1.609  53.476  1.00  0.00    -0.206 F 
HETATM   21  C14 UNL     1      27.356  -0.378  52.999  1.00  0.00     0.051 A 
ENDBRANCH  14  15
ENDBRANCH  13  14
ENDBRANCH   8  13
BRANCH   1  22
HETATM   22  N1  UNL     1      26.541   5.579  49.395  1.00  0.00    -0.399 N 
HETATM   23  H1  UNL     1      26.725   4.640  49.842  1.00  0.00     0.156 HD
HETATM   24  H2  UNL     1      26.763   6.357  48.720  1.00  0.00     0.156 HD
ENDBRANCH   1  22
TORSDOF 4
ENDMDL
MODEL 8
REMARK VINA RESULT:      -7.9      3.963      7.360
REMARK  4 active torsions:
REMARK  status: ('A' for Active; 'I' for Inactive)
REMARK    1  A    between atoms: N1_1  and  C1_2 
REMARK    2  A    between atoms: C7_9  and  O1_10 
REMARK    3  A    between atoms: O1_10  and  C8_11 
REMARK    4  A    between atoms: C8_11  and  C9_12 
ROOT
HETATM    1  C1  UNL     1      27.995  -1.317  53.201  1.00  0.00     0.037 A 
HETATM    2  C2  UNL     1      29.268  -1.661  53.278  1.00  0.00     0.022 A 
HETATM    3  C3  UNL     1      30.352  -0.700  53.491  1.00  0.00     0.149 A 
HETATM    4  N2  UNL     1      29.939   0.669  53.613  1.00  0.00    -0.386 N 
HETATM    5  C4  UNL     1      28.560   0.986  53.524  1.00  0.00     0.042 A 
HETATM    6  C5  UNL     1      28.258   2.323  53.653  1.00  0.00     0.033 A 
HETATM    7  C6  UNL     1      26.936   2.686  53.574  1.00  0.00     0.041 A 
HETATM    8  C7  UNL     1      25.865   1.849  53.377  1.00  0.00     0.091 A 
HETATM    9  C15 UNL     1      26.224   0.491  53.251  1.00  0.00     0.082 A 
HETATM   10 CL1  UNL     1      25.116  -0.869  52.989  1.00  0.00    -0.080 Cl
HETATM   11  C16 UNL     1      27.557   0.065  53.324  1.00  0.00     0.041 A 
HETATM   12  H6  UNL     1      30.703   1.360  53.765  1.00  0.00     0.160 HD
ENDROOT
BRANCH   8  13
HETATM   13  O1  UNL     1      24.524   1.920  53.262  1.00  0.00    -0.345 OA
BRANCH  13  14
HETATM   14  C8  UNL     1      23.749   2.738  52.471  1.00  0.00     0.214 C 
BRANCH  14  15
HETATM   15  C9  UNL     1      22.876   1.966  51.558  1.00  0.00    -0.031 A 
HETATM   16  C10 UNL     1      21.944   0.966  51.700  1.00  0.00     0.009 A 
HETATM   17  C11 UNL     1      21.259   0.446  50.654  1.00  0.00     0.004 A 
HETATM   18  C12 UNL     1      21.449   0.888  49.351  1.00  0.00     0.042 A 
HETATM   19  C13 UNL     1      22.371   1.886  49.156  1.00  0.00     0.117 A 
HETATM   20  F1  UNL     1      22.521   2.280  47.884  1.00  0.00    -0.206 F 
HETATM   21  C14 UNL     1      23.071   2.415  50.241  1.00  0.00     0.051 A 
ENDBRANCH  14  15
ENDBRANCH  13  14
ENDBRANCH   8  13
BRANCH   1  22
HETATM   22  N1  UNL     1      27.001  -2.312  52.994  1.00  0.00    -0.399 N 
HETATM   23  H1  UNL     1      26.655  -2.455  53.981  1.00  0.00     0.156 HD
HETATM   24  H2  UNL     1      26.998  -2.514  51.959  1.00  0.00     0.156 HD
ENDBRANCH   1  22
TORSDOF 4
ENDMDL
MODEL 9
REMARK VINA RESULT:      -7.9      2.128      2.730
REMARK  4 active torsions:
REMARK  status: ('A' for Active; 'I' for Inactive)
REMARK    1  A    between atoms: N1_1  and  C1_2 
REMARK    2  A    between atoms: C7_9  and  O1_10 
REMARK    3  A    between atoms: O1_10  and  C8_11 
REMARK    4  A    between atoms: C8_11  and  C9_12 
ROOT
HETATM    1  C1  UNL     1      22.119   3.286  51.850  1.00  0.00     0.037 A 
HETATM    2  C2  UNL     1      20.887   3.708  51.633  1.00  0.00     0.022 A 
HETATM    3  C3  UNL     1      19.694   2.936  51.990  1.00  0.00     0.149 A 
HETATM    4  N2  UNL     1      19.951   1.665  52.605  1.00  0.00    -0.386 N 
HETATM    5  C4  UNL     1      21.293   1.258  52.816  1.00  0.00     0.042 A 
HETATM    6  C5  UNL     1      21.442   0.025  53.411  1.00  0.00     0.033 A 
HETATM    7  C6  UNL     1      22.722  -0.418  53.639  1.00  0.00     0.041 A 
HETATM    8  C7  UNL     1      23.886   0.241  53.335  1.00  0.00     0.091 A 
HETATM    9  C15 UNL     1      23.682   1.498  52.728  1.00  0.00     0.082 A 
HETATM   10 CL1  UNL     1      24.944   2.627  52.199  1.00  0.00    -0.080 Cl
HETATM   11  C16 UNL     1      22.400   2.000  52.472  1.00  0.00     0.041 A 
HETATM   12  H6  UNL     1      19.110   1.109  52.863  1.00  0.00     0.160 HD
ENDROOT
BRANCH   8  13
HETATM   13  O1  UNL     1      25.218   0.059  53.437  1.00  0.00    -0.345 OA
BRANCH  13  14
HETATM   14  C8  UNL     1      25.996  -1.003  53.035  1.00  0.00     0.214 C 
BRANCH  14  15
HETATM   15  C9  UNL     1      27.439  -0.746  53.239  1.00  0.00    -0.031 A 
HETATM   16  C10 UNL     1      28.585  -1.503  53.216  1.00  0.00     0.009 A 
HETATM   17  C11 UNL     1      29.817  -0.979  53.425  1.00  0.00     0.004 A 
HETATM   18  C12 UNL     1      30.013   0.372  53.679  1.00  0.00     0.042 A 
HETATM   19  C13 UNL     1      28.897   1.172  53.713  1.00  0.00     0.117 A 
HETATM   20  F1  UNL     1      29.135   2.467  53.962  1.00  0.00    -0.206 F 
HETATM   21  C14 UNL     1      27.634   0.621  53.497  1.00  0.00     0.051 A 
ENDBRANCH  14  15
ENDBRANCH  13  14
ENDBRANCH   8  13
BRANCH   1  22
HETATM   22  N1  UNL     1      23.225   4.095  51.473  1.00  0.00    -0.399 N 
HETATM   23  H1  UNL     1      23.052   4.954  52.063  1.00  0.00     0.156 HD
HETATM   24  H2  UNL     1      23.773   3.535  50.768  1.00  0.00     0.156 HD
ENDBRANCH   1  22
TORSDOF 4
ENDMDL
