MODEL 1
REMARK VINA RESULT:      -7.6      0.000      0.000
REMARK  5 active torsions:
REMARK  status: ('A' for Active; 'I' for Inactive)
REMARK    1  A    between atoms: C4_4  and  C5_5 
REMARK    2  A    between atoms: C5_5  and  C14_16 
REMARK    3  A    between atoms: C6_6  and  C7_7 
REMARK    4  A    between atoms: C7_7  and  N1_8 
REMARK    5  A    between atoms: N1_8  and  C8_9 
REMARK       I    between atoms: C14_16  and  N2_17 
ROOT
HETATM    1  C5  UNL     1      25.146   0.556  53.186  1.00  0.00     0.039 C 
HETATM    2  C6  UNL     1      25.434   1.044  52.005  1.00  0.00     0.010 C 
ENDROOT
BRANCH   1   3
HETATM    3  C4  UNL     1      23.850  -0.014  53.510  1.00  0.00    -0.024 A 
HETATM    4  C3  UNL     1      22.755   0.331  52.619  1.00  0.00     0.019 A 
HETATM    5  C2  UNL     1      21.522  -0.055  52.709  1.00  0.00    -0.058 A 
HETATM    6  C1  UNL     1      20.403   0.286  51.815  1.00  0.00     0.049 C 
HETATM    7  P1  UNL     1      20.917  -1.156  54.038  1.00  0.00    -0.096 P 
HETATM    8  C16 UNL     1      22.443  -1.485  55.068  1.00  0.00     0.064 A 
HETATM    9  H22 UNL     1      19.916  -0.484  54.840  1.00  0.00     0.062 HD
HETATM   10  C15 UNL     1      23.593  -0.792  54.515  1.00  0.00    -0.010 A 
ENDBRANCH   1   3
BRANCH   1  11
HETATM   11  C14 UNL     1      26.211   0.625  54.146  1.00  0.00     0.249 C 
HETATM   12  N2  UNL     1      27.086  -0.124  54.953  1.00  0.00    -0.366 N 
HETATM   13  H17 UNL     1      26.970  -0.478  55.945  1.00  0.00     0.159 HD
HETATM   14  H18 UNL     1      28.039  -0.508  54.770  1.00  0.00     0.159 HD
HETATM   15  O1  UNL     1      26.728   1.667  54.592  1.00  0.00    -0.268 OA
ENDBRANCH   1  11
BRANCH   2  16
HETATM   16  C7  UNL     1      26.490   1.674  51.229  1.00  0.00     0.148 C 
BRANCH  16  17
HETATM   17  N1  UNL     1      26.606   3.114  51.520  1.00  0.00    -0.389 N 
HETATM   18  H8  UNL     1      26.944   3.795  52.221  1.00  0.00     0.159 HD
BRANCH  17  19
HETATM   19  C8  UNL     1      26.052   3.897  50.446  1.00  0.00     0.018 C 
HETATM   20  C9  UNL     1      24.847   4.428  50.548  1.00  0.00     0.011 C 
HETATM   21 BR1  UNL     1      23.768   4.189  52.126  1.00  0.00    -0.054 Br
HETATM   22  C10 UNL     1      24.307   5.226  49.431  1.00  0.00     0.048 C 
HETATM   23  C11 UNL     1      25.317   5.875  48.556  1.00  0.00     0.006 C 
HETATM   24  C12 UNL     1      26.742   5.517  48.816  1.00  0.00     0.006 C 
HETATM   25  C13 UNL     1      26.900   4.072  49.235  1.00  0.00     0.058 C 
ENDBRANCH  17  19
ENDBRANCH  16  17
ENDBRANCH   2  16
TORSDOF 5
ENDMDL
MODEL 2
REMARK VINA RESULT:      -7.4      4.246      7.926
REMARK  5 active torsions:
REMARK  status: ('A' for Active; 'I' for Inactive)
REMARK    1  A    between atoms: C4_4  and  C5_5 
REMARK    2  A    between atoms: C5_5  and  C14_16 
REMARK    3  A    between atoms: C6_6  and  C7_7 
REMARK    4  A    between atoms: C7_7  and  N1_8 
REMARK    5  A    between atoms: N1_8  and  C8_9 
REMARK       I    between atoms: C14_16  and  N2_17 
ROOT
HETATM    1  C5  UNL     1      26.199   4.562  49.410  1.00  0.00     0.039 C 
HETATM    2  C6  UNL     1      26.762   3.561  50.042  1.00  0.00     0.010 C 
ENDROOT
BRANCH   1   3
HETATM    3  C4  UNL     1      26.960   5.571  48.695  1.00  0.00    -0.024 A 
HETATM    4  C3  UNL     1      28.375   5.297  48.506  1.00  0.00     0.019 A 
HETATM    5  C2  UNL     1      29.243   6.046  47.904  1.00  0.00    -0.058 A 
HETATM    6  C1  UNL     1      30.678   5.782  47.706  1.00  0.00     0.049 C 
HETATM    7  P1  UNL     1      28.817   7.657  47.150  1.00  0.00    -0.096 P 
HETATM    8  C16 UNL     1      26.987   7.833  47.490  1.00  0.00     0.064 A 
HETATM    9  H22 UNL     1      29.544   8.730  47.796  1.00  0.00     0.062 HD
HETATM   10  C15 UNL     1      26.487   6.680  48.219  1.00  0.00    -0.010 A 
ENDBRANCH   1   3
BRANCH   1  11
HETATM   11  C14 UNL     1      24.766   4.590  49.476  1.00  0.00     0.249 C 
HETATM   12  N2  UNL     1      23.575   4.466  48.736  1.00  0.00    -0.366 N 
HETATM   13  H17 UNL     1      23.006   5.200  48.228  1.00  0.00     0.159 HD
HETATM   14  H18 UNL     1      22.982   3.638  48.512  1.00  0.00     0.159 HD
HETATM   15  O1  UNL     1      24.083   4.788  50.499  1.00  0.00    -0.268 OA
ENDBRANCH   1  11
BRANCH   2  16
HETATM   16  C7  UNL     1      26.480   2.381  50.844  1.00  0.00     0.148 C 
BRANCH  16  17
HETATM   17  N1  UNL     1      26.041   2.729  52.206  1.00  0.00    -0.389 N 
HETATM   18  H8  UNL     1      25.401   3.339  52.743  1.00  0.00     0.159 HD
BRANCH  17  19
HETATM   19  C8  UNL     1      26.747   1.943  53.185  1.00  0.00     0.018 C 
HETATM   20  C9  UNL     1      26.169   0.906  53.764  1.00  0.00     0.011 C 
HETATM   21 BR1  UNL     1      24.364   0.386  53.337  1.00  0.00    -0.054 Br
HETATM   22  C10 UNL     1      26.918   0.120  54.763  1.00  0.00     0.048 C 
HETATM   23  C11 UNL     1      28.397   0.147  54.627  1.00  0.00     0.006 C 
HETATM   24  C12 UNL     1      28.948   1.082  53.602  1.00  0.00     0.006 C 
HETATM   25  C13 UNL     1      28.140   2.358  53.503  1.00  0.00     0.058 C 
ENDBRANCH  17  19
ENDBRANCH  16  17
ENDBRANCH   2  16
TORSDOF 5
ENDMDL
MODEL 3
REMARK VINA RESULT:      -7.4      3.583      4.511
REMARK  5 active torsions:
REMARK  status: ('A' for Active; 'I' for Inactive)
REMARK    1  A    between atoms: C4_4  and  C5_5 
REMARK    2  A    between atoms: C5_5  and  C14_16 
REMARK    3  A    between atoms: C6_6  and  C7_7 
REMARK    4  A    between atoms: C7_7  and  N1_8 
REMARK    5  A    between atoms: N1_8  and  C8_9 
REMARK       I    between atoms: C14_16  and  N2_17 
ROOT
HETATM    1  C5  UNL     1      26.129   2.377  51.970  1.00  0.00     0.039 C 
HETATM    2  C6  UNL     1      26.272   2.901  50.777  1.00  0.00     0.010 C 
ENDROOT
BRANCH   1   3
HETATM    3  C4  UNL     1      27.093   1.459  52.550  1.00  0.00    -0.024 A 
HETATM    4  C3  UNL     1      26.842   0.043  52.338  1.00  0.00     0.019 A 
HETATM    5  C2  UNL     1      27.559  -0.950  52.758  1.00  0.00    -0.058 A 
HETATM    6  C1  UNL     1      27.317  -2.387  52.552  1.00  0.00     0.049 C 
HETATM    7  P1  UNL     1      29.087  -0.731  53.738  1.00  0.00    -0.096 P 
HETATM    8  C16 UNL     1      29.242   1.125  53.905  1.00  0.00     0.064 A 
HETATM    9  H22 UNL     1      28.945  -1.334  55.047  1.00  0.00     0.062 HD
HETATM   10  C15 UNL     1      28.144   1.794  53.231  1.00  0.00    -0.010 A 
ENDBRANCH   1   3
BRANCH   1  11
HETATM   11  C14 UNL     1      24.940   2.777  52.668  1.00  0.00     0.249 C 
HETATM   12  N2  UNL     1      24.192   3.873  53.137  1.00  0.00    -0.366 N 
HETATM   13  H17 UNL     1      24.233   4.384  54.063  1.00  0.00     0.159 HD
HETATM   14  H18 UNL     1      23.436   4.436  52.690  1.00  0.00     0.159 HD
HETATM   15  O1  UNL     1      24.077   2.014  53.142  1.00  0.00    -0.268 OA
ENDBRANCH   1  11
BRANCH   2  16
HETATM   16  C7  UNL     1      25.650   3.796  49.814  1.00  0.00     0.148 C 
BRANCH  16  17
HETATM   17  N1  UNL     1      25.938   5.211  50.107  1.00  0.00    -0.389 N 
HETATM   18  H8  UNL     1      25.793   5.962  50.803  1.00  0.00     0.159 HD
BRANCH  17  19
HETATM   19  C8  UNL     1      26.714   5.803  49.048  1.00  0.00     0.018 C 
HETATM   20  C9  UNL     1      26.441   7.018  48.608  1.00  0.00     0.011 C 
HETATM   21 BR1  UNL     1      25.002   8.062  49.350  1.00  0.00    -0.054 Br
HETATM   22  C10 UNL     1      27.253   7.599  47.522  1.00  0.00     0.048 C 
HETATM   23  C11 UNL     1      28.639   7.076  47.405  1.00  0.00     0.006 C 
HETATM   24  C12 UNL     1      28.988   5.927  48.291  1.00  0.00     0.006 C 
HETATM   25  C13 UNL     1      27.821   4.983  48.486  1.00  0.00     0.058 C 
ENDBRANCH  17  19
ENDBRANCH  16  17
ENDBRANCH   2  16
TORSDOF 5
ENDMDL
MODEL 4
REMARK VINA RESULT:      -7.2      3.011      4.916
REMARK  5 active torsions:
REMARK  status: ('A' for Active; 'I' for Inactive)
REMARK    1  A    between atoms: C4_4  and  C5_5 
REMARK    2  A    between atoms: C5_5  and  C14_16 
REMARK    3  A    between atoms: C6_6  and  C7_7 
REMARK    4  A    between atoms: C7_7  and  N1_8 
REMARK    5  A    between atoms: N1_8  and  C8_9 
REMARK       I    between atoms: C14_16  and  N2_17 
ROOT
HETATM    1  C5  UNL     1      22.789   0.094  53.358  1.00  0.00     0.039 C 
HETATM    2  C6  UNL     1      24.073   0.021  53.102  1.00  0.00     0.010 C 
ENDROOT
BRANCH   1   3
HETATM    3  C4  UNL     1      21.939   1.148  52.833  1.00  0.00    -0.024 A 
HETATM    4  C3  UNL     1      22.605   2.381  52.450  1.00  0.00     0.019 A 
HETATM    5  C2  UNL     1      22.057   3.448  51.962  1.00  0.00    -0.058 A 
HETATM    6  C1  UNL     1      22.718   4.704  51.571  1.00  0.00     0.049 C 
HETATM    7  P1  UNL     1      20.260   3.593  51.656  1.00  0.00    -0.096 P 
HETATM    8  C16 UNL     1      19.583   1.937  52.202  1.00  0.00     0.064 A 
HETATM    9  H22 UNL     1      19.688   4.650  52.465  1.00  0.00     0.062 HD
HETATM   10  C15 UNL     1      20.653   1.080  52.681  1.00  0.00    -0.010 A 
ENDBRANCH   1   3
BRANCH   1  11
HETATM   11  C14 UNL     1      22.279  -0.950  54.201  1.00  0.00     0.249 C 
HETATM   12  N2  UNL     1      21.476  -2.103  54.250  1.00  0.00    -0.366 N 
HETATM   13  H17 UNL     1      20.441  -2.210  54.446  1.00  0.00     0.159 HD
HETATM   14  H18 UNL     1      21.702  -3.111  54.103  1.00  0.00     0.159 HD
HETATM   15  O1  UNL     1      22.510  -1.087  55.418  1.00  0.00    -0.268 OA
ENDBRANCH   1  11
BRANCH   2  16
HETATM   16  C7  UNL     1      25.270  -0.764  53.359  1.00  0.00     0.148 C 
BRANCH  16  17
HETATM   17  N1  UNL     1      26.315  -0.526  52.349  1.00  0.00    -0.389 N 
HETATM   18  H8  UNL     1      26.573  -0.701  51.363  1.00  0.00     0.159 HD
BRANCH  17  19
HETATM   19  C8  UNL     1      27.402   0.236  52.909  1.00  0.00     0.018 C 
HETATM   20  C9  UNL     1      27.528   1.525  52.648  1.00  0.00     0.011 C 
HETATM   21 BR1  UNL     1      26.279   2.455  51.515  1.00  0.00    -0.054 Br
HETATM   22  C10 UNL     1      28.652   2.279  53.237  1.00  0.00     0.048 C 
HETATM   23  C11 UNL     1      29.196   1.735  54.508  1.00  0.00     0.006 C 
HETATM   24  C12 UNL     1      28.650   0.418  54.950  1.00  0.00     0.006 C 
HETATM   25  C13 UNL     1      28.357  -0.498  53.782  1.00  0.00     0.058 C 
ENDBRANCH  17  19
ENDBRANCH  16  17
ENDBRANCH   2  16
TORSDOF 5
ENDMDL
MODEL 5
REMARK VINA RESULT:      -7.2      2.965      4.279
REMARK  5 active torsions:
REMARK  status: ('A' for Active; 'I' for Inactive)
REMARK    1  A    between atoms: C4_4  and  C5_5 
REMARK    2  A    between atoms: C5_5  and  C14_16 
REMARK    3  A    between atoms: C6_6  and  C7_7 
REMARK    4  A    between atoms: C7_7  and  N1_8 
REMARK    5  A    between atoms: N1_8  and  C8_9 
REMARK       I    between atoms: C14_16  and  N2_17 
ROOT
HETATM    1  C5  UNL     1      24.583   1.693  52.760  1.00  0.00     0.039 C 
HETATM    2  C6  UNL     1      24.563   3.000  52.670  1.00  0.00     0.010 C 
ENDROOT
BRANCH   1   3
HETATM    3  C4  UNL     1      25.802   0.936  52.989  1.00  0.00    -0.024 A 
HETATM    4  C3  UNL     1      26.938   1.685  53.498  1.00  0.00     0.019 A 
HETATM    5  C2  UNL     1      28.117   1.225  53.775  1.00  0.00    -0.058 A 
HETATM    6  C1  UNL     1      29.277   1.971  54.291  1.00  0.00     0.049 C 
HETATM    7  P1  UNL     1      28.577  -0.531  53.561  1.00  0.00    -0.096 P 
HETATM    8  C16 UNL     1      27.013  -1.321  52.907  1.00  0.00     0.064 A 
HETATM    9  H22 UNL     1      29.641  -0.665  52.588  1.00  0.00     0.062 HD
HETATM   10  C15 UNL     1      25.956  -0.334  52.777  1.00  0.00    -0.010 A 
ENDBRANCH   1   3
BRANCH   1  11
HETATM   11  C14 UNL     1      23.305   1.056  52.616  1.00  0.00     0.249 C 
HETATM   12  N2  UNL     1      22.283   0.358  53.283  1.00  0.00    -0.366 N 
HETATM   13  H17 UNL     1      22.153  -0.681  53.441  1.00  0.00     0.159 HD
HETATM   14  H18 UNL     1      21.426   0.690  53.778  1.00  0.00     0.159 HD
HETATM   15  O1  UNL     1      22.647   0.964  51.562  1.00  0.00    -0.268 OA
ENDBRANCH   1  11
BRANCH   2  16
HETATM   16  C7  UNL     1      23.686   4.142  52.466  1.00  0.00     0.148 C 
BRANCH  16  17
HETATM   17  N1  UNL     1      23.259   4.267  51.061  1.00  0.00    -0.389 N 
HETATM   18  H8  UNL     1      22.432   4.264  50.441  1.00  0.00     0.159 HD
BRANCH  17  19
HETATM   19  C8  UNL     1      24.395   4.475  50.200  1.00  0.00     0.018 C 
HETATM   20  C9  UNL     1      24.915   5.678  50.046  1.00  0.00     0.011 C 
HETATM   21 BR1  UNL     1      24.195   7.215  50.956  1.00  0.00    -0.054 Br
HETATM   22  C10 UNL     1      26.079   5.860  49.157  1.00  0.00     0.048 C 
HETATM   23  C11 UNL     1      26.941   4.663  48.973  1.00  0.00     0.006 C 
HETATM   24  C12 UNL     1      26.445   3.393  49.580  1.00  0.00     0.006 C 
HETATM   25  C13 UNL     1      24.938   3.276  49.505  1.00  0.00     0.058 C 
ENDBRANCH  17  19
ENDBRANCH  16  17
ENDBRANCH   2  16
TORSDOF 5
ENDMDL
MODEL 6
REMARK VINA RESULT:      -7.1      3.709      6.433
REMARK  5 active torsions:
REMARK  status: ('A' for Active; 'I' for Inactive)
REMARK    1  A    between atoms: C4_4  and  C5_5 
REMARK    2  A    between atoms: C5_5  and  C14_16 
REMARK    3  A    between atoms: C6_6  and  C7_7 
REMARK    4  A    between atoms: C7_7  and  N1_8 
REMARK    5  A    between atoms: N1_8  and  C8_9 
REMARK       I    between atoms: C14_16  and  N2_17 
ROOT
HETATM    1  C5  UNL     1      25.250   0.959  53.238  1.00  0.00     0.039 C 
HETATM    2  C6  UNL     1      24.284   0.096  53.437  1.00  0.00     0.010 C 
ENDROOT
BRANCH   1   3
HETATM    3  C4  UNL     1      26.655   0.620  53.390  1.00  0.00    -0.024 A 
HETATM    4  C3  UNL     1      27.011  -0.767  53.144  1.00  0.00     0.019 A 
HETATM    5  C2  UNL     1      28.191  -1.297  53.218  1.00  0.00    -0.058 A 
HETATM    6  C1  UNL     1      28.567  -2.699  52.973  1.00  0.00     0.049 C 
HETATM    7  P1  UNL     1      29.685  -0.342  53.666  1.00  0.00    -0.096 P 
HETATM    8  C16 UNL     1      29.036   1.390  53.941  1.00  0.00     0.064 A 
HETATM    9  H22 UNL     1      30.267  -0.850  54.891  1.00  0.00     0.062 HD
HETATM   10  C15 UNL     1      27.601   1.441  53.721  1.00  0.00    -0.010 A 
ENDBRANCH   1   3
BRANCH   1  11
HETATM   11  C14 UNL     1      24.819   2.274  52.858  1.00  0.00     0.249 C 
HETATM   12  N2  UNL     1      24.539   3.574  53.318  1.00  0.00    -0.366 N 
HETATM   13  H17 UNL     1      23.635   3.993  53.677  1.00  0.00     0.159 HD
HETATM   14  H18 UNL     1      25.143   4.418  53.418  1.00  0.00     0.159 HD
HETATM   15  O1  UNL     1      24.516   2.641  51.707  1.00  0.00    -0.268 OA
ENDBRANCH   1  11
BRANCH   2  16
HETATM   16  C7  UNL     1      22.838  -0.059  53.421  1.00  0.00     0.148 C 
BRANCH  16  17
HETATM   17  N1  UNL     1      22.245   0.411  52.158  1.00  0.00    -0.389 N 
HETATM   18  H8  UNL     1      22.473   0.782  51.220  1.00  0.00     0.159 HD
BRANCH  17  19
HETATM   19  C8  UNL     1      20.807   0.342  52.213  1.00  0.00     0.018 C 
HETATM   20  C9  UNL     1      20.077   0.598  51.143  1.00  0.00     0.011 C 
HETATM   21 BR1  UNL     1      20.882   1.076  49.459  1.00  0.00    -0.054 Br
HETATM   22  C10 UNL     1      18.606   0.519  51.230  1.00  0.00     0.048 C 
HETATM   23  C11 UNL     1      18.071  -0.390  52.277  1.00  0.00     0.006 C 
HETATM   24  C12 UNL     1      19.074  -0.988  53.206  1.00  0.00     0.006 C 
HETATM   25  C13 UNL     1      20.202  -0.029  53.521  1.00  0.00     0.058 C 
ENDBRANCH  17  19
ENDBRANCH  16  17
ENDBRANCH   2  16
TORSDOF 5
ENDMDL
MODEL 7
REMARK VINA RESULT:      -7.0      1.823      2.696
REMARK  5 active torsions:
REMARK  status: ('A' for Active; 'I' for Inactive)
REMARK    1  A    between atoms: C4_4  and  C5_5 
REMARK    2  A    between atoms: C5_5  and  C14_16 
REMARK    3  A    between atoms: C6_6  and  C7_7 
REMARK    4  A    between atoms: C7_7  and  N1_8 
REMARK    5  A    between atoms: N1_8  and  C8_9 
REMARK       I    between atoms: C14_16  and  N2_17 
ROOT
HETATM    1  C5  UNL     1      24.462   2.100  52.060  1.00  0.00     0.039 C 
HETATM    2  C6  UNL     1      24.614   2.687  50.899  1.00  0.00     0.010 C 
ENDROOT
BRANCH   1   3
HETATM    3  C4  UNL     1      23.181   1.605  52.534  1.00  0.00    -0.024 A 
HETATM    4  C3  UNL     1      23.216   0.390  53.331  1.00  0.00     0.019 A 
HETATM    5  C2  UNL     1      22.208  -0.231  53.855  1.00  0.00    -0.058 A 
HETATM    6  C1  UNL     1      22.228  -1.461  54.664  1.00  0.00     0.049 C 
HETATM    7  P1  UNL     1      20.481   0.343  53.674  1.00  0.00    -0.096 P 
HETATM    8  C16 UNL     1      20.637   1.890  52.635  1.00  0.00     0.064 A 
HETATM    9  H22 UNL     1      19.686  -0.644  52.973  1.00  0.00     0.062 HD
HETATM   10  C15 UNL     1      22.027   2.149  52.306  1.00  0.00    -0.010 A 
ENDBRANCH   1   3
BRANCH   1  11
HETATM   11  C14 UNL     1      25.662   1.980  52.839  1.00  0.00     0.249 C 
HETATM   12  N2  UNL     1      26.401   2.518  53.908  1.00  0.00    -0.366 N 
HETATM   13  H17 UNL     1      27.142   3.275  53.917  1.00  0.00     0.159 HD
HETATM   14  H18 UNL     1      26.394   2.308  54.930  1.00  0.00     0.159 HD
HETATM   15  O1  UNL     1      26.556   1.126  52.681  1.00  0.00    -0.268 OA
ENDBRANCH   1  11
BRANCH   2  16
HETATM   16  C7  UNL     1      25.596   3.311  50.027  1.00  0.00     0.148 C 
BRANCH  16  17
HETATM   17  N1  UNL     1      25.885   4.700  50.422  1.00  0.00    -0.389 N 
HETATM   18  H8  UNL     1      25.803   5.377  51.200  1.00  0.00     0.159 HD
BRANCH  17  19
HETATM   19  C8  UNL     1      26.522   5.415  49.346  1.00  0.00     0.018 C 
HETATM   20  C9  UNL     1      26.158   6.648  49.045  1.00  0.00     0.011 C 
HETATM   21 BR1  UNL     1      24.766   7.557  50.016  1.00  0.00    -0.054 Br
HETATM   22  C10 UNL     1      26.830   7.354  47.937  1.00  0.00     0.048 C 
HETATM   23  C11 UNL     1      28.215   6.909  47.636  1.00  0.00     0.006 C 
HETATM   24  C12 UNL     1      28.699   5.708  48.378  1.00  0.00     0.006 C 
HETATM   25  C13 UNL     1      27.596   4.697  48.606  1.00  0.00     0.058 C 
ENDBRANCH  17  19
ENDBRANCH  16  17
ENDBRANCH   2  16
TORSDOF 5
ENDMDL
MODEL 8
REMARK VINA RESULT:      -7.0      2.876      4.898
REMARK  5 active torsions:
REMARK  status: ('A' for Active; 'I' for Inactive)
REMARK    1  A    between atoms: C4_4  and  C5_5 
REMARK    2  A    between atoms: C5_5  and  C14_16 
REMARK    3  A    between atoms: C6_6  and  C7_7 
REMARK    4  A    between atoms: C7_7  and  N1_8 
REMARK    5  A    between atoms: N1_8  and  C8_9 
REMARK       I    between atoms: C14_16  and  N2_17 
ROOT
HETATM    1  C5  UNL     1      23.608   2.777  52.305  1.00  0.00     0.039 C 
HETATM    2  C6  UNL     1      24.732   2.287  51.842  1.00  0.00     0.010 C 
ENDROOT
BRANCH   1   3
HETATM    3  C4  UNL     1      22.439   1.956  52.570  1.00  0.00    -0.024 A 
HETATM    4  C3  UNL     1      22.672   0.721  53.298  1.00  0.00     0.019 A 
HETATM    5  C2  UNL     1      21.790  -0.162  53.645  1.00  0.00    -0.058 A 
HETATM    6  C1  UNL     1      22.011  -1.417  54.382  1.00  0.00     0.049 C 
HETATM    7  P1  UNL     1      20.011   0.004  53.258  1.00  0.00    -0.096 P 
HETATM    8  C16 UNL     1      19.909   1.626  52.334  1.00  0.00     0.064 A 
HETATM    9  H22 UNL     1      19.572  -1.079  52.402  1.00  0.00     0.062 HD
HETATM   10  C15 UNL     1      21.224   2.231  52.214  1.00  0.00    -0.010 A 
ENDBRANCH   1   3
BRANCH   1  11
HETATM   11  C14 UNL     1      23.614   4.194  52.534  1.00  0.00     0.249 C 
HETATM   12  N2  UNL     1      23.803   5.206  53.492  1.00  0.00    -0.366 N 
HETATM   13  H17 UNL     1      23.110   5.671  54.144  1.00  0.00     0.159 HD
HETATM   14  H18 UNL     1      24.657   5.728  53.788  1.00  0.00     0.159 HD
HETATM   15  O1  UNL     1      23.383   5.074  51.683  1.00  0.00    -0.268 OA
ENDBRANCH   1  11
BRANCH   2  16
HETATM   16  C7  UNL     1      26.082   2.646  51.440  1.00  0.00     0.148 C 
BRANCH  16  17
HETATM   17  N1  UNL     1      27.055   2.449  52.528  1.00  0.00    -0.389 N 
HETATM   18  H8  UNL     1      27.569   2.937  53.281  1.00  0.00     0.159 HD
BRANCH  17  19
HETATM   19  C8  UNL     1      27.466   1.071  52.602  1.00  0.00     0.018 C 
HETATM   20  C9  UNL     1      28.469   0.705  53.379  1.00  0.00     0.011 C 
HETATM   21 BR1  UNL     1      29.435   1.981  54.451  1.00  0.00    -0.054 Br
HETATM   22  C10 UNL     1      28.867  -0.715  53.434  1.00  0.00     0.048 C 
HETATM   23  C11 UNL     1      27.797  -1.696  53.114  1.00  0.00     0.006 C 
HETATM   24  C12 UNL     1      26.505  -1.128  52.630  1.00  0.00     0.006 C 
HETATM   25  C13 UNL     1      26.709   0.099  51.767  1.00  0.00     0.058 C 
ENDBRANCH  17  19
ENDBRANCH  16  17
ENDBRANCH   2  16
TORSDOF 5
ENDMDL
MODEL 9
REMARK VINA RESULT:      -6.9      3.569      6.698
REMARK  5 active torsions:
REMARK  status: ('A' for Active; 'I' for Inactive)
REMARK    1  A    between atoms: C4_4  and  C5_5 
REMARK    2  A    between atoms: C5_5  and  C14_16 
REMARK    3  A    between atoms: C6_6  and  C7_7 
REMARK    4  A    between atoms: C7_7  and  N1_8 
REMARK    5  A    between atoms: N1_8  and  C8_9 
REMARK       I    between atoms: C14_16  and  N2_17 
ROOT
HETATM    1  C5  UNL     1      24.247   1.795  52.093  1.00  0.00     0.039 C 
HETATM    2  C6  UNL     1      23.143   1.162  51.782  1.00  0.00     0.010 C 
ENDROOT
BRANCH   1   3
HETATM    3  C4  UNL     1      25.444   1.114  52.556  1.00  0.00    -0.024 A 
HETATM    4  C3  UNL     1      26.563   1.963  52.929  1.00  0.00     0.019 A 
HETATM    5  C2  UNL     1      27.721   1.583  53.367  1.00  0.00    -0.058 A 
HETATM    6  C1  UNL     1      28.863   2.430  53.748  1.00  0.00     0.049 C 
HETATM    7  P1  UNL     1      28.170  -0.174  53.600  1.00  0.00    -0.096 P 
HETATM    8  C16 UNL     1      26.631  -1.097  53.076  1.00  0.00     0.064 A 
HETATM    9  H22 UNL     1      29.279  -0.536  52.742  1.00  0.00     0.062 HD
HETATM   10  C15 UNL     1      25.593  -0.169  52.661  1.00  0.00    -0.010 A 
ENDBRANCH   1   3
BRANCH   1  11
HETATM   11  C14 UNL     1      24.190   3.221  51.943  1.00  0.00     0.249 C 
HETATM   12  N2  UNL     1      23.903   4.438  52.588  1.00  0.00    -0.366 N 
HETATM   13  H17 UNL     1      22.992   4.973  52.666  1.00  0.00     0.159 HD
HETATM   14  H18 UNL     1      24.504   5.089  53.138  1.00  0.00     0.159 HD
HETATM   15  O1  UNL     1      24.462   3.860  50.909  1.00  0.00    -0.268 OA
ENDBRANCH   1  11
BRANCH   2  16
HETATM   16  C7  UNL     1      21.782   1.355  51.309  1.00  0.00     0.148 C 
BRANCH  16  17
HETATM   17  N1  UNL     1      20.829   1.525  52.419  1.00  0.00    -0.389 N 
HETATM   18  H8  UNL     1      20.548   2.163  53.183  1.00  0.00     0.159 HD
BRANCH  17  19
HETATM   19  C8  UNL     1      19.935   0.398  52.502  1.00  0.00     0.018 C 
HETATM   20  C9  UNL     1      20.061  -0.495  53.467  1.00  0.00     0.011 C 
HETATM   21 BR1  UNL     1      21.434  -0.345  54.809  1.00  0.00    -0.054 Br
HETATM   22  C10 UNL     1      19.131  -1.639  53.525  1.00  0.00     0.048 C 
HETATM   23  C11 UNL     1      17.798  -1.416  52.907  1.00  0.00     0.006 C 
HETATM   24  C12 UNL     1      17.618  -0.130  52.171  1.00  0.00     0.006 C 
HETATM   25  C13 UNL     1      18.881   0.299  51.456  1.00  0.00     0.058 C 
ENDBRANCH  17  19
ENDBRANCH  16  17
ENDBRANCH   2  16
TORSDOF 5
ENDMDL
