MODEL 1
REMARK VINA RESULT:      -9.1      0.000      0.000
REMARK  7 active torsions:
REMARK  status: ('A' for Active; 'I' for Inactive)
REMARK    1  A    between atoms: O1_2  and  C2_3 
REMARK    2  A    between atoms: C5_6  and  O2_7 
REMARK    3  A    between atoms: C7_9  and  C8_10 
REMARK    4  A    between atoms: C8_10  and  C9_11 
REMARK    5  A    between atoms: C12_14  and  N1_15 
REMARK    6  A    between atoms: N1_15  and  C13_16 
REMARK    7  A    between atoms: C19_24  and  N3_25 
ROOT
HETATM    1  C9  UNL     1      26.742   2.183  51.181  1.00  0.00     0.011 C 
HETATM    2  C10 UNL     1      26.293   0.935  51.481  1.00  0.00     0.038 C 
HETATM    3  C11 UNL     1      26.692   0.631  52.880  1.00  0.00     0.020 C 
HETATM    4  C12 UNL     1      26.590   0.052  54.062  1.00  0.00     0.139 C 
HETATM    5  N2  UNL     1      27.634   0.533  54.902  1.00  0.00    -0.215 NA
HETATM    6  C19 UNL     1      28.374   1.396  54.246  1.00  0.00     0.127 C 
HETATM    7  C20 UNL     1      27.942   1.489  52.856  1.00  0.00     0.188 C 
HETATM    8  N4  UNL     1      27.429   2.713  52.354  1.00  0.00    -0.377 N 
HETATM    9  H20 UNL     1      27.355   3.746  52.480  1.00  0.00     0.160 HD
ENDROOT
BRANCH   1  10
HETATM   10  C8  UNL     1      26.450   2.713  49.808  1.00  0.00     0.098 C 
BRANCH  10  11
HETATM   11  C7  UNL     1      25.958   4.101  49.898  1.00  0.00    -0.017 A 
HETATM   12  C5  UNL     1      26.461   5.233  49.309  1.00  0.00     0.075 A 
HETATM   13  C4  UNL     1      25.873   6.459  49.498  1.00  0.00     0.040 A 
HETATM   14  C3  UNL     1      24.745   6.631  50.285  1.00  0.00     0.039 A 
HETATM   15  C2  UNL     1      24.238   5.510  50.874  1.00  0.00     0.068 A 
HETATM   16  C21 UNL     1      24.818   4.275  50.693  1.00  0.00     0.047 A 
BRANCH  12  17
HETATM   17  O2  UNL     1      27.586   5.045  48.529  1.00  0.00    -0.355 OA
HETATM   18  C6  UNL     1      28.510   6.046  48.188  1.00  0.00     0.210 C 
ENDBRANCH  12  17
BRANCH  15  19
HETATM   19  O1  UNL     1      23.123   5.632  51.662  1.00  0.00    -0.356 OA
HETATM   20  C1  UNL     1      21.811   5.771  51.162  1.00  0.00     0.210 C 
ENDBRANCH  15  19
ENDBRANCH  10  11
ENDBRANCH   1  10
BRANCH   4  21
HETATM   21  N1  UNL     1      25.519  -0.838  54.287  1.00  0.00    -0.340 N 
HETATM   22  H12 UNL     1      25.891  -1.780  54.514  1.00  0.00     0.167 HD
BRANCH  21  23
HETATM   23  C13 UNL     1      24.125  -0.560  54.230  1.00  0.00     0.035 A 
HETATM   24  C14 UNL     1      23.282  -1.302  55.028  1.00  0.00     0.029 A 
HETATM   25  C15 UNL     1      21.919  -1.058  54.999  1.00  0.00     0.004 A 
HETATM   26  C16 UNL     1      21.417  -0.078  54.173  1.00  0.00     0.019 A 
HETATM   27  C17 UNL     1      22.312   0.619  53.408  1.00  0.00     0.013 A 
HETATM   28 BR1  UNL     1      21.583   1.978  52.268  1.00  0.00    -0.051 Br
HETATM   29  C18 UNL     1      23.684   0.438  53.380  1.00  0.00     0.048 A 
ENDBRANCH  21  23
ENDBRANCH   4  21
BRANCH   6  30
HETATM   30  N3  UNL     1      29.511   2.181  54.555  1.00  0.00    -0.385 N 
HETATM   31  H17 UNL     1      29.215   3.154  54.307  1.00  0.00     0.157 HD
HETATM   32  H18 UNL     1      30.366   1.702  54.941  1.00  0.00     0.157 HD
ENDBRANCH   6  30
TORSDOF 7
ENDMDL
MODEL 2
REMARK VINA RESULT:      -8.8      0.814      2.661
REMARK  7 active torsions:
REMARK  status: ('A' for Active; 'I' for Inactive)
REMARK    1  A    between atoms: O1_2  and  C2_3 
REMARK    2  A    between atoms: C5_6  and  O2_7 
REMARK    3  A    between atoms: C7_9  and  C8_10 
REMARK    4  A    between atoms: C8_10  and  C9_11 
REMARK    5  A    between atoms: C12_14  and  N1_15 
REMARK    6  A    between atoms: N1_15  and  C13_16 
REMARK    7  A    between atoms: C19_24  and  N3_25 
ROOT
HETATM    1  C9  UNL     1      26.653   2.105  51.087  1.00  0.00     0.011 C 
HETATM    2  C10 UNL     1      26.283   0.844  51.437  1.00  0.00     0.038 C 
HETATM    3  C11 UNL     1      26.721   0.613  52.838  1.00  0.00     0.020 C 
HETATM    4  C12 UNL     1      26.671   0.071  54.040  1.00  0.00     0.139 C 
HETATM    5  N2  UNL     1      27.698   0.640  54.846  1.00  0.00    -0.215 NA
HETATM    6  C19 UNL     1      28.375   1.521  54.148  1.00  0.00     0.127 C 
HETATM    7  C20 UNL     1      27.918   1.541  52.764  1.00  0.00     0.188 C 
HETATM    8  N4  UNL     1      27.326   2.715  52.230  1.00  0.00    -0.377 N 
HETATM    9  H20 UNL     1      27.193   3.745  52.322  1.00  0.00     0.160 HD
ENDROOT
BRANCH   1  10
HETATM   10  C8  UNL     1      26.310   2.569  49.702  1.00  0.00     0.098 C 
BRANCH  10  11
HETATM   11  C7  UNL     1      26.141   4.035  49.690  1.00  0.00    -0.017 A 
HETATM   12  C5  UNL     1      25.141   4.792  50.247  1.00  0.00     0.075 A 
HETATM   13  C4  UNL     1      25.139   6.160  50.144  1.00  0.00     0.040 A 
HETATM   14  C3  UNL     1      26.134   6.859  49.480  1.00  0.00     0.039 A 
HETATM   15  C2  UNL     1      27.132   6.114  48.924  1.00  0.00     0.068 A 
HETATM   16  C21 UNL     1      27.147   4.742  49.020  1.00  0.00     0.047 A 
BRANCH  12  17
HETATM   17  O2  UNL     1      24.156   4.079  50.904  1.00  0.00    -0.355 OA
HETATM   18  C6  UNL     1      22.787   4.395  50.894  1.00  0.00     0.210 C 
ENDBRANCH  12  17
BRANCH  15  19
HETATM   19  O1  UNL     1      28.139   6.763  48.256  1.00  0.00    -0.356 OA
HETATM   20  C1  UNL     1      29.336   6.147  47.834  1.00  0.00     0.210 C 
ENDBRANCH  15  19
ENDBRANCH  10  11
ENDBRANCH   1  10
BRANCH   4  21
HETATM   21  N1  UNL     1      25.658  -0.873  54.314  1.00  0.00    -0.340 N 
HETATM   22  H12 UNL     1      26.086  -1.757  54.646  1.00  0.00     0.167 HD
BRANCH  21  23
HETATM   23  C13 UNL     1      24.251  -0.707  54.179  1.00  0.00     0.035 A 
HETATM   24  C14 UNL     1      23.445  -1.143  55.208  1.00  0.00     0.029 A 
HETATM   25  C15 UNL     1      22.072  -0.998  55.111  1.00  0.00     0.004 A 
HETATM   26  C16 UNL     1      21.522  -0.420  53.989  1.00  0.00     0.019 A 
HETATM   27  C17 UNL     1      22.382  -0.011  53.007  1.00  0.00     0.013 A 
HETATM   28 BR1  UNL     1      21.587   0.790  51.456  1.00  0.00    -0.051 Br
HETATM   29  C18 UNL     1      23.762  -0.119  53.027  1.00  0.00     0.048 A 
ENDBRANCH  21  23
ENDBRANCH   4  21
BRANCH   6  30
HETATM   30  N3  UNL     1      29.468   2.381  54.411  1.00  0.00    -0.385 N 
HETATM   31  H17 UNL     1      30.280   1.894  53.964  1.00  0.00     0.157 HD
HETATM   32  H18 UNL     1      29.295   3.268  54.954  1.00  0.00     0.157 HD
ENDBRANCH   6  30
TORSDOF 7
ENDMDL
MODEL 3
REMARK VINA RESULT:      -8.7      3.507      7.854
REMARK  7 active torsions:
REMARK  status: ('A' for Active; 'I' for Inactive)
REMARK    1  A    between atoms: O1_2  and  C2_3 
REMARK    2  A    between atoms: C5_6  and  O2_7 
REMARK    3  A    between atoms: C7_9  and  C8_10 
REMARK    4  A    between atoms: C8_10  and  C9_11 
REMARK    5  A    between atoms: C12_14  and  N1_15 
REMARK    6  A    between atoms: N1_15  and  C13_16 
REMARK    7  A    between atoms: C19_24  and  N3_25 
ROOT
HETATM    1  C9  UNL     1      26.076   2.567  51.009  1.00  0.00     0.011 C 
HETATM    2  C10 UNL     1      26.155   3.139  49.778  1.00  0.00     0.038 C 
HETATM    3  C11 UNL     1      25.529   4.483  49.859  1.00  0.00     0.020 C 
HETATM    4  C12 UNL     1      25.339   5.745  49.521  1.00  0.00     0.139 C 
HETATM    5  N2  UNL     1      24.359   6.312  50.384  1.00  0.00    -0.215 NA
HETATM    6  C19 UNL     1      23.946   5.410  51.242  1.00  0.00     0.127 C 
HETATM    7  C20 UNL     1      24.549   4.113  50.955  1.00  0.00     0.188 C 
HETATM    8  N4  UNL     1      25.411   3.507  51.904  1.00  0.00    -0.377 N 
HETATM    9  H20 UNL     1      25.729   3.472  52.897  1.00  0.00     0.160 HD
ENDROOT
BRANCH   1  10
HETATM   10  C8  UNL     1      26.654   1.192  51.173  1.00  0.00     0.098 C 
BRANCH  10  11
HETATM   11  C7  UNL     1      26.321   0.662  52.509  1.00  0.00    -0.017 A 
HETATM   12  C5  UNL     1      27.104   0.605  53.633  1.00  0.00     0.075 A 
HETATM   13  C4  UNL     1      26.631   0.077  54.809  1.00  0.00     0.040 A 
HETATM   14  C3  UNL     1      25.346  -0.425  54.936  1.00  0.00     0.039 A 
HETATM   15  C2  UNL     1      24.560  -0.372  53.823  1.00  0.00     0.068 A 
HETATM   16  C21 UNL     1      25.022   0.155  52.638  1.00  0.00     0.047 A 
BRANCH  12  17
HETATM   17  O2  UNL     1      28.383   1.109  53.489  1.00  0.00    -0.355 OA
HETATM   18  C6  UNL     1      28.756   2.444  53.718  1.00  0.00     0.210 C 
ENDBRANCH  12  17
BRANCH  15  19
HETATM   19  O1  UNL     1      23.280  -0.858  53.901  1.00  0.00    -0.356 OA
HETATM   20  C1  UNL     1      22.655  -1.255  55.102  1.00  0.00     0.210 C 
ENDBRANCH  15  19
ENDBRANCH  10  11
ENDBRANCH   1  10
BRANCH   4  21
HETATM   21  N1  UNL     1      26.116   6.287  48.474  1.00  0.00    -0.340 N 
HETATM   22  H12 UNL     1      25.518   6.437  47.639  1.00  0.00     0.167 HD
BRANCH  21  23
HETATM   23  C13 UNL     1      27.503   6.603  48.488  1.00  0.00     0.035 A 
HETATM   24  C14 UNL     1      28.402   5.588  48.242  1.00  0.00     0.029 A 
HETATM   25  C15 UNL     1      29.760   5.859  48.247  1.00  0.00     0.004 A 
HETATM   26  C16 UNL     1      30.201   7.139  48.499  1.00  0.00     0.019 A 
HETATM   27  C17 UNL     1      29.252   8.096  48.735  1.00  0.00     0.013 A 
HETATM   28 BR1  UNL     1      29.898   9.868  49.082  1.00  0.00    -0.051 Br
HETATM   29  C18 UNL     1      27.881   7.908  48.746  1.00  0.00     0.048 A 
ENDBRANCH  21  23
ENDBRANCH   4  21
BRANCH   6  30
HETATM   30  N3  UNL     1      23.016   5.394  52.310  1.00  0.00    -0.385 N 
HETATM   31  H17 UNL     1      22.544   4.465  52.213  1.00  0.00     0.157 HD
HETATM   32  H18 UNL     1      22.966   6.231  52.949  1.00  0.00     0.157 HD
ENDBRANCH   6  30
TORSDOF 7
ENDMDL
MODEL 4
REMARK VINA RESULT:      -8.5      3.866      8.537
REMARK  7 active torsions:
REMARK  status: ('A' for Active; 'I' for Inactive)
REMARK    1  A    between atoms: O1_2  and  C2_3 
REMARK    2  A    between atoms: C5_6  and  O2_7 
REMARK    3  A    between atoms: C7_9  and  C8_10 
REMARK    4  A    between atoms: C8_10  and  C9_11 
REMARK    5  A    between atoms: C12_14  and  N1_15 
REMARK    6  A    between atoms: N1_15  and  C13_16 
REMARK    7  A    between atoms: C19_24  and  N3_25 
ROOT
HETATM    1  C9  UNL     1      26.171   4.243  49.888  1.00  0.00     0.011 C 
HETATM    2  C10 UNL     1      26.691   4.917  48.828  1.00  0.00     0.038 C 
HETATM    3  C11 UNL     1      26.500   6.370  49.073  1.00  0.00     0.020 C 
HETATM    4  C12 UNL     1      26.782   7.656  48.969  1.00  0.00     0.139 C 
HETATM    5  N2  UNL     1      25.853   8.396  49.754  1.00  0.00    -0.215 NA
HETATM    6  C19 UNL     1      25.006   7.578  50.333  1.00  0.00     0.127 C 
HETATM    7  C20 UNL     1      25.236   6.206  49.895  1.00  0.00     0.188 C 
HETATM    8  N4  UNL     1      25.640   5.222  50.832  1.00  0.00    -0.377 N 
HETATM    9  H20 UNL     1      25.703   4.946  51.836  1.00  0.00     0.160 HD
ENDROOT
BRANCH   1  10
HETATM   10  C8  UNL     1      26.253   2.745  49.865  1.00  0.00     0.098 C 
BRANCH  10  11
HETATM   11  C7  UNL     1      25.960   2.205  51.207  1.00  0.00    -0.017 A 
HETATM   12  C5  UNL     1      24.764   1.768  51.717  1.00  0.00     0.075 A 
HETATM   13  C4  UNL     1      24.667   1.287  52.999  1.00  0.00     0.040 A 
HETATM   14  C3  UNL     1      25.757   1.210  53.851  1.00  0.00     0.039 A 
HETATM   15  C2  UNL     1      26.950   1.642  53.351  1.00  0.00     0.068 A 
HETATM   16  C21 UNL     1      27.062   2.127  52.068  1.00  0.00     0.047 A 
BRANCH  12  17
HETATM   17  O2  UNL     1      23.687   1.852  50.856  1.00  0.00    -0.355 OA
HETATM   18  C6  UNL     1      22.682   2.832  50.911  1.00  0.00     0.210 C 
ENDBRANCH  12  17
BRANCH  15  19
HETATM   19  O1  UNL     1      28.057   1.586  54.158  1.00  0.00    -0.356 OA
HETATM   20  C1  UNL     1      28.669   0.387  54.582  1.00  0.00     0.210 C 
ENDBRANCH  15  19
ENDBRANCH  10  11
ENDBRANCH   1  10
BRANCH   4  21
HETATM   21  N1  UNL     1      27.898   8.041  48.196  1.00  0.00    -0.340 N 
HETATM   22  H12 UNL     1      27.575   8.466  47.306  1.00  0.00     0.167 HD
BRANCH  21  23
HETATM   23  C13 UNL     1      29.276   7.901  48.521  1.00  0.00     0.035 A 
HETATM   24  C14 UNL     1      29.908   8.960  49.136  1.00  0.00     0.029 A 
HETATM   25  C15 UNL     1      31.249   8.858  49.467  1.00  0.00     0.004 A 
HETATM   26  C16 UNL     1      31.939   7.702  49.180  1.00  0.00     0.019 A 
HETATM   27  C17 UNL     1      31.247   6.692  48.569  1.00  0.00     0.013 A 
HETATM   28 BR1  UNL     1      32.235   5.095  48.182  1.00  0.00    -0.051 Br
HETATM   29  C18 UNL     1      29.912   6.713  48.207  1.00  0.00     0.048 A 
ENDBRANCH  21  23
ENDBRANCH   4  21
BRANCH   6  30
HETATM   30  N3  UNL     1      23.903   7.732  51.207  1.00  0.00    -0.385 N 
HETATM   31  H17 UNL     1      24.346   7.948  52.130  1.00  0.00     0.157 HD
HETATM   32  H18 UNL     1      22.930   7.615  50.819  1.00  0.00     0.157 HD
ENDBRANCH   6  30
TORSDOF 7
ENDMDL
MODEL 5
REMARK VINA RESULT:      -8.4      3.168      5.996
REMARK  7 active torsions:
REMARK  status: ('A' for Active; 'I' for Inactive)
REMARK    1  A    between atoms: O1_2  and  C2_3 
REMARK    2  A    between atoms: C5_6  and  O2_7 
REMARK    3  A    between atoms: C7_9  and  C8_10 
REMARK    4  A    between atoms: C8_10  and  C9_11 
REMARK    5  A    between atoms: C12_14  and  N1_15 
REMARK    6  A    between atoms: N1_15  and  C13_16 
REMARK    7  A    between atoms: C19_24  and  N3_25 
ROOT
HETATM    1  C9  UNL     1      26.717   6.593  48.324  1.00  0.00     0.011 C 
HETATM    2  C10 UNL     1      26.807   5.336  48.834  1.00  0.00     0.038 C 
HETATM    3  C11 UNL     1      25.666   5.140  49.766  1.00  0.00     0.020 C 
HETATM    4  C12 UNL     1      24.753   4.448  50.423  1.00  0.00     0.139 C 
HETATM    5  N2  UNL     1      23.950   5.347  51.179  1.00  0.00    -0.215 NA
HETATM    6  C19 UNL     1      24.363   6.579  50.995  1.00  0.00     0.127 C 
HETATM    7  C20 UNL     1      25.563   6.599  50.167  1.00  0.00     0.188 C 
HETATM    8  N4  UNL     1      25.539   7.234  48.899  1.00  0.00    -0.377 N 
HETATM    9  H20 UNL     1      25.056   7.914  48.272  1.00  0.00     0.160 HD
ENDROOT
BRANCH   1  10
HETATM   10  C8  UNL     1      27.771   7.021  47.345  1.00  0.00     0.098 C 
BRANCH  10  11
HETATM   11  C7  UNL     1      29.075   7.131  48.026  1.00  0.00    -0.017 A 
HETATM   12  C5  UNL     1      29.622   8.210  48.672  1.00  0.00     0.075 A 
HETATM   13  C4  UNL     1      30.860   8.139  49.261  1.00  0.00     0.040 A 
HETATM   14  C3  UNL     1      31.628   6.987  49.243  1.00  0.00     0.039 A 
HETATM   15  C2  UNL     1      31.092   5.909  48.602  1.00  0.00     0.068 A 
HETATM   16  C21 UNL     1      29.853   5.966  48.008  1.00  0.00     0.047 A 
BRANCH  12  17
HETATM   17  O2  UNL     1      28.843   9.351  48.680  1.00  0.00    -0.355 OA
HETATM   18  C6  UNL     1      28.042   9.776  49.754  1.00  0.00     0.210 C 
ENDBRANCH  12  17
BRANCH  15  19
HETATM   19  O1  UNL     1      31.818   4.746  48.559  1.00  0.00    -0.356 OA
HETATM   20  C1  UNL     1      32.116   4.042  47.373  1.00  0.00     0.210 C 
ENDBRANCH  15  19
ENDBRANCH  10  11
ENDBRANCH   1  10
BRANCH   4  21
HETATM   21  N1  UNL     1      24.705   3.050  50.239  1.00  0.00    -0.340 N 
HETATM   22  H12 UNL     1      24.372   2.837  49.279  1.00  0.00     0.167 HD
BRANCH  21  23
HETATM   23  C13 UNL     1      25.044   2.033  51.174  1.00  0.00     0.035 A 
HETATM   24  C14 UNL     1      26.376   1.725  51.343  1.00  0.00     0.029 A 
HETATM   25  C15 UNL     1      26.743   0.741  52.246  1.00  0.00     0.004 A 
HETATM   26  C16 UNL     1      25.774   0.079  52.967  1.00  0.00     0.019 A 
HETATM   27  C17 UNL     1      24.472   0.437  52.748  1.00  0.00     0.013 A 
HETATM   28 BR1  UNL     1      23.147  -0.504  53.766  1.00  0.00    -0.051 Br
HETATM   29  C18 UNL     1      24.024   1.406  51.867  1.00  0.00     0.048 A 
ENDBRANCH  21  23
ENDBRANCH   4  21
BRANCH   6  30
HETATM   30  N3  UNL     1      23.960   7.852  51.465  1.00  0.00    -0.385 N 
HETATM   31  H17 UNL     1      22.956   7.713  51.725  1.00  0.00     0.157 HD
HETATM   32  H18 UNL     1      24.665   8.635  51.471  1.00  0.00     0.157 HD
ENDBRANCH   6  30
TORSDOF 7
ENDMDL
MODEL 6
REMARK VINA RESULT:      -8.2      3.962      8.309
REMARK  7 active torsions:
REMARK  status: ('A' for Active; 'I' for Inactive)
REMARK    1  A    between atoms: O1_2  and  C2_3 
REMARK    2  A    between atoms: C5_6  and  O2_7 
REMARK    3  A    between atoms: C7_9  and  C8_10 
REMARK    4  A    between atoms: C8_10  and  C9_11 
REMARK    5  A    between atoms: C12_14  and  N1_15 
REMARK    6  A    between atoms: N1_15  and  C13_16 
REMARK    7  A    between atoms: C19_24  and  N3_25 
ROOT
HETATM    1  C9  UNL     1      26.514   4.535  49.621  1.00  0.00     0.011 C 
HETATM    2  C10 UNL     1      27.191   5.101  48.585  1.00  0.00     0.038 C 
HETATM    3  C11 UNL     1      27.174   6.574  48.780  1.00  0.00     0.020 C 
HETATM    4  C12 UNL     1      27.627   7.808  48.666  1.00  0.00     0.139 C 
HETATM    5  N2  UNL     1      26.750   8.688  49.362  1.00  0.00    -0.215 NA
HETATM    6  C19 UNL     1      25.765   8.005  49.897  1.00  0.00     0.127 C 
HETATM    7  C20 UNL     1      25.845   6.601  49.510  1.00  0.00     0.188 C 
HETATM    8  N4  UNL     1      26.051   5.605  50.499  1.00  0.00    -0.377 N 
HETATM    9  H20 UNL     1      26.007   5.358  51.511  1.00  0.00     0.160 HD
ENDROOT
BRANCH   1  10
HETATM   10  C8  UNL     1      26.402   3.039  49.641  1.00  0.00     0.098 C 
BRANCH  10  11
HETATM   11  C7  UNL     1      25.717   2.603  50.872  1.00  0.00    -0.017 A 
HETATM   12  C5  UNL     1      26.257   2.284  52.092  1.00  0.00     0.075 A 
HETATM   13  C4  UNL     1      25.466   1.895  53.145  1.00  0.00     0.040 A 
HETATM   14  C3  UNL     1      24.088   1.802  53.046  1.00  0.00     0.039 A 
HETATM   15  C2  UNL     1      23.542   2.118  51.837  1.00  0.00     0.068 A 
HETATM   16  C21 UNL     1      24.323   2.509  50.773  1.00  0.00     0.047 A 
BRANCH  12  17
HETATM   17  O2  UNL     1      27.633   2.381  52.174  1.00  0.00    -0.355 OA
HETATM   18  C6  UNL     1      28.377   2.349  53.365  1.00  0.00     0.210 C 
ENDBRANCH  12  17
BRANCH  15  19
HETATM   19  O1  UNL     1      22.181   2.040  51.692  1.00  0.00    -0.356 OA
HETATM   20  C1  UNL     1      21.515   2.024  50.448  1.00  0.00     0.210 C 
ENDBRANCH  15  19
ENDBRANCH  10  11
ENDBRANCH   1  10
BRANCH   4  21
HETATM   21  N1  UNL     1      28.835   8.021  47.968  1.00  0.00    -0.340 N 
HETATM   22  H12 UNL     1      28.665   8.651  47.162  1.00  0.00     0.167 HD
BRANCH  21  23
HETATM   23  C13 UNL     1      30.121   7.489  48.265  1.00  0.00     0.035 A 
HETATM   24  C14 UNL     1      30.928   8.192  49.134  1.00  0.00     0.029 A 
HETATM   25  C15 UNL     1      32.186   7.704  49.446  1.00  0.00     0.004 A 
HETATM   26  C16 UNL     1      32.620   6.523  48.888  1.00  0.00     0.019 A 
HETATM   27  C17 UNL     1      31.765   5.879  48.034  1.00  0.00     0.013 A 
HETATM   28 BR1  UNL     1      32.398   4.237  47.272  1.00  0.00    -0.051 Br
HETATM   29  C18 UNL     1      30.497   6.298  47.672  1.00  0.00     0.048 A 
ENDBRANCH  21  23
ENDBRANCH   4  21
BRANCH   6  30
HETATM   30  N3  UNL     1      24.633   8.328  50.683  1.00  0.00    -0.385 N 
HETATM   31  H17 UNL     1      24.441   9.328  50.440  1.00  0.00     0.157 HD
HETATM   32  H18 UNL     1      24.223   7.586  51.309  1.00  0.00     0.157 HD
ENDBRANCH   6  30
TORSDOF 7
ENDMDL
MODEL 7
REMARK VINA RESULT:      -8.2      3.397      5.934
REMARK  7 active torsions:
REMARK  status: ('A' for Active; 'I' for Inactive)
REMARK    1  A    between atoms: O1_2  and  C2_3 
REMARK    2  A    between atoms: C5_6  and  O2_7 
REMARK    3  A    between atoms: C7_9  and  C8_10 
REMARK    4  A    between atoms: C8_10  and  C9_11 
REMARK    5  A    between atoms: C12_14  and  N1_15 
REMARK    6  A    between atoms: N1_15  and  C13_16 
REMARK    7  A    between atoms: C19_24  and  N3_25 
ROOT
HETATM    1  C9  UNL     1      26.998   6.435  48.329  1.00  0.00     0.011 C 
HETATM    2  C10 UNL     1      26.995   5.189  48.874  1.00  0.00     0.038 C 
HETATM    3  C11 UNL     1      25.803   5.079  49.754  1.00  0.00     0.020 C 
HETATM    4  C12 UNL     1      24.825   4.455  50.383  1.00  0.00     0.139 C 
HETATM    5  N2  UNL     1      24.036   5.415  51.077  1.00  0.00    -0.215 NA
HETATM    6  C19 UNL     1      24.524   6.618  50.883  1.00  0.00     0.127 C 
HETATM    7  C20 UNL     1      25.761   6.551  50.114  1.00  0.00     0.188 C 
HETATM    8  N4  UNL     1      25.830   7.152  48.831  1.00  0.00    -0.377 N 
HETATM    9  H20 UNL     1      25.414   7.840  48.165  1.00  0.00     0.160 HD
ENDROOT
BRANCH   1  10
HETATM   10  C8  UNL     1      28.117   6.779  47.392  1.00  0.00     0.098 C 
BRANCH  10  11
HETATM   11  C7  UNL     1      29.193   7.472  48.126  1.00  0.00    -0.017 A 
HETATM   12  C5  UNL     1      30.331   6.948  48.686  1.00  0.00     0.075 A 
HETATM   13  C4  UNL     1      31.239   7.745  49.338  1.00  0.00     0.040 A 
HETATM   14  C3  UNL     1      31.069   9.113  49.472  1.00  0.00     0.039 A 
HETATM   15  C2  UNL     1      29.941   9.642  48.918  1.00  0.00     0.068 A 
HETATM   16  C21 UNL     1      29.022   8.856  48.261  1.00  0.00     0.047 A 
BRANCH  12  17
HETATM   17  O2  UNL     1      30.484   5.583  48.544  1.00  0.00    -0.355 OA
HETATM   18  C6  UNL     1      31.461   4.957  47.753  1.00  0.00     0.210 C 
ENDBRANCH  12  17
BRANCH  15  19
HETATM   19  O1  UNL     1      29.730  10.993  49.026  1.00  0.00    -0.356 OA
HETATM   20  C1  UNL     1      30.761  11.954  49.085  1.00  0.00     0.210 C 
ENDBRANCH  15  19
ENDBRANCH  10  11
ENDBRANCH   1  10
BRANCH   4  21
HETATM   21  N1  UNL     1      24.709   3.056  50.231  1.00  0.00    -0.340 N 
HETATM   22  H12 UNL     1      24.586   2.824  49.227  1.00  0.00     0.167 HD
BRANCH  21  23
HETATM   23  C13 UNL     1      24.746   2.061  51.247  1.00  0.00     0.035 A 
HETATM   24  C14 UNL     1      23.549   1.630  51.776  1.00  0.00     0.029 A 
HETATM   25  C15 UNL     1      23.547   0.662  52.766  1.00  0.00     0.004 A 
HETATM   26  C16 UNL     1      24.738   0.137  53.213  1.00  0.00     0.019 A 
HETATM   27  C17 UNL     1      25.888   0.612  52.642  1.00  0.00     0.013 A 
HETATM   28 BR1  UNL     1      27.532  -0.137  53.286  1.00  0.00    -0.051 Br
HETATM   29  C18 UNL     1      25.976   1.574  51.651  1.00  0.00     0.048 A 
ENDBRANCH  21  23
ENDBRANCH   4  21
BRANCH   6  30
HETATM   30  N3  UNL     1      24.169   7.922  51.302  1.00  0.00    -0.385 N 
HETATM   31  H17 UNL     1      23.139   7.969  51.122  1.00  0.00     0.157 HD
HETATM   32  H18 UNL     1      24.922   8.554  51.683  1.00  0.00     0.157 HD
ENDBRANCH   6  30
TORSDOF 7
ENDMDL
MODEL 8
REMARK VINA RESULT:      -8.1      3.767      8.405
REMARK  7 active torsions:
REMARK  status: ('A' for Active; 'I' for Inactive)
REMARK    1  A    between atoms: O1_2  and  C2_3 
REMARK    2  A    between atoms: C5_6  and  O2_7 
REMARK    3  A    between atoms: C7_9  and  C8_10 
REMARK    4  A    between atoms: C8_10  and  C9_11 
REMARK    5  A    between atoms: C12_14  and  N1_15 
REMARK    6  A    between atoms: N1_15  and  C13_16 
REMARK    7  A    between atoms: C19_24  and  N3_25 
ROOT
HETATM    1  C9  UNL     1      25.719   3.493  50.633  1.00  0.00     0.011 C 
HETATM    2  C10 UNL     1      26.301   4.422  49.829  1.00  0.00     0.038 C 
HETATM    3  C11 UNL     1      25.699   5.742  50.147  1.00  0.00     0.020 C 
HETATM    4  C12 UNL     1      25.667   7.058  50.248  1.00  0.00     0.139 C 
HETATM    5  N2  UNL     1      24.417   7.447  50.808  1.00  0.00    -0.215 NA
HETATM    6  C19 UNL     1      23.685   6.385  51.047  1.00  0.00     0.127 C 
HETATM    7  C20 UNL     1      24.352   5.182  50.563  1.00  0.00     0.188 C 
HETATM    8  N4  UNL     1      24.743   4.172  51.479  1.00  0.00    -0.377 N 
HETATM    9  H20 UNL     1      24.621   3.761  52.430  1.00  0.00     0.160 HD
ENDROOT
BRANCH   1  10
HETATM   10  C8  UNL     1      26.176   2.070  50.493  1.00  0.00     0.098 C 
BRANCH  10  11
HETATM   11  C7  UNL     1      25.734   1.282  51.660  1.00  0.00    -0.017 A 
HETATM   12  C5  UNL     1      24.457   0.991  52.069  1.00  0.00     0.075 A 
HETATM   13  C4  UNL     1      24.221   0.233  53.188  1.00  0.00     0.040 A 
HETATM   14  C3  UNL     1      25.243  -0.282  53.969  1.00  0.00     0.039 A 
HETATM   15  C2  UNL     1      26.515   0.002  53.569  1.00  0.00     0.068 A 
HETATM   16  C21 UNL     1      26.767   0.761  52.448  1.00  0.00     0.047 A 
BRANCH  12  17
HETATM   17  O2  UNL     1      23.450   1.513  51.280  1.00  0.00    -0.355 OA
HETATM   18  C6  UNL     1      22.110   1.663  51.675  1.00  0.00     0.210 C 
ENDBRANCH  12  17
BRANCH  15  19
HETATM   19  O1  UNL     1      27.560  -0.487  54.311  1.00  0.00    -0.356 OA
HETATM   20  C1  UNL     1      28.589   0.312  54.854  1.00  0.00     0.210 C 
ENDBRANCH  15  19
ENDBRANCH  10  11
ENDBRANCH   1  10
BRANCH   4  21
HETATM   21  N1  UNL     1      26.807   7.792  49.858  1.00  0.00    -0.340 N 
HETATM   22  H12 UNL     1      27.200   8.288  50.680  1.00  0.00     0.167 HD
BRANCH  21  23
HETATM   23  C13 UNL     1      27.385   7.885  48.561  1.00  0.00     0.035 A 
HETATM   24  C14 UNL     1      26.588   8.322  47.526  1.00  0.00     0.029 A 
HETATM   25  C15 UNL     1      27.117   8.426  46.250  1.00  0.00     0.004 A 
HETATM   26  C16 UNL     1      28.433   8.091  46.026  1.00  0.00     0.019 A 
HETATM   27  C17 UNL     1      29.166   7.665  47.101  1.00  0.00     0.013 A 
HETATM   28 BR1  UNL     1      30.995   7.207  46.757  1.00  0.00    -0.051 Br
HETATM   29  C18 UNL     1      28.714   7.535  48.403  1.00  0.00     0.048 A 
ENDBRANCH  21  23
ENDBRANCH   4  21
BRANCH   6  30
HETATM   30  N3  UNL     1      22.396   6.157  51.588  1.00  0.00    -0.385 N 
HETATM   31  H17 UNL     1      21.763   6.235  50.759  1.00  0.00     0.157 HD
HETATM   32  H18 UNL     1      22.308   5.969  52.621  1.00  0.00     0.157 HD
ENDBRANCH   6  30
TORSDOF 7
ENDMDL
MODEL 9
REMARK VINA RESULT:      -8.0      3.556      8.019
REMARK  7 active torsions:
REMARK  status: ('A' for Active; 'I' for Inactive)
REMARK    1  A    between atoms: O1_2  and  C2_3 
REMARK    2  A    between atoms: C5_6  and  O2_7 
REMARK    3  A    between atoms: C7_9  and  C8_10 
REMARK    4  A    between atoms: C8_10  and  C9_11 
REMARK    5  A    between atoms: C12_14  and  N1_15 
REMARK    6  A    between atoms: N1_15  and  C13_16 
REMARK    7  A    between atoms: C19_24  and  N3_25 
ROOT
HETATM    1  C9  UNL     1      26.058   2.953  50.837  1.00  0.00     0.011 C 
HETATM    2  C10 UNL     1      26.382   3.404  49.596  1.00  0.00     0.038 C 
HETATM    3  C11 UNL     1      25.933   4.816  49.493  1.00  0.00     0.020 C 
HETATM    4  C12 UNL     1      25.960   6.059  49.047  1.00  0.00     0.139 C 
HETATM    5  N2  UNL     1      24.953   6.810  49.715  1.00  0.00    -0.215 NA
HETATM    6  C19 UNL     1      24.309   6.041  50.561  1.00  0.00     0.127 C 
HETATM    7  C20 UNL     1      24.770   4.662  50.453  1.00  0.00     0.188 C 
HETATM    8  N4  UNL     1      25.404   4.039  51.559  1.00  0.00    -0.377 N 
HETATM    9  H20 UNL     1      25.573   4.050  52.588  1.00  0.00     0.160 HD
ENDROOT
BRANCH   1  10
HETATM   10  C8  UNL     1      26.420   1.537  51.177  1.00  0.00     0.098 C 
BRANCH  10  11
HETATM   11  C7  UNL     1      25.388   0.949  52.052  1.00  0.00    -0.017 A 
HETATM   12  C5  UNL     1      25.546   0.131  53.142  1.00  0.00     0.075 A 
HETATM   13  C4  UNL     1      24.466  -0.328  53.854  1.00  0.00     0.040 A 
HETATM   14  C3  UNL     1      23.162   0.002  53.524  1.00  0.00     0.039 A 
HETATM   15  C2  UNL     1      22.996   0.815  52.442  1.00  0.00     0.068 A 
HETATM   16  C21 UNL     1      24.069   1.283  51.719  1.00  0.00     0.047 A 
BRANCH  12  17
HETATM   17  O2  UNL     1      26.853  -0.189  53.457  1.00  0.00    -0.355 OA
HETATM   18  C6  UNL     1      27.512   0.177  54.642  1.00  0.00     0.210 C 
ENDBRANCH  12  17
BRANCH  15  19
HETATM   19  O1  UNL     1      21.721   1.168  52.078  1.00  0.00    -0.356 OA
HETATM   20  C1  UNL     1      20.743   0.255  51.632  1.00  0.00     0.210 C 
ENDBRANCH  15  19
ENDBRANCH  10  11
ENDBRANCH   1  10
BRANCH   4  21
HETATM   21  N1  UNL     1      26.940   6.412  48.094  1.00  0.00    -0.340 N 
HETATM   22  H12 UNL     1      26.535   6.351  47.140  1.00  0.00     0.167 HD
BRANCH  21  23
HETATM   23  C13 UNL     1      28.288   6.799  48.329  1.00  0.00     0.035 A 
HETATM   24  C14 UNL     1      28.530   8.096  48.730  1.00  0.00     0.029 A 
HETATM   25  C15 UNL     1      29.830   8.508  48.968  1.00  0.00     0.004 A 
HETATM   26  C16 UNL     1      30.870   7.621  48.804  1.00  0.00     0.019 A 
HETATM   27  C17 UNL     1      30.556   6.351  48.405  1.00  0.00     0.013 A 
HETATM   28 BR1  UNL     1      32.026   5.139  48.184  1.00  0.00    -0.051 Br
HETATM   29  C18 UNL     1      29.287   5.861  48.147  1.00  0.00     0.048 A 
ENDBRANCH  21  23
ENDBRANCH   4  21
BRANCH   6  30
HETATM   30  N3  UNL     1      23.246   6.229  51.476  1.00  0.00    -0.385 N 
HETATM   31  H17 UNL     1      22.581   6.851  50.960  1.00  0.00     0.157 HD
HETATM   32  H18 UNL     1      23.301   5.761  52.419  1.00  0.00     0.157 HD
ENDBRANCH   6  30
TORSDOF 7
ENDMDL
