MODEL 1
REMARK VINA RESULT:     -10.5      0.000      0.000
REMARK  1 active torsions:
REMARK  status: ('A' for Active; 'I' for Inactive)
REMARK    1  A    between atoms: N3_22  and  C17_23 
ROOT
HETATM    1  C1  UNL     1      25.153   7.119  48.188  1.00  0.00     0.048 C 
HETATM    2  C2  UNL     1      25.315   5.835  48.920  1.00  0.00    -0.061 A 
HETATM    3  C3  UNL     1      26.515   5.168  48.901  1.00  0.00     0.009 A 
HETATM    4  C4  UNL     1      26.738   3.975  49.555  1.00  0.00     0.031 A 
HETATM    5  C5  UNL     1      25.683   3.407  50.280  1.00  0.00     0.046 A 
HETATM    6  C6  UNL     1      24.484   4.095  50.285  1.00  0.00     0.042 A 
HETATM    7  C7  UNL     1      24.277   5.302  49.617  1.00  0.00     0.024 A 
HETATM    8  C8  UNL     1      23.176   3.810  50.922  1.00  0.00     0.198 C 
HETATM    9  O1  UNL     1      22.525   4.858  51.159  1.00  0.00    -0.286 OA
HETATM   10  C9  UNL     1      22.480   2.595  51.333  1.00  0.00     0.056 A 
HETATM   11  C10 UNL     1      23.087   1.365  51.715  1.00  0.00     0.088 A 
HETATM   12  S1  UNL     1      21.706   0.274  52.113  1.00  0.00    -0.076 SA
HETATM   13  C11 UNL     1      20.437   1.467  51.762  1.00  0.00    -0.012 A 
HETATM   14  C12 UNL     1      18.980   1.242  51.882  1.00  0.00     0.057 C 
HETATM   15  C13 UNL     1      21.113   2.636  51.360  1.00  0.00    -0.032 A 
HETATM   16  C14 UNL     1      20.329   3.841  50.982  1.00  0.00     0.050 C 
HETATM   17  N1  UNL     1      24.384   0.820  51.850  1.00  0.00    -0.332 N 
HETATM   18  C15 UNL     1      25.713   1.395  52.001  1.00  0.00     0.279 A 
HETATM   19  N2  UNL     1      26.138   2.179  50.879  1.00  0.00    -0.337 N 
HETATM   20  C16 UNL     1      26.020   1.992  53.327  1.00  0.00     0.300 A 
HETATM   21  O2  UNL     1      25.990   2.797  54.315  1.00  0.00    -0.266 OA
HETATM   22  N3  UNL     1      26.651   0.742  52.848  1.00  0.00    -0.257 N 
HETATM   23  H13 UNL     1      24.303  -0.242  51.831  1.00  0.00     0.165 HD
HETATM   24  H14 UNL     1      26.970   1.846  50.307  1.00  0.00     0.164 HD
ENDROOT
BRANCH  22  25
HETATM   25  C17 UNL     1      27.546  -0.373  53.023  1.00  0.00     0.064 A 
HETATM   26  C18 UNL     1      27.107  -1.623  52.629  1.00  0.00     0.031 A 
HETATM   27  C19 UNL     1      27.956  -2.714  52.788  1.00  0.00     0.002 A 
HETATM   28  C20 UNL     1      29.214  -2.586  53.324  1.00  0.00     0.002 A 
HETATM   29  C21 UNL     1      29.646  -1.338  53.715  1.00  0.00     0.026 A 
HETATM   30  C22 UNL     1      28.814  -0.248  53.563  1.00  0.00     0.061 A 
HETATM   31 CL1  UNL     1      29.370   1.332  54.060  1.00  0.00    -0.082 Cl
ENDBRANCH  22  25
TORSDOF 1
ENDMDL
MODEL 2
REMARK VINA RESULT:      -9.9      3.074      6.282
REMARK  1 active torsions:
REMARK  status: ('A' for Active; 'I' for Inactive)
REMARK    1  A    between atoms: N3_22  and  C17_23 
ROOT
HETATM    1  C1  UNL     1      17.682   0.401  50.060  1.00  0.00     0.048 C 
HETATM    2  C2  UNL     1      19.063   0.944  50.138  1.00  0.00    -0.061 A 
HETATM    3  C3  UNL     1      19.577   1.694  49.109  1.00  0.00     0.009 A 
HETATM    4  C4  UNL     1      20.849   2.229  49.113  1.00  0.00     0.031 A 
HETATM    5  C5  UNL     1      21.665   1.995  50.226  1.00  0.00     0.046 A 
HETATM    6  C6  UNL     1      21.128   1.236  51.249  1.00  0.00     0.042 A 
HETATM    7  C7  UNL     1      19.839   0.704  51.228  1.00  0.00     0.024 A 
HETATM    8  C8  UNL     1      21.679   0.789  52.550  1.00  0.00     0.198 C 
HETATM    9  O1  UNL     1      20.780   0.601  53.407  1.00  0.00    -0.286 OA
HETATM   10  C9  UNL     1      23.021   0.519  53.056  1.00  0.00     0.056 A 
HETATM   11  C10 UNL     1      24.230   1.114  52.595  1.00  0.00     0.088 A 
HETATM   12  S1  UNL     1      25.524   0.379  53.616  1.00  0.00    -0.076 SA
HETATM   13  C11 UNL     1      24.430  -0.646  54.569  1.00  0.00    -0.012 A 
HETATM   14  C12 UNL     1      24.832  -1.568  55.654  1.00  0.00     0.057 C 
HETATM   15  C13 UNL     1      23.136  -0.388  54.073  1.00  0.00    -0.032 A 
HETATM   16  C14 UNL     1      21.971  -1.102  54.660  1.00  0.00     0.050 C 
HETATM   17  N1  UNL     1      24.646   2.052  51.623  1.00  0.00    -0.332 N 
HETATM   18  C15 UNL     1      23.974   3.111  50.885  1.00  0.00     0.279 A 
HETATM   19  N2  UNL     1      22.934   2.644  50.016  1.00  0.00    -0.337 N 
HETATM   20  C16 UNL     1      23.633   4.333  51.660  1.00  0.00     0.300 A 
HETATM   21  O2  UNL     1      23.058   5.097  52.504  1.00  0.00    -0.266 OA
HETATM   22  N3  UNL     1      24.682   4.315  50.615  1.00  0.00    -0.257 N 
HETATM   23  H13 UNL     1      25.684   1.899  51.436  1.00  0.00     0.165 HD
HETATM   24  H14 UNL     1      23.049   2.767  48.966  1.00  0.00     0.164 HD
ENDROOT
BRANCH  22  25
HETATM   25  C17 UNL     1      25.704   4.964  49.835  1.00  0.00     0.064 A 
HETATM   26  C18 UNL     1      26.749   4.189  49.365  1.00  0.00     0.031 A 
HETATM   27  C19 UNL     1      27.747   4.796  48.608  1.00  0.00     0.002 A 
HETATM   28  C20 UNL     1      27.726   6.137  48.316  1.00  0.00     0.002 A 
HETATM   29  C21 UNL     1      26.683   6.904  48.787  1.00  0.00     0.026 A 
HETATM   30  C22 UNL     1      25.686   6.316  49.538  1.00  0.00     0.061 A 
HETATM   31 CL1  UNL     1      24.367   7.295  50.132  1.00  0.00    -0.082 Cl
ENDBRANCH  22  25
TORSDOF 1
ENDMDL
MODEL 3
REMARK VINA RESULT:      -9.6      3.039      6.763
REMARK  1 active torsions:
REMARK  status: ('A' for Active; 'I' for Inactive)
REMARK    1  A    between atoms: N3_22  and  C17_23 
ROOT
HETATM    1  C1  UNL     1      19.415   0.677  49.768  1.00  0.00     0.048 C 
HETATM    2  C2  UNL     1      20.704   1.412  49.697  1.00  0.00    -0.061 A 
HETATM    3  C3  UNL     1      21.019   2.164  48.591  1.00  0.00     0.009 A 
HETATM    4  C4  UNL     1      22.195   2.871  48.456  1.00  0.00     0.031 A 
HETATM    5  C5  UNL     1      23.124   2.823  49.502  1.00  0.00     0.046 A 
HETATM    6  C6  UNL     1      22.787   2.060  50.605  1.00  0.00     0.042 A 
HETATM    7  C7  UNL     1      21.592   1.351  50.724  1.00  0.00     0.024 A 
HETATM    8  C8  UNL     1      23.501   1.776  51.873  1.00  0.00     0.198 C 
HETATM    9  O1  UNL     1      22.710   1.516  52.814  1.00  0.00    -0.286 OA
HETATM   10  C9  UNL     1      24.904   1.729  52.270  1.00  0.00     0.056 A 
HETATM   11  C10 UNL     1      25.972   2.459  51.675  1.00  0.00     0.088 A 
HETATM   12  S1  UNL     1      27.437   1.977  52.612  1.00  0.00    -0.076 SA
HETATM   13  C11 UNL     1      26.584   0.869  53.708  1.00  0.00    -0.012 A 
HETATM   14  C12 UNL     1      27.202   0.081  54.797  1.00  0.00     0.057 C 
HETATM   15  C13 UNL     1      25.231   0.912  53.316  1.00  0.00    -0.032 A 
HETATM   16  C14 UNL     1      24.234   0.078  54.039  1.00  0.00     0.050 C 
HETATM   17  N1  UNL     1      26.168   3.385  50.625  1.00  0.00    -0.332 N 
HETATM   18  C15 UNL     1      25.291   4.291  49.899  1.00  0.00     0.279 A 
HETATM   19  N2  UNL     1      24.263   3.631  49.150  1.00  0.00    -0.337 N 
HETATM   20  C16 UNL     1      24.840   5.498  50.639  1.00  0.00     0.300 A 
HETATM   21  O2  UNL     1      24.229   6.224  51.492  1.00  0.00    -0.266 OA
HETATM   22  N3  UNL     1      25.792   5.564  49.508  1.00  0.00    -0.257 N 
HETATM   23  H13 UNL     1      27.198   3.369  50.355  1.00  0.00     0.165 HD
HETATM   24  H14 UNL     1      24.274   3.704  48.089  1.00  0.00     0.164 HD
ENDROOT
BRANCH  22  25
HETATM   25  C17 UNL     1      26.643   6.302  48.609  1.00  0.00     0.064 A 
HETATM   26  C18 UNL     1      27.965   5.912  48.504  1.00  0.00     0.031 A 
HETATM   27  C19 UNL     1      28.805   6.610  47.641  1.00  0.00     0.002 A 
HETATM   28  C20 UNL     1      28.360   7.672  46.894  1.00  0.00     0.002 A 
HETATM   29  C21 UNL     1      27.042   8.056  47.002  1.00  0.00     0.026 A 
HETATM   30  C22 UNL     1      26.198   7.373  47.854  1.00  0.00     0.061 A 
HETATM   31 CL1  UNL     1      24.528   7.866  47.986  1.00  0.00    -0.082 Cl
ENDBRANCH  22  25
TORSDOF 1
ENDMDL
MODEL 4
REMARK VINA RESULT:      -9.6      2.946      6.670
REMARK  1 active torsions:
REMARK  status: ('A' for Active; 'I' for Inactive)
REMARK    1  A    between atoms: N3_22  and  C17_23 
ROOT
HETATM    1  C1  UNL     1      23.907   7.611  50.749  1.00  0.00     0.048 C 
HETATM    2  C2  UNL     1      23.310   6.291  51.078  1.00  0.00    -0.061 A 
HETATM    3  C3  UNL     1      21.956   6.167  51.274  1.00  0.00     0.009 A 
HETATM    4  C4  UNL     1      21.334   4.975  51.582  1.00  0.00     0.031 A 
HETATM    5  C5  UNL     1      22.122   3.825  51.702  1.00  0.00     0.046 A 
HETATM    6  C6  UNL     1      23.482   3.973  51.501  1.00  0.00     0.042 A 
HETATM    7  C7  UNL     1      24.094   5.187  51.190  1.00  0.00     0.024 A 
HETATM    8  C8  UNL     1      24.605   3.007  51.548  1.00  0.00     0.198 C 
HETATM    9  O1  UNL     1      25.564   3.358  50.816  1.00  0.00    -0.286 OA
HETATM   10  C9  UNL     1      24.846   1.749  52.247  1.00  0.00     0.056 A 
HETATM   11  C10 UNL     1      23.855   0.824  52.683  1.00  0.00     0.088 A 
HETATM   12  S1  UNL     1      24.783  -0.513  53.462  1.00  0.00    -0.076 SA
HETATM   13  C11 UNL     1      26.384   0.201  53.179  1.00  0.00    -0.012 A 
HETATM   14  C12 UNL     1      27.680  -0.392  53.578  1.00  0.00     0.057 C 
HETATM   15  C13 UNL     1      26.147   1.418  52.509  1.00  0.00    -0.032 A 
HETATM   16  C14 UNL     1      27.297   2.280  52.128  1.00  0.00     0.050 C 
HETATM   17  N1  UNL     1      22.448   0.693  52.667  1.00  0.00    -0.332 N 
HETATM   18  C15 UNL     1      21.385   1.287  51.869  1.00  0.00     0.279 A 
HETATM   19  N2  UNL     1      21.270   2.708  52.020  1.00  0.00    -0.337 N 
HETATM   20  C16 UNL     1      21.267   0.801  50.471  1.00  0.00     0.300 A 
HETATM   21  O2  UNL     1      21.542   0.608  49.240  1.00  0.00    -0.266 OA
HETATM   22  N3  UNL     1      20.264   0.486  51.513  1.00  0.00    -0.257 N 
HETATM   23  H13 UNL     1      22.170  -0.005  53.422  1.00  0.00     0.165 HD
HETATM   24  H14 UNL     1      20.386   3.108  52.457  1.00  0.00     0.164 HD
ENDROOT
BRANCH  22  25
HETATM   25  C17 UNL     1      19.044  -0.143  51.949  1.00  0.00     0.064 A 
HETATM   26  C18 UNL     1      17.898   0.084  51.209  1.00  0.00     0.031 A 
HETATM   27  C19 UNL     1      16.709  -0.515  51.613  1.00  0.00     0.002 A 
HETATM   28  C20 UNL     1      16.639  -1.322  52.721  1.00  0.00     0.002 A 
HETATM   29  C21 UNL     1      17.784  -1.546  53.454  1.00  0.00     0.026 A 
HETATM   30  C22 UNL     1      18.970  -0.958  53.065  1.00  0.00     0.061 A 
HETATM   31 CL1  UNL     1      20.417  -1.247  54.000  1.00  0.00    -0.082 Cl
ENDBRANCH  22  25
TORSDOF 1
ENDMDL
MODEL 5
REMARK VINA RESULT:      -9.6      3.358      4.763
REMARK  1 active torsions:
REMARK  status: ('A' for Active; 'I' for Inactive)
REMARK    1  A    between atoms: N3_22  and  C17_23 
ROOT
HETATM    1  C1  UNL     1      28.353   6.598  47.904  1.00  0.00     0.048 C 
HETATM    2  C2  UNL     1      27.245   5.867  48.571  1.00  0.00    -0.061 A 
HETATM    3  C3  UNL     1      27.406   4.559  48.958  1.00  0.00     0.009 A 
HETATM    4  C4  UNL     1      26.423   3.818  49.580  1.00  0.00     0.031 A 
HETATM    5  C5  UNL     1      25.190   4.430  49.835  1.00  0.00     0.046 A 
HETATM    6  C6  UNL     1      25.049   5.747  49.436  1.00  0.00     0.042 A 
HETATM    7  C7  UNL     1      26.056   6.480  48.807  1.00  0.00     0.024 A 
HETATM    8  C8  UNL     1      23.918   6.699  49.532  1.00  0.00     0.198 C 
HETATM    9  O1  UNL     1      24.305   7.893  49.571  1.00  0.00    -0.286 OA
HETATM   10  C9  UNL     1      22.466   6.563  49.590  1.00  0.00     0.056 A 
HETATM   11  C10 UNL     1      21.745   5.445  50.099  1.00  0.00     0.088 A 
HETATM   12  S1  UNL     1      20.007   5.889  49.900  1.00  0.00    -0.076 SA
HETATM   13  C11 UNL     1      20.318   7.481  49.175  1.00  0.00    -0.012 A 
HETATM   14  C12 UNL     1      19.288   8.450  48.739  1.00  0.00     0.057 C 
HETATM   15  C13 UNL     1      21.720   7.606  49.115  1.00  0.00    -0.032 A 
HETATM   16  C14 UNL     1      22.321   8.840  48.543  1.00  0.00     0.050 C 
HETATM   17  N1  UNL     1      22.015   4.181  50.670  1.00  0.00    -0.332 N 
HETATM   18  C15 UNL     1      23.172   3.595  51.331  1.00  0.00     0.279 A 
HETATM   19  N2  UNL     1      24.326   3.481  50.489  1.00  0.00    -0.337 N 
HETATM   20  C16 UNL     1      23.453   4.078  52.707  1.00  0.00     0.300 A 
HETATM   21  O2  UNL     1      23.798   4.854  53.660  1.00  0.00    -0.266 OA
HETATM   22  N3  UNL     1      22.962   2.711  52.426  1.00  0.00    -0.257 N 
HETATM   23  H13 UNL     1      21.144   3.575  50.564  1.00  0.00     0.165 HD
HETATM   24  H14 UNL     1      24.689   2.512  50.245  1.00  0.00     0.164 HD
ENDROOT
BRANCH  22  25
HETATM   25  C17 UNL     1      22.549   1.399  52.854  1.00  0.00     0.064 A 
HETATM   26  C18 UNL     1      21.202   1.187  53.083  1.00  0.00     0.031 A 
HETATM   27  C19 UNL     1      20.782  -0.074  53.497  1.00  0.00     0.002 A 
HETATM   28  C20 UNL     1      21.662  -1.110  53.686  1.00  0.00     0.002 A 
HETATM   29  C21 UNL     1      23.004  -0.893  53.457  1.00  0.00     0.026 A 
HETATM   30  C22 UNL     1      23.434   0.352  53.046  1.00  0.00     0.061 A 
HETATM   31 CL1  UNL     1      25.136   0.620  52.758  1.00  0.00    -0.082 Cl
ENDBRANCH  22  25
TORSDOF 1
ENDMDL
MODEL 6
REMARK VINA RESULT:      -9.3      2.631      7.466
REMARK  1 active torsions:
REMARK  status: ('A' for Active; 'I' for Inactive)
REMARK    1  A    between atoms: N3_22  and  C17_23 
ROOT
HETATM    1  C1  UNL     1      18.504  -1.174  53.083  1.00  0.00     0.048 C 
HETATM    2  C2  UNL     1      19.469  -0.233  52.457  1.00  0.00    -0.061 A 
HETATM    3  C3  UNL     1      19.088   0.557  51.401  1.00  0.00     0.009 A 
HETATM    4  C4  UNL     1      19.929   1.452  50.772  1.00  0.00     0.031 A 
HETATM    5  C5  UNL     1      21.246   1.564  51.233  1.00  0.00     0.046 A 
HETATM    6  C6  UNL     1      21.608   0.759  52.298  1.00  0.00     0.042 A 
HETATM    7  C7  UNL     1      20.743  -0.140  52.921  1.00  0.00     0.024 A 
HETATM    8  C8  UNL     1      22.883   0.602  53.037  1.00  0.00     0.198 C 
HETATM    9  O1  UNL     1      22.701   0.216  54.218  1.00  0.00    -0.286 OA
HETATM   10  C9  UNL     1      24.290   0.794  52.704  1.00  0.00     0.056 A 
HETATM   11  C10 UNL     1      24.810   1.691  51.727  1.00  0.00     0.088 A 
HETATM   12  S1  UNL     1      26.599   1.465  51.801  1.00  0.00    -0.076 SA
HETATM   13  C11 UNL     1      26.565   0.233  53.080  1.00  0.00    -0.012 A 
HETATM   14  C12 UNL     1      27.745  -0.437  53.670  1.00  0.00     0.057 C 
HETATM   15  C13 UNL     1      25.204   0.046  53.394  1.00  0.00    -0.032 A 
HETATM   16  C14 UNL     1      24.823  -0.941  54.439  1.00  0.00     0.050 C 
HETATM   17  N1  UNL     1      24.328   2.633  50.791  1.00  0.00    -0.332 N 
HETATM   18  C15 UNL     1      23.085   3.377  50.652  1.00  0.00     0.279 A 
HETATM   19  N2  UNL     1      21.934   2.551  50.441  1.00  0.00    -0.337 N 
HETATM   20  C16 UNL     1      22.880   4.493  51.611  1.00  0.00     0.300 A 
HETATM   21  O2  UNL     1      22.665   5.108  52.708  1.00  0.00    -0.266 OA
HETATM   22  N3  UNL     1      23.137   4.715  50.171  1.00  0.00    -0.257 N 
HETATM   23  H13 UNL     1      25.085   2.790  50.057  1.00  0.00     0.165 HD
HETATM   24  H14 UNL     1      21.414   2.622  49.516  1.00  0.00     0.164 HD
ENDROOT
BRANCH  22  25
HETATM   25  C17 UNL     1      23.320   5.582  49.035  1.00  0.00     0.064 A 
HETATM   26  C18 UNL     1      22.507   5.387  47.933  1.00  0.00     0.031 A 
HETATM   27  C19 UNL     1      22.667   6.214  46.825  1.00  0.00     0.002 A 
HETATM   28  C20 UNL     1      23.606   7.215  46.794  1.00  0.00     0.002 A 
HETATM   29  C21 UNL     1      24.413   7.405  47.894  1.00  0.00     0.026 A 
HETATM   30  C22 UNL     1      24.266   6.592  48.999  1.00  0.00     0.061 A 
HETATM   31 CL1  UNL     1      25.292   6.840  50.390  1.00  0.00    -0.082 Cl
ENDBRANCH  22  25
TORSDOF 1
ENDMDL
MODEL 7
REMARK VINA RESULT:      -9.1      3.760      8.123
REMARK  1 active torsions:
REMARK  status: ('A' for Active; 'I' for Inactive)
REMARK    1  A    between atoms: N3_22  and  C17_23 
ROOT
HETATM    1  C1  UNL     1      16.392  -1.677  52.713  1.00  0.00     0.048 C 
HETATM    2  C2  UNL     1      17.426  -0.853  52.035  1.00  0.00    -0.061 A 
HETATM    3  C3  UNL     1      17.193  -0.328  50.787  1.00  0.00     0.009 A 
HETATM    4  C4  UNL     1      18.105   0.443  50.098  1.00  0.00     0.031 A 
HETATM    5  C5  UNL     1      19.340   0.710  50.701  1.00  0.00     0.046 A 
HETATM    6  C6  UNL     1      19.554   0.171  51.957  1.00  0.00     0.042 A 
HETATM    7  C7  UNL     1      18.618  -0.608  52.638  1.00  0.00     0.024 A 
HETATM    8  C8  UNL     1      20.711   0.233  52.882  1.00  0.00     0.198 C 
HETATM    9  O1  UNL     1      20.365   0.106  54.083  1.00  0.00    -0.286 OA
HETATM   10  C9  UNL     1      22.149   0.408  52.713  1.00  0.00     0.056 A 
HETATM   11  C10 UNL     1      22.795   1.093  51.644  1.00  0.00     0.088 A 
HETATM   12  S1  UNL     1      24.557   0.966  52.012  1.00  0.00    -0.076 SA
HETATM   13  C11 UNL     1      24.352   0.040  53.514  1.00  0.00    -0.012 A 
HETATM   14  C12 UNL     1      25.442  -0.434  54.395  1.00  0.00     0.057 C 
HETATM   15  C13 UNL     1      22.962  -0.132  53.671  1.00  0.00    -0.032 A 
HETATM   16  C14 UNL     1      22.445  -0.884  54.845  1.00  0.00     0.050 C 
HETATM   17  N1  UNL     1      22.442   1.788  50.465  1.00  0.00    -0.332 N 
HETATM   18  C15 UNL     1      21.224   2.430  49.994  1.00  0.00     0.279 A 
HETATM   19  N2  UNL     1      20.124   1.529  49.813  1.00  0.00    -0.337 N 
HETATM   20  C16 UNL     1      20.870   3.718  50.645  1.00  0.00     0.300 A 
HETATM   21  O2  UNL     1      20.491   4.547  51.537  1.00  0.00    -0.266 OA
HETATM   22  N3  UNL     1      21.329   3.633  49.240  1.00  0.00    -0.257 N 
HETATM   23  H13 UNL     1      23.295   1.814  49.826  1.00  0.00     0.165 HD
HETATM   24  H14 UNL     1      19.743   1.375  48.833  1.00  0.00     0.164 HD
ENDROOT
BRANCH  22  25
HETATM   25  C17 UNL     1      21.665   4.239  47.978  1.00  0.00     0.064 A 
HETATM   26  C18 UNL     1      21.547   3.467  46.837  1.00  0.00     0.031 A 
HETATM   27  C19 UNL     1      21.866   4.034  45.606  1.00  0.00     0.002 A 
HETATM   28  C20 UNL     1      22.293   5.333  45.492  1.00  0.00     0.002 A 
HETATM   29  C21 UNL     1      22.408   6.098  46.632  1.00  0.00     0.026 A 
HETATM   30  C22 UNL     1      22.095   5.549  47.858  1.00  0.00     0.061 A 
HETATM   31 CL1  UNL     1      22.244   6.526  49.299  1.00  0.00    -0.082 Cl
ENDBRANCH  22  25
TORSDOF 1
ENDMDL
MODEL 8
REMARK VINA RESULT:      -9.1      3.304      6.934
REMARK  1 active torsions:
REMARK  status: ('A' for Active; 'I' for Inactive)
REMARK    1  A    between atoms: N3_22  and  C17_23 
ROOT
HETATM    1  C1  UNL     1      24.100   7.583  50.470  1.00  0.00     0.048 C 
HETATM    2  C2  UNL     1      23.422   6.312  50.834  1.00  0.00    -0.061 A 
HETATM    3  C3  UNL     1      22.063   6.275  51.027  1.00  0.00     0.009 A 
HETATM    4  C4  UNL     1      21.369   5.133  51.367  1.00  0.00     0.031 A 
HETATM    5  C5  UNL     1      22.085   3.941  51.525  1.00  0.00     0.046 A 
HETATM    6  C6  UNL     1      23.453   4.001  51.327  1.00  0.00     0.042 A 
HETATM    7  C7  UNL     1      24.138   5.166  50.983  1.00  0.00     0.024 A 
HETATM    8  C8  UNL     1      24.515   2.970  51.407  1.00  0.00     0.198 C 
HETATM    9  O1  UNL     1      25.495   3.241  50.670  1.00  0.00    -0.286 OA
HETATM   10  C9  UNL     1      24.677   1.722  52.144  1.00  0.00     0.056 A 
HETATM   11  C10 UNL     1      23.630   0.872  52.602  1.00  0.00     0.088 A 
HETATM   12  S1  UNL     1      24.473  -0.496  53.424  1.00  0.00    -0.076 SA
HETATM   13  C11 UNL     1      26.116   0.112  53.129  1.00  0.00    -0.012 A 
HETATM   14  C12 UNL     1      27.372  -0.546  53.551  1.00  0.00     0.057 C 
HETATM   15  C13 UNL     1      25.955   1.321  52.422  1.00  0.00    -0.032 A 
HETATM   16  C14 UNL     1      27.156   2.100  52.021  1.00  0.00     0.050 C 
HETATM   17  N1  UNL     1      22.218   0.826  52.583  1.00  0.00    -0.332 N 
HETATM   18  C15 UNL     1      21.195   1.459  51.763  1.00  0.00     0.279 A 
HETATM   19  N2  UNL     1      21.166   2.888  51.871  1.00  0.00    -0.337 N 
HETATM   20  C16 UNL     1      21.052   0.939  50.378  1.00  0.00     0.300 A 
HETATM   21  O2  UNL     1      21.320   0.694  49.156  1.00  0.00    -0.266 OA
HETATM   22  N3  UNL     1      20.029   0.717  51.425  1.00  0.00    -0.257 N 
HETATM   23  H13 UNL     1      21.895   0.169  53.357  1.00  0.00     0.165 HD
HETATM   24  H14 UNL     1      20.307   3.353  52.292  1.00  0.00     0.164 HD
ENDROOT
BRANCH  22  25
HETATM   25  C17 UNL     1      18.772   0.176  51.873  1.00  0.00     0.064 A 
HETATM   26  C18 UNL     1      18.800  -0.800  52.852  1.00  0.00     0.031 A 
HETATM   27  C19 UNL     1      17.596  -1.337  53.300  1.00  0.00     0.002 A 
HETATM   28  C20 UNL     1      16.386  -0.927  52.800  1.00  0.00     0.002 A 
HETATM   29  C21 UNL     1      16.364   0.046  51.824  1.00  0.00     0.026 A 
HETATM   30  C22 UNL     1      17.549   0.586  51.371  1.00  0.00     0.061 A 
HETATM   31 CL1  UNL     1      17.513   1.819  50.134  1.00  0.00    -0.082 Cl
ENDBRANCH  22  25
TORSDOF 1
ENDMDL
MODEL 9
REMARK VINA RESULT:      -9.1      2.629      3.528
REMARK  1 active torsions:
REMARK  status: ('A' for Active; 'I' for Inactive)
REMARK    1  A    between atoms: N3_22  and  C17_23 
ROOT
HETATM    1  C1  UNL     1      20.506   3.604  46.562  1.00  0.00     0.048 C 
HETATM    2  C2  UNL     1      21.286   3.091  47.718  1.00  0.00    -0.061 A 
HETATM    3  C3  UNL     1      22.659   3.128  47.705  1.00  0.00     0.009 A 
HETATM    4  C4  UNL     1      23.447   2.669  48.739  1.00  0.00     0.031 A 
HETATM    5  C5  UNL     1      22.816   2.135  49.870  1.00  0.00     0.046 A 
HETATM    6  C6  UNL     1      21.434   2.107  49.861  1.00  0.00     0.042 A 
HETATM    7  C7  UNL     1      20.653   2.576  48.804  1.00  0.00     0.024 A 
HETATM    8  C8  UNL     1      20.443   1.625  50.853  1.00  0.00     0.198 C 
HETATM    9  O1  UNL     1      19.345   2.226  50.756  1.00  0.00    -0.286 OA
HETATM   10  C9  UNL     1      20.457   0.616  51.907  1.00  0.00     0.056 A 
HETATM   11  C10 UNL     1      21.599   0.168  52.629  1.00  0.00     0.088 A 
HETATM   12  S1  UNL     1      20.961  -1.064  53.783  1.00  0.00    -0.076 SA
HETATM   13  C11 UNL     1      19.268  -0.925  53.263  1.00  0.00    -0.012 A 
HETATM   14  C12 UNL     1      18.127  -1.688  53.816  1.00  0.00     0.057 C 
HETATM   15  C13 UNL     1      19.260   0.045  52.241  1.00  0.00    -0.032 A 
HETATM   16  C14 UNL     1      17.977   0.397  51.576  1.00  0.00     0.050 C 
HETATM   17  N1  UNL     1      22.990   0.416  52.672  1.00  0.00    -0.332 N 
HETATM   18  C15 UNL     1      23.836   1.515  52.233  1.00  0.00     0.279 A 
HETATM   19  N2  UNL     1      23.823   1.728  50.815  1.00  0.00    -0.337 N 
HETATM   20  C16 UNL     1      23.771   2.757  53.047  1.00  0.00     0.300 A 
HETATM   21  O2  UNL     1      23.317   3.833  53.559  1.00  0.00    -0.266 OA
HETATM   22  N3  UNL     1      24.960   1.876  53.027  1.00  0.00    -0.257 N 
HETATM   23  H13 UNL     1      23.462  -0.417  53.140  1.00  0.00     0.165 HD
HETATM   24  H14 UNL     1      24.719   1.571  50.265  1.00  0.00     0.164 HD
ENDROOT
BRANCH  22  25
HETATM   25  C17 UNL     1      26.296   1.540  53.450  1.00  0.00     0.064 A 
HETATM   26  C18 UNL     1      27.329   2.368  53.050  1.00  0.00     0.031 A 
HETATM   27  C19 UNL     1      28.627   2.062  53.448  1.00  0.00     0.002 A 
HETATM   28  C20 UNL     1      28.912   0.965  54.223  1.00  0.00     0.002 A 
HETATM   29  C21 UNL     1      27.879   0.143  54.618  1.00  0.00     0.026 A 
HETATM   30  C22 UNL     1      26.587   0.435  54.231  1.00  0.00     0.061 A 
HETATM   31 CL1  UNL     1      25.282  -0.611  54.736  1.00  0.00    -0.082 Cl
ENDBRANCH  22  25
TORSDOF 1
ENDMDL
