MODEL 1
REMARK VINA RESULT:      -8.1      0.000      0.000
REMARK  2 active torsions:
REMARK  status: ('A' for Active; 'I' for Inactive)
REMARK    1  A    between atoms: C2_2  and  C3_3 
REMARK       I    between atoms: C3_3  and  N1_5 
REMARK    2  A    between atoms: N1_5  and  C4_6 
ROOT
HETATM    1  C4  UNL     1      24.783   5.022  50.026  1.00  0.00     0.040 C 
HETATM    2  C5  UNL     1      24.902   3.736  49.555  1.00  0.00     0.018 C 
HETATM    3  C6  UNL     1      24.317   2.477  50.153  1.00  0.00     0.089 C 
HETATM    4  C7  UNL     1      22.803   2.535  50.165  1.00  0.00     0.052 C 
HETATM    5  C8  UNL     1      22.150   1.720  49.178  1.00  0.00     0.097 C 
HETATM    6  N2  UNL     1      21.619   1.085  48.385  1.00  0.00    -0.192 NA
HETATM    7  C9  UNL     1      21.925   3.227  50.952  1.00  0.00     0.136 C 
HETATM    8  N3  UNL     1      22.166   4.369  51.886  1.00  0.00    -0.263 NA
HETATM    9  C10 UNL     1      23.453   4.810  52.160  1.00  0.00     0.047 C 
HETATM   10  C11 UNL     1      24.110   4.181  53.393  1.00  0.00     0.099 C 
HETATM   11  C12 UNL     1      24.680   2.858  52.864  1.00  0.00    -0.042 A 
HETATM   12  C13 UNL     1      25.223   2.243  53.968  1.00  0.00     0.052 A 
HETATM   13  C14 UNL     1      25.835   1.018  53.862  1.00  0.00     0.138 A 
HETATM   14  F1  UNL     1      26.361   0.431  54.955  1.00  0.00    -0.204 F 
HETATM   15  C15 UNL     1      25.916   0.382  52.645  1.00  0.00     0.073 A 
HETATM   16 CL1  UNL     1      26.678  -1.176  52.427  1.00  0.00    -0.081 Cl
HETATM   17  C16 UNL     1      25.355   1.045  51.574  1.00  0.00     0.035 A 
HETATM   18  C17 UNL     1      24.710   2.292  51.581  1.00  0.00    -0.037 A 
HETATM   19  C18 UNL     1      24.041   5.763  51.128  1.00  0.00    -0.006 C 
HETATM   20  C19 UNL     1      24.117   7.088  50.864  1.00  0.00     0.048 C 
ENDROOT
BRANCH   1  21
HETATM   21  N1  UNL     1      25.632   5.841  49.185  1.00  0.00    -0.323 N 
HETATM   22  C3  UNL     1      26.948   5.690  48.710  1.00  0.00     0.244 C 
HETATM   23  O1  UNL     1      27.685   4.682  48.987  1.00  0.00    -0.268 OA
HETATM   24  H4  UNL     1      25.061   6.700  48.924  1.00  0.00     0.169 HD
BRANCH  22  25
HETATM   25  C2  UNL     1      27.470   6.743  47.870  1.00  0.00     0.064 C 
HETATM   26  C1  UNL     1      26.783   7.778  47.477  1.00  0.00     0.017 C 
ENDBRANCH  22  25
ENDBRANCH   1  21
TORSDOF 2
ENDMDL
MODEL 2
REMARK VINA RESULT:      -7.7      3.149      3.554
REMARK  2 active torsions:
REMARK  status: ('A' for Active; 'I' for Inactive)
REMARK    1  A    between atoms: C2_2  and  C3_3 
REMARK       I    between atoms: C3_3  and  N1_5 
REMARK    2  A    between atoms: N1_5  and  C4_6 
ROOT
HETATM    1  C4  UNL     1      22.010   3.443  49.491  1.00  0.00     0.040 C 
HETATM    2  C5  UNL     1      22.071   2.088  49.717  1.00  0.00     0.018 C 
HETATM    3  C6  UNL     1      22.078   1.376  51.051  1.00  0.00     0.089 C 
HETATM    4  C7  UNL     1      20.795   1.638  51.813  1.00  0.00     0.052 C 
HETATM    5  C8  UNL     1      19.866   0.542  51.846  1.00  0.00     0.097 C 
HETATM    6  N2  UNL     1      19.112  -0.321  51.866  1.00  0.00    -0.192 NA
HETATM    7  C9  UNL     1      20.346   2.739  52.488  1.00  0.00     0.136 C 
HETATM    8  N3  UNL     1      20.848   4.147  52.472  1.00  0.00    -0.263 NA
HETATM    9  C10 UNL     1      22.007   4.485  51.788  1.00  0.00     0.047 C 
HETATM   10  C11 UNL     1      23.290   4.458  52.626  1.00  0.00     0.099 C 
HETATM   11  C12 UNL     1      23.709   2.982  52.597  1.00  0.00    -0.042 A 
HETATM   12  C13 UNL     1      24.827   2.918  53.395  1.00  0.00     0.052 A 
HETATM   13  C14 UNL     1      25.483   1.728  53.596  1.00  0.00     0.138 A 
HETATM   14  F1  UNL     1      26.577   1.686  54.380  1.00  0.00    -0.204 F 
HETATM   15  C15 UNL     1      25.029   0.574  53.001  1.00  0.00     0.073 A 
HETATM   16 CL1  UNL     1      25.806  -0.979  53.206  1.00  0.00    -0.081 Cl
HETATM   17  C16 UNL     1      23.905   0.697  52.212  1.00  0.00     0.035 A 
HETATM   18  C17 UNL     1      23.168   1.862  51.947  1.00  0.00    -0.037 A 
HETATM   19  C18 UNL     1      21.829   4.721  50.295  1.00  0.00    -0.006 C 
HETATM   20  C19 UNL     1      21.551   5.723  49.429  1.00  0.00     0.048 C 
ENDROOT
BRANCH   1  21
HETATM   21  N1  UNL     1      22.170   3.621  48.062  1.00  0.00    -0.323 N 
HETATM   22  C3  UNL     1      21.298   3.454  46.969  1.00  0.00     0.244 C 
HETATM   23  O1  UNL     1      20.084   3.072  47.089  1.00  0.00    -0.268 OA
HETATM   24  H4  UNL     1      23.172   3.942  47.907  1.00  0.00     0.169 HD
BRANCH  22  25
HETATM   25  C2  UNL     1      21.829   3.737  45.656  1.00  0.00     0.064 C 
HETATM   26  C1  UNL     1      21.891   4.926  45.128  1.00  0.00     0.017 C 
ENDBRANCH  22  25
ENDBRANCH   1  21
TORSDOF 2
ENDMDL
MODEL 3
REMARK VINA RESULT:      -7.5      3.694      6.069
REMARK  2 active torsions:
REMARK  status: ('A' for Active; 'I' for Inactive)
REMARK    1  A    between atoms: C2_2  and  C3_3 
REMARK       I    between atoms: C3_3  and  N1_5 
REMARK    2  A    between atoms: N1_5  and  C4_6 
ROOT
HETATM    1  C4  UNL     1      24.724   3.043  51.174  1.00  0.00     0.040 C 
HETATM    2  C5  UNL     1      24.994   3.260  49.843  1.00  0.00     0.018 C 
HETATM    3  C6  UNL     1      24.505   4.397  48.976  1.00  0.00     0.089 C 
HETATM    4  C7  UNL     1      25.013   5.729  49.491  1.00  0.00     0.052 C 
HETATM    5  C8  UNL     1      26.075   6.320  48.724  1.00  0.00     0.097 C 
HETATM    6  N2  UNL     1      26.932   6.792  48.128  1.00  0.00    -0.192 NA
HETATM    7  C9  UNL     1      24.644   6.489  50.566  1.00  0.00     0.136 C 
HETATM    8  N3  UNL     1      23.805   6.135  51.751  1.00  0.00    -0.263 NA
HETATM    9  C10 UNL     1      23.157   4.910  51.829  1.00  0.00     0.047 C 
HETATM   10  C11 UNL     1      21.717   4.899  51.305  1.00  0.00     0.099 C 
HETATM   11  C12 UNL     1      21.885   4.710  49.791  1.00  0.00    -0.042 A 
HETATM   12  C13 UNL     1      20.607   4.759  49.287  1.00  0.00     0.052 A 
HETATM   13  C14 UNL     1      20.373   4.618  47.940  1.00  0.00     0.138 A 
HETATM   14  F1  UNL     1      19.114   4.668  47.466  1.00  0.00    -0.204 F 
HETATM   15  C15 UNL     1      21.420   4.426  47.069  1.00  0.00     0.073 A 
HETATM   16 CL1  UNL     1      21.208   4.238  45.344  1.00  0.00    -0.081 Cl
HETATM   17  C16 UNL     1      22.679   4.386  47.630  1.00  0.00     0.035 A 
HETATM   18  C17 UNL     1      23.018   4.519  48.986  1.00  0.00    -0.037 A 
HETATM   19  C18 UNL     1      24.019   3.755  52.319  1.00  0.00    -0.006 C 
HETATM   20  C19 UNL     1      24.375   3.142  53.472  1.00  0.00     0.048 C 
ENDROOT
BRANCH   1  21
HETATM   21  N1  UNL     1      25.306   1.758  51.501  1.00  0.00    -0.323 N 
HETATM   22  C3  UNL     1      26.604   1.357  51.869  1.00  0.00     0.244 C 
HETATM   23  O1  UNL     1      27.586   2.168  51.983  1.00  0.00    -0.268 OA
HETATM   24  H4  UNL     1      24.524   1.042  51.421  1.00  0.00     0.169 HD
BRANCH  22  25
HETATM   25  C2  UNL     1      26.810  -0.049  52.125  1.00  0.00     0.064 C 
HETATM   26  C1  UNL     1      26.048  -0.777  52.892  1.00  0.00     0.017 C 
ENDBRANCH  22  25
ENDBRANCH   1  21
TORSDOF 2
ENDMDL
MODEL 4
REMARK VINA RESULT:      -7.4      3.899      6.245
REMARK  2 active torsions:
REMARK  status: ('A' for Active; 'I' for Inactive)
REMARK    1  A    between atoms: C2_2  and  C3_3 
REMARK       I    between atoms: C3_3  and  N1_5 
REMARK    2  A    between atoms: N1_5  and  C4_6 
ROOT
HETATM    1  C4  UNL     1      23.841   1.985  51.490  1.00  0.00     0.040 C 
HETATM    2  C5  UNL     1      24.314   2.874  50.554  1.00  0.00     0.018 C 
HETATM    3  C6  UNL     1      23.565   4.017  49.908  1.00  0.00     0.089 C 
HETATM    4  C7  UNL     1      23.137   5.040  50.941  1.00  0.00     0.052 C 
HETATM    5  C8  UNL     1      23.897   6.259  50.950  1.00  0.00     0.097 C 
HETATM    6  N2  UNL     1      24.507   7.229  50.976  1.00  0.00    -0.192 NA
HETATM    7  C9  UNL     1      22.145   5.021  51.882  1.00  0.00     0.136 C 
HETATM    8  N3  UNL     1      21.326   3.880  52.393  1.00  0.00    -0.263 NA
HETATM    9  C10 UNL     1      21.422   2.619  51.822  1.00  0.00     0.047 C 
HETATM   10  C11 UNL     1      20.411   2.328  50.709  1.00  0.00     0.099 C 
HETATM   11  C12 UNL     1      21.063   2.937  49.460  1.00  0.00    -0.042 A 
HETATM   12  C13 UNL     1      20.146   2.744  48.454  1.00  0.00     0.052 A 
HETATM   13  C14 UNL     1      20.404   3.169  47.173  1.00  0.00     0.138 A 
HETATM   14  F1  UNL     1      19.493   2.970  46.201  1.00  0.00    -0.204 F 
HETATM   15  C15 UNL     1      21.590   3.799  46.874  1.00  0.00     0.073 A 
HETATM   16 CL1  UNL     1      21.993   4.368  45.271  1.00  0.00    -0.081 Cl
HETATM   17  C16 UNL     1      22.471   3.965  47.921  1.00  0.00     0.035 A 
HETATM   18  C17 UNL     1      22.300   3.568  49.257  1.00  0.00    -0.037 A 
HETATM   19  C18 UNL     1      22.585   1.773  52.321  1.00  0.00    -0.006 C 
HETATM   20  C19 UNL     1      22.873   0.873  53.290  1.00  0.00     0.048 C 
ENDROOT
BRANCH   1  21
HETATM   21  N1  UNL     1      24.892   1.007  51.686  1.00  0.00    -0.323 N 
HETATM   22  C3  UNL     1      26.152   1.063  52.311  1.00  0.00     0.244 C 
HETATM   23  O1  UNL     1      26.616   2.117  52.868  1.00  0.00    -0.268 OA
HETATM   24  H4  UNL     1      24.553   0.104  51.238  1.00  0.00     0.169 HD
BRANCH  22  25
HETATM   25  C2  UNL     1      26.942  -0.147  52.309  1.00  0.00     0.064 C 
HETATM   26  C1  UNL     1      26.539  -1.289  52.789  1.00  0.00     0.017 C 
ENDBRANCH  22  25
ENDBRANCH   1  21
TORSDOF 2
ENDMDL
MODEL 5
REMARK VINA RESULT:      -7.4      4.942      7.057
REMARK  2 active torsions:
REMARK  status: ('A' for Active; 'I' for Inactive)
REMARK    1  A    between atoms: C2_2  and  C3_3 
REMARK       I    between atoms: C3_3  and  N1_5 
REMARK    2  A    between atoms: N1_5  and  C4_6 
ROOT
HETATM    1  C4  UNL     1      29.855   8.078  48.330  1.00  0.00     0.040 C 
HETATM    2  C5  UNL     1      29.082   7.271  47.528  1.00  0.00     0.018 C 
HETATM    3  C6  UNL     1      27.597   7.381  47.269  1.00  0.00     0.089 C 
HETATM    4  C7  UNL     1      27.259   8.697  46.596  1.00  0.00     0.052 C 
HETATM    5  C8  UNL     1      26.946   8.608  45.197  1.00  0.00     0.097 C 
HETATM    6  N2  UNL     1      26.710   8.551  44.077  1.00  0.00    -0.192 NA
HETATM    7  C9  UNL     1      27.193   9.974  47.079  1.00  0.00     0.136 C 
HETATM    8  N3  UNL     1      27.697  10.543  48.366  1.00  0.00    -0.263 NA
HETATM    9  C10 UNL     1      28.235   9.723  49.348  1.00  0.00     0.047 C 
HETATM   10  C11 UNL     1      27.243   9.239  50.410  1.00  0.00     0.099 C 
HETATM   11  C12 UNL     1      26.583   8.016  49.758  1.00  0.00    -0.042 A 
HETATM   12  C13 UNL     1      25.640   7.598  50.667  1.00  0.00     0.052 A 
HETATM   13  C14 UNL     1      24.850   6.504  50.411  1.00  0.00     0.138 A 
HETATM   14  F1  UNL     1      23.932   6.110  51.316  1.00  0.00    -0.204 F 
HETATM   15  C15 UNL     1      24.987   5.806  49.234  1.00  0.00     0.073 A 
HETATM   16 CL1  UNL     1      24.021   4.405  48.833  1.00  0.00    -0.081 Cl
HETATM   17  C16 UNL     1      25.947   6.271  48.360  1.00  0.00     0.035 A 
HETATM   18  C17 UNL     1      26.799   7.373  48.530  1.00  0.00    -0.037 A 
HETATM   19  C18 UNL     1      29.697   9.352  49.147  1.00  0.00    -0.006 C 
HETATM   20  C19 UNL     1      30.935   9.799  49.463  1.00  0.00     0.048 C 
ENDROOT
BRANCH   1  21
HETATM   21  N1  UNL     1      31.174   7.480  48.353  1.00  0.00    -0.323 N 
HETATM   22  C3  UNL     1      31.679   6.287  48.904  1.00  0.00     0.244 C 
HETATM   23  O1  UNL     1      30.960   5.449  49.549  1.00  0.00    -0.268 OA
HETATM   24  H4  UNL     1      31.816   8.143  47.824  1.00  0.00     0.169 HD
BRANCH  22  25
HETATM   25  C2  UNL     1      33.087   6.021  48.717  1.00  0.00     0.064 C 
HETATM   26  C1  UNL     1      33.991   6.940  48.532  1.00  0.00     0.017 C 
ENDBRANCH  22  25
ENDBRANCH   1  21
TORSDOF 2
ENDMDL
MODEL 6
REMARK VINA RESULT:      -7.2      7.627     11.260
REMARK  2 active torsions:
REMARK  status: ('A' for Active; 'I' for Inactive)
REMARK    1  A    between atoms: C2_2  and  C3_3 
REMARK       I    between atoms: C3_3  and  N1_5 
REMARK    2  A    between atoms: N1_5  and  C4_6 
ROOT
HETATM    1  C4  UNL     1      31.408   7.004  47.879  1.00  0.00     0.040 C 
HETATM    2  C5  UNL     1      31.780   5.914  47.127  1.00  0.00     0.018 C 
HETATM    3  C6  UNL     1      33.132   5.639  46.510  1.00  0.00     0.089 C 
HETATM    4  C7  UNL     1      34.199   5.505  47.578  1.00  0.00     0.052 C 
HETATM    5  C8  UNL     1      34.647   4.164  47.833  1.00  0.00     0.097 C 
HETATM    6  N2  UNL     1      35.001   3.097  48.055  1.00  0.00    -0.192 NA
HETATM    7  C9  UNL     1      34.828   6.436  48.356  1.00  0.00     0.136 C 
HETATM    8  N3  UNL     1      34.482   7.868  48.612  1.00  0.00    -0.263 NA
HETATM    9  C10 UNL     1      33.448   8.487  47.925  1.00  0.00     0.047 C 
HETATM   10  C11 UNL     1      33.864   9.230  46.651  1.00  0.00     0.099 C 
HETATM   11  C12 UNL     1      33.904   8.124  45.586  1.00  0.00    -0.042 A 
HETATM   12  C13 UNL     1      34.336   8.753  44.442  1.00  0.00     0.052 A 
HETATM   13  C14 UNL     1      34.487   8.057  43.268  1.00  0.00     0.138 A 
HETATM   14  F1  UNL     1      34.911   8.691  42.158  1.00  0.00    -0.204 F 
HETATM   15  C15 UNL     1      34.207   6.711  43.216  1.00  0.00     0.073 A 
HETATM   16 CL1  UNL     1      34.373   5.754  41.763  1.00  0.00    -0.081 Cl
HETATM   17  C16 UNL     1      33.778   6.133  44.392  1.00  0.00     0.035 A 
HETATM   18  C17 UNL     1      33.594   6.757  45.636  1.00  0.00    -0.037 A 
HETATM   19  C18 UNL     1      32.057   8.237  48.490  1.00  0.00    -0.006 C 
HETATM   20  C19 UNL     1      31.189   8.765  49.384  1.00  0.00     0.048 C 
ENDROOT
BRANCH   1  21
HETATM   21  N1  UNL     1      29.985   6.865  48.116  1.00  0.00    -0.323 N 
HETATM   22  C3  UNL     1      28.848   7.196  47.355  1.00  0.00     0.244 C 
HETATM   23  O1  UNL     1      28.908   7.738  46.199  1.00  0.00    -0.268 OA
HETATM   24  H4  UNL     1      29.880   6.414  49.074  1.00  0.00     0.169 HD
BRANCH  22  25
HETATM   25  C2  UNL     1      27.559   6.898  47.936  1.00  0.00     0.064 C 
HETATM   26  C1  UNL     1      27.273   5.793  48.564  1.00  0.00     0.017 C 
ENDBRANCH  22  25
ENDBRANCH   1  21
TORSDOF 2
ENDMDL
MODEL 7
REMARK VINA RESULT:      -7.0      5.372      9.265
REMARK  2 active torsions:
REMARK  status: ('A' for Active; 'I' for Inactive)
REMARK    1  A    between atoms: C2_2  and  C3_3 
REMARK       I    between atoms: C3_3  and  N1_5 
REMARK    2  A    between atoms: N1_5  and  C4_6 
ROOT
HETATM    1  C4  UNL     1      27.574   6.968  47.910  1.00  0.00     0.040 C 
HETATM    2  C5  UNL     1      26.897   8.059  47.418  1.00  0.00     0.018 C 
HETATM    3  C6  UNL     1      27.482   9.281  46.748  1.00  0.00     0.089 C 
HETATM    4  C7  UNL     1      28.197   8.907  45.465  1.00  0.00     0.052 C 
HETATM    5  C8  UNL     1      27.503   9.246  44.254  1.00  0.00     0.097 C 
HETATM    6  N2  UNL     1      26.950   9.497  43.282  1.00  0.00    -0.192 NA
HETATM    7  C9  UNL     1      29.401   8.300  45.239  1.00  0.00     0.136 C 
HETATM    8  N3  UNL     1      30.293   7.553  46.178  1.00  0.00    -0.263 NA
HETATM    9  C10 UNL     1      30.013   7.495  47.536  1.00  0.00     0.047 C 
HETATM   10  C11 UNL     1      30.686   8.576  48.387  1.00  0.00     0.099 C 
HETATM   11  C12 UNL     1      29.746   9.782  48.250  1.00  0.00    -0.042 A 
HETATM   12  C13 UNL     1      30.360  10.789  48.956  1.00  0.00     0.052 A 
HETATM   13  C14 UNL     1      29.786  12.034  49.052  1.00  0.00     0.138 A 
HETATM   14  F1  UNL     1      30.403  13.007  49.750  1.00  0.00    -0.204 F 
HETATM   15  C15 UNL     1      28.582  12.295  48.440  1.00  0.00     0.073 A 
HETATM   16 CL1  UNL     1      27.787  13.850  48.516  1.00  0.00    -0.081 Cl
HETATM   17  C16 UNL     1      28.013  11.248  47.746  1.00  0.00     0.035 A 
HETATM   18  C17 UNL     1      28.518   9.948  47.590  1.00  0.00    -0.037 A 
HETATM   19  C18 UNL     1      28.998   6.435  47.940  1.00  0.00    -0.006 C 
HETATM   20  C19 UNL     1      28.949   5.138  48.324  1.00  0.00     0.048 C 
ENDROOT
BRANCH   1  21
HETATM   21  N1  UNL     1      26.584   6.143  48.571  1.00  0.00    -0.323 N 
HETATM   22  C3  UNL     1      25.800   6.323  49.727  1.00  0.00     0.244 C 
HETATM   23  O1  UNL     1      25.852   7.371  50.457  1.00  0.00    -0.268 OA
HETATM   24  H4  UNL     1      26.501   5.251  47.998  1.00  0.00     0.169 HD
BRANCH  22  25
HETATM   25  C2  UNL     1      24.898   5.251  50.083  1.00  0.00     0.064 C 
HETATM   26  C1  UNL     1      24.920   4.063  49.548  1.00  0.00     0.017 C 
ENDBRANCH  22  25
ENDBRANCH   1  21
TORSDOF 2
ENDMDL
MODEL 8
REMARK VINA RESULT:      -6.9      7.060      9.561
REMARK  2 active torsions:
REMARK  status: ('A' for Active; 'I' for Inactive)
REMARK    1  A    between atoms: C2_2  and  C3_3 
REMARK       I    between atoms: C3_3  and  N1_5 
REMARK    2  A    between atoms: N1_5  and  C4_6 
ROOT
HETATM    1  C4  UNL     1      31.996   8.686  45.918  1.00  0.00     0.040 C 
HETATM    2  C5  UNL     1      31.206   7.570  45.775  1.00  0.00     0.018 C 
HETATM    3  C6  UNL     1      30.941   6.492  46.801  1.00  0.00     0.089 C 
HETATM    4  C7  UNL     1      30.245   7.062  48.021  1.00  0.00     0.052 C 
HETATM    5  C8  UNL     1      28.846   6.752  48.131  1.00  0.00     0.097 C 
HETATM    6  N2  UNL     1      27.727   6.523  48.220  1.00  0.00    -0.192 NA
HETATM    7  C9  UNL     1      30.706   7.828  49.055  1.00  0.00     0.136 C 
HETATM    8  N3  UNL     1      31.984   8.590  49.192  1.00  0.00    -0.263 NA
HETATM    9  C10 UNL     1      32.981   8.492  48.232  1.00  0.00     0.047 C 
HETATM   10  C11 UNL     1      34.049   7.428  48.506  1.00  0.00     0.099 C 
HETATM   11  C12 UNL     1      33.416   6.135  47.973  1.00  0.00    -0.042 A 
HETATM   12  C13 UNL     1      34.330   5.150  48.263  1.00  0.00     0.052 A 
HETATM   13  C14 UNL     1      34.091   3.842  47.919  1.00  0.00     0.138 A 
HETATM   14  F1  UNL     1      34.999   2.892  48.211  1.00  0.00    -0.204 F 
HETATM   15  C15 UNL     1      32.926   3.494  47.275  1.00  0.00     0.073 A 
HETATM   16 CL1  UNL     1      32.547   1.854  46.803  1.00  0.00    -0.081 Cl
HETATM   17  C16 UNL     1      32.046   4.522  47.010  1.00  0.00     0.035 A 
HETATM   18  C17 UNL     1      32.200   5.882  47.321  1.00  0.00    -0.037 A 
HETATM   19  C18 UNL     1      32.790   9.383  47.013  1.00  0.00    -0.006 C 
HETATM   20  C19 UNL     1      33.102  10.625  46.575  1.00  0.00     0.048 C 
ENDROOT
BRANCH   1  21
HETATM   21  N1  UNL     1      32.032   9.324  44.617  1.00  0.00    -0.323 N 
HETATM   22  C3  UNL     1      32.750   9.058  43.436  1.00  0.00     0.244 C 
HETATM   23  O1  UNL     1      33.581   8.094  43.320  1.00  0.00    -0.268 OA
HETATM   24  H4  UNL     1      31.351  10.140  44.661  1.00  0.00     0.169 HD
BRANCH  22  25
HETATM   25  C2  UNL     1      32.515   9.935  42.312  1.00  0.00     0.064 C 
HETATM   26  C1  UNL     1      31.368  10.487  42.037  1.00  0.00     0.017 C 
ENDBRANCH  22  25
ENDBRANCH   1  21
TORSDOF 2
ENDMDL
MODEL 9
REMARK VINA RESULT:      -6.9      2.970      3.937
REMARK  2 active torsions:
REMARK  status: ('A' for Active; 'I' for Inactive)
REMARK    1  A    between atoms: C2_2  and  C3_3 
REMARK       I    between atoms: C3_3  and  N1_5 
REMARK    2  A    between atoms: N1_5  and  C4_6 
ROOT
HETATM    1  C4  UNL     1      26.158   6.850  49.106  1.00  0.00     0.040 C 
HETATM    2  C5  UNL     1      25.521   5.912  48.327  1.00  0.00     0.018 C 
HETATM    3  C6  UNL     1      24.069   5.496  48.389  1.00  0.00     0.089 C 
HETATM    4  C7  UNL     1      23.156   6.661  48.066  1.00  0.00     0.052 C 
HETATM    5  C8  UNL     1      22.549   6.623  46.764  1.00  0.00     0.097 C 
HETATM    6  N2  UNL     1      22.071   6.610  45.723  1.00  0.00    -0.192 NA
HETATM    7  C9  UNL     1      22.793   7.761  48.792  1.00  0.00     0.136 C 
HETATM    8  N3  UNL     1      23.387   8.326  50.043  1.00  0.00    -0.263 NA
HETATM    9  C10 UNL     1      24.396   7.657  50.721  1.00  0.00     0.047 C 
HETATM   10  C11 UNL     1      23.922   6.724  51.841  1.00  0.00     0.099 C 
HETATM   11  C12 UNL     1      23.563   5.427  51.103  1.00  0.00    -0.042 A 
HETATM   12  C13 UNL     1      23.075   4.590  52.079  1.00  0.00     0.052 A 
HETATM   13  C14 UNL     1      22.655   3.319  51.773  1.00  0.00     0.138 A 
HETATM   14  F1  UNL     1      22.180   2.514  52.743  1.00  0.00    -0.204 F 
HETATM   15  C15 UNL     1      22.715   2.859  50.478  1.00  0.00     0.073 A 
HETATM   16 CL1  UNL     1      22.201   1.255  50.007  1.00  0.00    -0.081 Cl
HETATM   17  C16 UNL     1      23.213   3.740  49.542  1.00  0.00     0.035 A 
HETATM   18  C17 UNL     1      23.665   5.052  49.755  1.00  0.00    -0.037 A 
HETATM   19  C18 UNL     1      25.798   7.875  50.170  1.00  0.00    -0.006 C 
HETATM   20  C19 UNL     1      26.854   8.708  50.321  1.00  0.00     0.048 C 
ENDROOT
BRANCH   1  21
HETATM   21  N1  UNL     1      27.561   6.782  48.753  1.00  0.00    -0.323 N 
HETATM   22  C3  UNL     1      28.440   5.709  48.510  1.00  0.00     0.244 C 
HETATM   23  O1  UNL     1      28.087   4.482  48.572  1.00  0.00    -0.268 OA
HETATM   24  H4  UNL     1      27.907   7.786  48.688  1.00  0.00     0.169 HD
BRANCH  22  25
HETATM   25  C2  UNL     1      29.805   6.041  48.174  1.00  0.00     0.064 C 
HETATM   26  C1  UNL     1      30.693   5.179  47.767  1.00  0.00     0.017 C 
ENDBRANCH  22  25
ENDBRANCH   1  21
TORSDOF 2
ENDMDL
