MODEL 1
REMARK VINA RESULT:      -7.9      0.000      0.000
REMARK  9 active torsions:
REMARK  status: ('A' for Active; 'I' for Inactive)
REMARK    1  A    between atoms: O1_2  and  C2_3 
REMARK    2  A    between atoms: C2_3  and  C11_16 
REMARK    3  A    between atoms: C3_4  and  C4_5 
REMARK    4  A    between atoms: C9_11  and  N2_12 
REMARK    5  A    between atoms: C10_14  and  N4_15 
REMARK    6  A    between atoms: C11_16  and  O2_17 
REMARK    7  A    between atoms: O2_17  and  C12_18 
REMARK    8  A    between atoms: C12_18  and  C13_19 
REMARK    9  A    between atoms: C16_22  and  O3_23 
ROOT
HETATM    1  C4  UNL     1      26.112   1.797  52.305  1.00  0.00    -0.057 C 
HETATM    2  C5  UNL     1      25.958   1.835  53.608  1.00  0.00    -0.017 C 
HETATM    3  C6  UNL     1      26.340   0.536  54.253  1.00  0.00     0.070 C 
HETATM    4  C7  UNL     1      27.229  -0.048  53.185  1.00  0.00     0.139 A 
HETATM    5  C8  UNL     1      26.621   0.453  51.898  1.00  0.00     0.080 C 
HETATM    6  N1  UNL     1      27.208  -1.483  53.167  1.00  0.00    -0.086 NA
HETATM    7  C9  UNL     1      28.418  -1.895  53.289  1.00  0.00     0.718 A 
HETATM    8  N3  UNL     1      29.341  -0.802  53.397  1.00  0.00    -0.048 NA
HETATM    9  C10 UNL     1      28.637   0.298  53.336  1.00  0.00     0.148 A 
ENDROOT
BRANCH   1  10
HETATM   10  C3  UNL     1      25.843   2.863  51.352  1.00  0.00     0.041 C 
HETATM   11  C2  UNL     1      24.627   3.128  50.906  1.00  0.00     0.070 C 
BRANCH  11  12
HETATM   12  O1  UNL     1      23.418   2.521  51.202  1.00  0.00    -0.358 OA
HETATM   13  C1  UNL     1      22.493   2.967  52.155  1.00  0.00     0.209 C 
ENDBRANCH  11  12
BRANCH  11  14
HETATM   14  C11 UNL     1      24.334   4.212  49.934  1.00  0.00     0.232 C 
BRANCH  14  15
HETATM   15  O2  UNL     1      25.256   5.225  50.090  1.00  0.00    -0.380 OA
BRANCH  15  16
HETATM   16  C12 UNL     1      25.403   6.036  48.986  1.00  0.00     0.206 C 
BRANCH  16  17
HETATM   17  C13 UNL     1      26.830   6.110  48.608  1.00  0.00    -0.034 A 
HETATM   18  C14 UNL     1      27.366   7.347  48.230  1.00  0.00     0.012 A 
HETATM   19  C15 UNL     1      28.681   7.510  47.865  1.00  0.00     0.037 A 
HETATM   20  C16 UNL     1      29.546   6.439  47.856  1.00  0.00     0.068 A 
HETATM   21  C18 UNL     1      29.042   5.199  48.228  1.00  0.00     0.037 A 
HETATM   22  C19 UNL     1      27.732   5.053  48.588  1.00  0.00     0.012 A 
BRANCH  20  23
HETATM   23  O3  UNL     1      30.878   6.541  47.500  1.00  0.00    -0.356 OA
HETATM   24  C17 UNL     1      31.901   6.205  48.405  1.00  0.00     0.210 C 
ENDBRANCH  20  23
ENDBRANCH  16  17
ENDBRANCH  15  16
ENDBRANCH  14  15
ENDBRANCH  11  14
ENDBRANCH   1  10
BRANCH   9  25
HETATM   25  N4  UNL     1      29.303   1.554  53.420  1.00  0.00    -0.385 N 
HETATM   26  H12 UNL     1      28.934   2.333  54.017  1.00  0.00     0.157 HD
HETATM   27  H13 UNL     1      30.193   1.887  52.944  1.00  0.00     0.157 HD
ENDBRANCH   9  25
BRANCH   7  28
HETATM   28  N2  UNL     1      28.802  -3.268  53.314  1.00  0.00    -0.231 N 
HETATM   29  H10 UNL     1      28.365  -4.006  53.889  1.00  0.00     0.174 HD
HETATM   30  H11 UNL     1      29.541  -3.817  52.813  1.00  0.00     0.174 HD
ENDBRANCH   7  28
TORSDOF 9
ENDMDL
MODEL 2
REMARK VINA RESULT:      -7.8      1.603      2.448
REMARK  9 active torsions:
REMARK  status: ('A' for Active; 'I' for Inactive)
REMARK    1  A    between atoms: O1_2  and  C2_3 
REMARK    2  A    between atoms: C2_3  and  C11_16 
REMARK    3  A    between atoms: C3_4  and  C4_5 
REMARK    4  A    between atoms: C9_11  and  N2_12 
REMARK    5  A    between atoms: C10_14  and  N4_15 
REMARK    6  A    between atoms: C11_16  and  O2_17 
REMARK    7  A    between atoms: O2_17  and  C12_18 
REMARK    8  A    between atoms: C12_18  and  C13_19 
REMARK    9  A    between atoms: C16_22  and  O3_23 
ROOT
HETATM    1  C4  UNL     1      24.368   0.578  52.469  1.00  0.00    -0.057 C 
HETATM    2  C5  UNL     1      24.134   0.168  53.694  1.00  0.00    -0.017 C 
HETATM    3  C6  UNL     1      25.312  -0.553  54.277  1.00  0.00     0.070 C 
HETATM    4  C7  UNL     1      26.417  -0.023  53.400  1.00  0.00     0.139 A 
HETATM    5  C8  UNL     1      25.750   0.179  52.062  1.00  0.00     0.080 C 
HETATM    6  N1  UNL     1      27.491  -0.960  53.232  1.00  0.00    -0.086 NA
HETATM    7  C9  UNL     1      28.577  -0.382  53.599  1.00  0.00     0.718 A 
HETATM    8  N3  UNL     1      28.339   0.964  54.036  1.00  0.00    -0.048 NA
HETATM    9  C10 UNL     1      27.056   1.180  53.919  1.00  0.00     0.148 A 
ENDROOT
BRANCH   1  10
HETATM   10  C3  UNL     1      23.465   1.307  51.593  1.00  0.00     0.041 C 
HETATM   11  C2  UNL     1      23.035   2.526  51.871  1.00  0.00     0.070 C 
BRANCH  11  12
HETATM   12  O1  UNL     1      23.306   3.340  52.958  1.00  0.00    -0.358 OA
HETATM   13  C1  UNL     1      23.744   4.669  52.892  1.00  0.00     0.209 C 
ENDBRANCH  11  12
BRANCH  11  14
HETATM   14  C11 UNL     1      22.113   3.286  50.989  1.00  0.00     0.232 C 
BRANCH  14  15
HETATM   15  O2  UNL     1      22.594   3.259  49.698  1.00  0.00    -0.380 OA
BRANCH  15  16
HETATM   16  C12 UNL     1      22.972   4.490  49.205  1.00  0.00     0.206 C 
BRANCH  16  17
HETATM   17  C13 UNL     1      24.446   4.561  49.119  1.00  0.00    -0.034 A 
HETATM   18  C14 UNL     1      25.046   5.780  48.780  1.00  0.00     0.012 A 
HETATM   19  C15 UNL     1      26.407   5.939  48.679  1.00  0.00     0.037 A 
HETATM   20  C16 UNL     1      27.258   4.881  48.911  1.00  0.00     0.068 A 
HETATM   21  C18 UNL     1      26.691   3.659  49.250  1.00  0.00     0.037 A 
HETATM   22  C19 UNL     1      25.335   3.517  49.347  1.00  0.00     0.012 A 
BRANCH  20  23
HETATM   23  O3  UNL     1      28.634   4.980  48.825  1.00  0.00    -0.356 OA
HETATM   24  C17 UNL     1      29.244   5.945  48.004  1.00  0.00     0.210 C 
ENDBRANCH  20  23
ENDBRANCH  16  17
ENDBRANCH  15  16
ENDBRANCH  14  15
ENDBRANCH  11  14
ENDBRANCH   1  10
BRANCH   9  25
HETATM   25  N4  UNL     1      26.529   2.452  54.288  1.00  0.00    -0.385 N 
HETATM   26  H12 UNL     1      25.515   2.578  54.524  1.00  0.00     0.157 HD
HETATM   27  H13 UNL     1      27.016   3.391  54.377  1.00  0.00     0.157 HD
ENDBRANCH   9  25
BRANCH   7  28
HETATM   28  N2  UNL     1      29.864  -0.995  53.576  1.00  0.00    -0.231 N 
HETATM   29  H10 UNL     1      30.556  -0.973  54.343  1.00  0.00     0.174 HD
HETATM   30  H11 UNL     1      30.379  -1.561  52.860  1.00  0.00     0.174 HD
ENDBRANCH   7  28
TORSDOF 9
ENDMDL
MODEL 3
REMARK VINA RESULT:      -7.4      4.450      8.157
REMARK  9 active torsions:
REMARK  status: ('A' for Active; 'I' for Inactive)
REMARK    1  A    between atoms: O1_2  and  C2_3 
REMARK    2  A    between atoms: C2_3  and  C11_16 
REMARK    3  A    between atoms: C3_4  and  C4_5 
REMARK    4  A    between atoms: C9_11  and  N2_12 
REMARK    5  A    between atoms: C10_14  and  N4_15 
REMARK    6  A    between atoms: C11_16  and  O2_17 
REMARK    7  A    between atoms: O2_17  and  C12_18 
REMARK    8  A    between atoms: C12_18  and  C13_19 
REMARK    9  A    between atoms: C16_22  and  O3_23 
ROOT
HETATM    1  C4  UNL     1      24.503   0.122  53.086  1.00  0.00    -0.057 C 
HETATM    2  C5  UNL     1      24.455  -0.008  54.391  1.00  0.00    -0.017 C 
HETATM    3  C6  UNL     1      25.752  -0.508  54.951  1.00  0.00     0.070 C 
HETATM    4  C7  UNL     1      26.694  -0.134  53.836  1.00  0.00     0.139 A 
HETATM    5  C8  UNL     1      25.855  -0.282  52.592  1.00  0.00     0.080 C 
HETATM    6  N1  UNL     1      27.816  -1.023  53.733  1.00  0.00    -0.086 NA
HETATM    7  C9  UNL     1      28.885  -0.316  53.811  1.00  0.00     0.718 A 
HETATM    8  N3  UNL     1      28.588   1.079  53.969  1.00  0.00    -0.048 NA
HETATM    9  C10 UNL     1      27.286   1.190  53.984  1.00  0.00     0.148 A 
ENDROOT
BRANCH   1  10
HETATM   10  C3  UNL     1      23.442   0.578  52.203  1.00  0.00     0.041 C 
HETATM   11  C2  UNL     1      23.347   1.832  51.794  1.00  0.00     0.070 C 
BRANCH  11  12
HETATM   12  O1  UNL     1      24.154   2.923  52.073  1.00  0.00    -0.358 OA
HETATM   13  C1  UNL     1      23.749   4.087  52.741  1.00  0.00     0.209 C 
ENDBRANCH  11  12
BRANCH  11  14
HETATM   14  C11 UNL     1      22.271   2.317  50.893  1.00  0.00     0.232 C 
BRANCH  14  15
HETATM   15  O2  UNL     1      21.384   1.290  50.651  1.00  0.00    -0.380 OA
BRANCH  15  16
HETATM   16  C12 UNL     1      20.066   1.606  50.900  1.00  0.00     0.206 C 
BRANCH  16  17
HETATM   17  C13 UNL     1      19.435   0.528  51.690  1.00  0.00    -0.034 A 
HETATM   18  C14 UNL     1      20.171  -0.077  52.716  1.00  0.00     0.012 A 
HETATM   19  C15 UNL     1      19.666  -1.084  53.502  1.00  0.00     0.037 A 
HETATM   20  C16 UNL     1      18.385  -1.553  53.309  1.00  0.00     0.068 A 
HETATM   21  C18 UNL     1      17.631  -0.970  52.298  1.00  0.00     0.037 A 
HETATM   22  C19 UNL     1      18.148   0.031  51.525  1.00  0.00     0.012 A 
BRANCH  20  23
HETATM   23  O3  UNL     1      17.823  -2.562  54.067  1.00  0.00    -0.356 OA
HETATM   24  C17 UNL     1      17.166  -3.648  53.461  1.00  0.00     0.210 C 
ENDBRANCH  20  23
ENDBRANCH  16  17
ENDBRANCH  15  16
ENDBRANCH  14  15
ENDBRANCH  11  14
ENDBRANCH   1  10
BRANCH   9  25
HETATM   25  N4  UNL     1      26.701   2.481  54.132  1.00  0.00    -0.385 N 
HETATM   26  H12 UNL     1      25.733   2.604  54.515  1.00  0.00     0.157 HD
HETATM   27  H13 UNL     1      27.098   3.440  53.903  1.00  0.00     0.157 HD
ENDBRANCH   9  25
BRANCH   7  28
HETATM   28  N2  UNL     1      30.208  -0.846  53.748  1.00  0.00    -0.231 N 
HETATM   29  H10 UNL     1      30.914  -0.618  53.029  1.00  0.00     0.174 HD
HETATM   30  H11 UNL     1      30.741  -1.523  54.344  1.00  0.00     0.174 HD
ENDBRANCH   7  28
TORSDOF 9
ENDMDL
MODEL 4
REMARK VINA RESULT:      -7.4      4.489      8.003
REMARK  9 active torsions:
REMARK  status: ('A' for Active; 'I' for Inactive)
REMARK    1  A    between atoms: O1_2  and  C2_3 
REMARK    2  A    between atoms: C2_3  and  C11_16 
REMARK    3  A    between atoms: C3_4  and  C4_5 
REMARK    4  A    between atoms: C9_11  and  N2_12 
REMARK    5  A    between atoms: C10_14  and  N4_15 
REMARK    6  A    between atoms: C11_16  and  O2_17 
REMARK    7  A    between atoms: O2_17  and  C12_18 
REMARK    8  A    between atoms: C12_18  and  C13_19 
REMARK    9  A    between atoms: C16_22  and  O3_23 
ROOT
HETATM    1  C4  UNL     1      24.745   4.562  49.085  1.00  0.00    -0.057 C 
HETATM    2  C5  UNL     1      26.031   4.646  49.333  1.00  0.00    -0.017 C 
HETATM    3  C6  UNL     1      26.592   5.977  48.932  1.00  0.00     0.070 C 
HETATM    4  C7  UNL     1      25.336   6.809  48.916  1.00  0.00     0.139 A 
HETATM    5  C8  UNL     1      24.268   5.840  48.475  1.00  0.00     0.080 C 
HETATM    6  N1  UNL     1      25.392   7.883  47.966  1.00  0.00    -0.086 NA
HETATM    7  C9  UNL     1      25.167   8.978  48.598  1.00  0.00     0.718 A 
HETATM    8  N3  UNL     1      24.943   8.747  49.996  1.00  0.00    -0.048 NA
HETATM    9  C10 UNL     1      25.044   7.458  50.188  1.00  0.00     0.148 A 
ENDROOT
BRANCH   1  10
HETATM   10  C3  UNL     1      23.867   3.431  49.339  1.00  0.00     0.041 C 
HETATM   11  C2  UNL     1      23.002   3.412  50.339  1.00  0.00     0.070 C 
BRANCH  11  12
HETATM   12  O1  UNL     1      22.737   4.368  51.305  1.00  0.00    -0.358 OA
HETATM   13  C1  UNL     1      21.650   5.252  51.300  1.00  0.00     0.209 C 
ENDBRANCH  11  12
BRANCH  11  14
HETATM   14  C11 UNL     1      22.099   2.266  50.613  1.00  0.00     0.232 C 
BRANCH  14  15
HETATM   15  O2  UNL     1      22.843   1.195  51.058  1.00  0.00    -0.380 OA
BRANCH  15  16
HETATM   16  C12 UNL     1      22.648   0.876  52.384  1.00  0.00     0.206 C 
BRANCH  16  17
HETATM   17  C13 UNL     1      23.953   0.791  53.074  1.00  0.00    -0.034 A 
HETATM   18  C14 UNL     1      24.745   1.942  53.168  1.00  0.00     0.012 A 
HETATM   19  C15 UNL     1      25.969   1.956  53.791  1.00  0.00     0.037 A 
HETATM   20  C16 UNL     1      26.481   0.812  54.362  1.00  0.00     0.068 A 
HETATM   21  C18 UNL     1      25.717  -0.345  54.285  1.00  0.00     0.037 A 
HETATM   22  C19 UNL     1      24.501  -0.343  53.661  1.00  0.00     0.012 A 
BRANCH  20  23
HETATM   23  O3  UNL     1      27.705   0.765  55.002  1.00  0.00    -0.356 OA
HETATM   24  C17 UNL     1      28.739  -0.067  54.535  1.00  0.00     0.210 C 
ENDBRANCH  20  23
ENDBRANCH  16  17
ENDBRANCH  15  16
ENDBRANCH  14  15
ENDBRANCH  11  14
ENDBRANCH   1  10
BRANCH   9  25
HETATM   25  N4  UNL     1      24.865   6.935  51.502  1.00  0.00    -0.385 N 
HETATM   26  H12 UNL     1      23.940   6.560  51.823  1.00  0.00     0.157 HD
HETATM   27  H13 UNL     1      25.562   6.844  52.299  1.00  0.00     0.157 HD
ENDBRANCH   9  25
BRANCH   7  28
HETATM   28  N2  UNL     1      25.140  10.268  47.991  1.00  0.00    -0.231 N 
HETATM   29  H10 UNL     1      25.559  10.514  47.078  1.00  0.00     0.174 HD
HETATM   30  H11 UNL     1      24.735  11.191  48.278  1.00  0.00     0.174 HD
ENDBRANCH   7  28
TORSDOF 9
ENDMDL
MODEL 5
REMARK VINA RESULT:      -7.4      4.782      7.599
REMARK  9 active torsions:
REMARK  status: ('A' for Active; 'I' for Inactive)
REMARK    1  A    between atoms: O1_2  and  C2_3 
REMARK    2  A    between atoms: C2_3  and  C11_16 
REMARK    3  A    between atoms: C3_4  and  C4_5 
REMARK    4  A    between atoms: C9_11  and  N2_12 
REMARK    5  A    between atoms: C10_14  and  N4_15 
REMARK    6  A    between atoms: C11_16  and  O2_17 
REMARK    7  A    between atoms: O2_17  and  C12_18 
REMARK    8  A    between atoms: C12_18  and  C13_19 
REMARK    9  A    between atoms: C16_22  and  O3_23 
ROOT
HETATM    1  C4  UNL     1      21.915   4.179  51.768  1.00  0.00    -0.057 C 
HETATM    2  C5  UNL     1      21.197   4.993  51.031  1.00  0.00    -0.017 C 
HETATM    3  C6  UNL     1      21.937   6.257  50.712  1.00  0.00     0.070 C 
HETATM    4  C7  UNL     1      23.358   5.805  50.930  1.00  0.00     0.139 A 
HETATM    5  C8  UNL     1      23.247   4.797  52.047  1.00  0.00     0.080 C 
HETATM    6  N1  UNL     1      24.220   6.867  51.363  1.00  0.00    -0.086 NA
HETATM    7  C9  UNL     1      25.202   6.936  50.539  1.00  0.00     0.718 A 
HETATM    8  N3  UNL     1      25.094   5.950  49.501  1.00  0.00    -0.048 NA
HETATM    9  C10 UNL     1      23.998   5.277  49.731  1.00  0.00     0.148 A 
ENDROOT
BRANCH   1  10
HETATM   10  C3  UNL     1      21.531   2.868  52.269  1.00  0.00     0.041 C 
HETATM   11  C2  UNL     1      21.673   1.765  51.555  1.00  0.00     0.070 C 
BRANCH  11  12
HETATM   12  O1  UNL     1      22.173   1.590  50.276  1.00  0.00    -0.358 OA
HETATM   13  C1  UNL     1      21.407   1.379  49.122  1.00  0.00     0.209 C 
ENDBRANCH  11  12
BRANCH  11  14
HETATM   14  C11 UNL     1      21.287   0.419  52.050  1.00  0.00     0.232 C 
BRANCH  14  15
HETATM   15  O2  UNL     1      21.938   0.166  53.237  1.00  0.00    -0.380 OA
BRANCH  15  16
HETATM   16  C12 UNL     1      22.985  -0.725  53.135  1.00  0.00     0.206 C 
BRANCH  16  17
HETATM   17  C13 UNL     1      24.255  -0.043  53.464  1.00  0.00    -0.034 A 
HETATM   18  C14 UNL     1      25.072  -0.581  54.465  1.00  0.00     0.012 A 
HETATM   19  C15 UNL     1      26.269  -0.016  54.834  1.00  0.00     0.037 A 
HETATM   20  C16 UNL     1      26.724   1.130  54.222  1.00  0.00     0.068 A 
HETATM   21  C18 UNL     1      25.934   1.687  53.224  1.00  0.00     0.037 A 
HETATM   22  C19 UNL     1      24.746   1.113  52.868  1.00  0.00     0.012 A 
BRANCH  20  23
HETATM   23  O3  UNL     1      27.919   1.744  54.550  1.00  0.00    -0.356 OA
HETATM   24  C17 UNL     1      28.646   2.477  53.596  1.00  0.00     0.210 C 
ENDBRANCH  20  23
ENDBRANCH  16  17
ENDBRANCH  15  16
ENDBRANCH  14  15
ENDBRANCH  11  14
ENDBRANCH   1  10
BRANCH   9  25
HETATM   25  N4  UNL     1      23.633   4.220  48.847  1.00  0.00    -0.385 N 
HETATM   26  H12 UNL     1      22.642   4.085  48.533  1.00  0.00     0.157 HD
HETATM   27  H13 UNL     1      24.236   3.468  48.400  1.00  0.00     0.157 HD
ENDBRANCH   9  25
BRANCH   7  28
HETATM   28  N2  UNL     1      26.272   7.873  50.637  1.00  0.00    -0.231 N 
HETATM   29  H10 UNL     1      26.531   8.406  51.484  1.00  0.00     0.174 HD
HETATM   30  H11 UNL     1      26.988   8.223  49.956  1.00  0.00     0.174 HD
ENDBRANCH   7  28
TORSDOF 9
ENDMDL
MODEL 6
REMARK VINA RESULT:      -7.3      2.525      6.317
REMARK  9 active torsions:
REMARK  status: ('A' for Active; 'I' for Inactive)
REMARK    1  A    between atoms: O1_2  and  C2_3 
REMARK    2  A    between atoms: C2_3  and  C11_16 
REMARK    3  A    between atoms: C3_4  and  C4_5 
REMARK    4  A    between atoms: C9_11  and  N2_12 
REMARK    5  A    between atoms: C10_14  and  N4_15 
REMARK    6  A    between atoms: C11_16  and  O2_17 
REMARK    7  A    between atoms: O2_17  and  C12_18 
REMARK    8  A    between atoms: C12_18  and  C13_19 
REMARK    9  A    between atoms: C16_22  and  O3_23 
ROOT
HETATM    1  C4  UNL     1      25.463   1.198  52.500  1.00  0.00    -0.057 C 
HETATM    2  C5  UNL     1      25.356   1.409  53.791  1.00  0.00    -0.017 C 
HETATM    3  C6  UNL     1      26.361   0.617  54.572  1.00  0.00     0.070 C 
HETATM    4  C7  UNL     1      27.386   0.346  53.501  1.00  0.00     0.139 A 
HETATM    5  C8  UNL     1      26.566   0.224  52.241  1.00  0.00     0.080 C 
HETATM    6  N1  UNL     1      28.089  -0.889  53.703  1.00  0.00    -0.086 NA
HETATM    7  C9  UNL     1      29.346  -0.624  53.732  1.00  0.00     0.718 A 
HETATM    8  N3  UNL     1      29.597   0.777  53.555  1.00  0.00    -0.048 NA
HETATM    9  C10 UNL     1      28.433   1.357  53.418  1.00  0.00     0.148 A 
ENDROOT
BRANCH   1  10
HETATM   10  C3  UNL     1      24.662   1.789  51.439  1.00  0.00     0.041 C 
HETATM   11  C2  UNL     1      25.136   2.710  50.619  1.00  0.00     0.070 C 
BRANCH  11  12
HETATM   12  O1  UNL     1      26.392   3.293  50.565  1.00  0.00    -0.358 OA
HETATM   13  C1  UNL     1      26.858   4.134  49.546  1.00  0.00     0.209 C 
ENDBRANCH  11  12
BRANCH  11  14
HETATM   14  C11 UNL     1      24.335   3.324  49.531  1.00  0.00     0.232 C 
BRANCH  14  15
HETATM   15  O2  UNL     1      23.273   4.010  50.079  1.00  0.00    -0.380 OA
BRANCH  15  16
HETATM   16  C12 UNL     1      22.035   3.585  49.646  1.00  0.00     0.206 C 
BRANCH  16  17
HETATM   17  C13 UNL     1      21.477   2.613  50.610  1.00  0.00    -0.034 A 
HETATM   18  C14 UNL     1      21.291   1.287  50.203  1.00  0.00     0.012 A 
HETATM   19  C15 UNL     1      20.780   0.317  51.031  1.00  0.00     0.037 A 
HETATM   20  C16 UNL     1      20.421   0.615  52.326  1.00  0.00     0.068 A 
HETATM   21  C18 UNL     1      20.596   1.924  52.759  1.00  0.00     0.037 A 
HETATM   22  C19 UNL     1      21.105   2.878  51.923  1.00  0.00     0.012 A 
BRANCH  20  23
HETATM   23  O3  UNL     1      19.903  -0.317  53.206  1.00  0.00    -0.356 OA
HETATM   24  C17 UNL     1      20.731  -0.993  54.120  1.00  0.00     0.210 C 
ENDBRANCH  20  23
ENDBRANCH  16  17
ENDBRANCH  15  16
ENDBRANCH  14  15
ENDBRANCH  11  14
ENDBRANCH   1  10
BRANCH   9  25
HETATM   25  N4  UNL     1      28.378   2.768  53.225  1.00  0.00    -0.385 N 
HETATM   26  H12 UNL     1      29.219   3.312  52.915  1.00  0.00     0.157 HD
HETATM   27  H13 UNL     1      27.566   3.441  53.348  1.00  0.00     0.157 HD
ENDBRANCH   9  25
BRANCH   7  28
HETATM   28  N2  UNL     1      30.370  -1.599  53.915  1.00  0.00    -0.231 N 
HETATM   29  H10 UNL     1      31.237  -1.467  54.462  1.00  0.00     0.174 HD
HETATM   30  H11 UNL     1      30.493  -2.586  53.582  1.00  0.00     0.174 HD
ENDBRANCH   7  28
TORSDOF 9
ENDMDL
MODEL 7
REMARK VINA RESULT:      -7.0      2.078      3.337
REMARK  9 active torsions:
REMARK  status: ('A' for Active; 'I' for Inactive)
REMARK    1  A    between atoms: O1_2  and  C2_3 
REMARK    2  A    between atoms: C2_3  and  C11_16 
REMARK    3  A    between atoms: C3_4  and  C4_5 
REMARK    4  A    between atoms: C9_11  and  N2_12 
REMARK    5  A    between atoms: C10_14  and  N4_15 
REMARK    6  A    between atoms: C11_16  and  O2_17 
REMARK    7  A    between atoms: O2_17  and  C12_18 
REMARK    8  A    between atoms: C12_18  and  C13_19 
REMARK    9  A    between atoms: C16_22  and  O3_23 
ROOT
HETATM    1  C4  UNL     1      23.863   3.200  49.972  1.00  0.00    -0.057 C 
HETATM    2  C5  UNL     1      22.868   2.530  50.502  1.00  0.00    -0.017 C 
HETATM    3  C6  UNL     1      23.350   1.448  51.421  1.00  0.00     0.070 C 
HETATM    4  C7  UNL     1      24.734   1.954  51.737  1.00  0.00     0.139 A 
HETATM    5  C8  UNL     1      25.161   2.649  50.468  1.00  0.00     0.080 C 
HETATM    6  N1  UNL     1      25.665   0.897  52.009  1.00  0.00    -0.086 NA
HETATM    7  C9  UNL     1      26.178   1.113  53.166  1.00  0.00     0.718 A 
HETATM    8  N3  UNL     1      25.652   2.307  53.764  1.00  0.00    -0.048 NA
HETATM    9  C10 UNL     1      24.793   2.809  52.917  1.00  0.00     0.148 A 
ENDROOT
BRANCH   1  10
HETATM   10  C3  UNL     1      23.782   4.313  49.038  1.00  0.00     0.041 C 
HETATM   11  C2  UNL     1      23.568   5.557  49.432  1.00  0.00     0.070 C 
BRANCH  11  12
HETATM   12  O1  UNL     1      23.384   6.069  50.706  1.00  0.00    -0.358 OA
HETATM   13  C1  UNL     1      24.025   7.199  51.231  1.00  0.00     0.209 C 
ENDBRANCH  11  12
BRANCH  11  14
HETATM   14  C11 UNL     1      23.482   6.705  48.495  1.00  0.00     0.232 C 
BRANCH  14  15
HETATM   15  O2  UNL     1      24.598   6.717  47.687  1.00  0.00    -0.380 OA
BRANCH  15  16
HETATM   16  C12 UNL     1      25.566   7.622  48.065  1.00  0.00     0.206 C 
BRANCH  16  17
HETATM   17  C13 UNL     1      26.894   6.971  48.038  1.00  0.00    -0.034 A 
HETATM   18  C14 UNL     1      27.027   5.683  48.569  1.00  0.00     0.012 A 
HETATM   19  C15 UNL     1      28.220   5.002  48.584  1.00  0.00     0.037 A 
HETATM   20  C16 UNL     1      29.362   5.572  48.066  1.00  0.00     0.068 A 
HETATM   21  C18 UNL     1      29.260   6.850  47.531  1.00  0.00     0.037 A 
HETATM   22  C19 UNL     1      28.065   7.514  47.523  1.00  0.00     0.012 A 
BRANCH  20  23
HETATM   23  O3  UNL     1      30.590   4.936  48.052  1.00  0.00    -0.356 OA
HETATM   24  C17 UNL     1      31.757   5.602  48.467  1.00  0.00     0.210 C 
ENDBRANCH  20  23
ENDBRANCH  16  17
ENDBRANCH  15  16
ENDBRANCH  14  15
ENDBRANCH  11  14
ENDBRANCH   1  10
BRANCH   9  25
HETATM   25  N4  UNL     1      24.108   4.012  53.253  1.00  0.00    -0.385 N 
HETATM   26  H12 UNL     1      23.933   4.762  52.541  1.00  0.00     0.157 HD
HETATM   27  H13 UNL     1      23.700   4.327  54.182  1.00  0.00     0.157 HD
ENDBRANCH   9  25
BRANCH   7  28
HETATM   28  N2  UNL     1      27.151   0.274  53.785  1.00  0.00    -0.231 N 
HETATM   29  H10 UNL     1      28.151   0.221  53.529  1.00  0.00     0.174 HD
HETATM   30  H11 UNL     1      27.108  -0.422  54.567  1.00  0.00     0.174 HD
ENDBRANCH   7  28
TORSDOF 9
ENDMDL
MODEL 8
REMARK VINA RESULT:      -6.8      4.600      7.992
REMARK  9 active torsions:
REMARK  status: ('A' for Active; 'I' for Inactive)
REMARK    1  A    between atoms: O1_2  and  C2_3 
REMARK    2  A    between atoms: C2_3  and  C11_16 
REMARK    3  A    between atoms: C3_4  and  C4_5 
REMARK    4  A    between atoms: C9_11  and  N2_12 
REMARK    5  A    between atoms: C10_14  and  N4_15 
REMARK    6  A    between atoms: C11_16  and  O2_17 
REMARK    7  A    between atoms: O2_17  and  C12_18 
REMARK    8  A    between atoms: C12_18  and  C13_19 
REMARK    9  A    between atoms: C16_22  and  O3_23 
ROOT
HETATM    1  C4  UNL     1      23.717   3.506  49.863  1.00  0.00    -0.057 C 
HETATM    2  C5  UNL     1      24.979   3.827  49.702  1.00  0.00    -0.017 C 
HETATM    3  C6  UNL     1      25.139   5.223  49.180  1.00  0.00     0.070 C 
HETATM    4  C7  UNL     1      23.810   5.816  49.575  1.00  0.00     0.139 A 
HETATM    5  C8  UNL     1      22.852   4.657  49.463  1.00  0.00     0.080 C 
HETATM    6  N1  UNL     1      23.375   6.851  48.682  1.00  0.00    -0.086 NA
HETATM    7  C9  UNL     1      23.162   7.908  49.379  1.00  0.00     0.718 A 
HETATM    8  N3  UNL     1      23.428   7.686  50.772  1.00  0.00    -0.048 NA
HETATM    9  C10 UNL     1      23.814   6.443  50.891  1.00  0.00     0.148 A 
ENDROOT
BRANCH   1  10
HETATM   10  C3  UNL     1      23.180   2.244  50.349  1.00  0.00     0.041 C 
HETATM   11  C2  UNL     1      23.111   1.949  51.635  1.00  0.00     0.070 C 
BRANCH  11  12
HETATM   12  O1  UNL     1      23.492   2.691  52.741  1.00  0.00    -0.358 OA
HETATM   13  C1  UNL     1      24.810   2.903  53.166  1.00  0.00     0.209 C 
ENDBRANCH  11  12
BRANCH  11  14
HETATM   14  C11 UNL     1      22.566   0.667  52.149  1.00  0.00     0.232 C 
BRANCH  14  15
HETATM   15  O2  UNL     1      22.952   0.502  53.462  1.00  0.00    -0.380 OA
BRANCH  15  16
HETATM   16  C12 UNL     1      23.572  -0.700  53.727  1.00  0.00     0.206 C 
BRANCH  16  17
HETATM   17  C13 UNL     1      25.039  -0.518  53.713  1.00  0.00    -0.034 A 
HETATM   18  C14 UNL     1      25.680  -0.103  54.887  1.00  0.00     0.012 A 
HETATM   19  C15 UNL     1      27.038   0.090  54.966  1.00  0.00     0.037 A 
HETATM   20  C16 UNL     1      27.844  -0.122  53.870  1.00  0.00     0.068 A 
HETATM   21  C18 UNL     1      27.236  -0.535  52.691  1.00  0.00     0.037 A 
HETATM   22  C19 UNL     1      25.883  -0.722  52.628  1.00  0.00     0.012 A 
BRANCH  20  23
HETATM   23  O3  UNL     1      29.215   0.055  53.889  1.00  0.00    -0.356 OA
HETATM   24  C17 UNL     1      30.091  -1.032  53.717  1.00  0.00     0.210 C 
ENDBRANCH  20  23
ENDBRANCH  16  17
ENDBRANCH  15  16
ENDBRANCH  14  15
ENDBRANCH  11  14
ENDBRANCH   1  10
BRANCH   9  25
HETATM   25  N4  UNL     1      24.149   5.940  52.182  1.00  0.00    -0.385 N 
HETATM   26  H12 UNL     1      24.978   5.316  52.330  1.00  0.00     0.157 HD
HETATM   27  H13 UNL     1      23.669   6.093  53.118  1.00  0.00     0.157 HD
ENDBRANCH   9  25
BRANCH   7  28
HETATM   28  N2  UNL     1      22.716   9.151  48.843  1.00  0.00    -0.231 N 
HETATM   29  H10 UNL     1      22.195   9.879  49.360  1.00  0.00     0.174 HD
HETATM   30  H11 UNL     1      22.792   9.596  47.897  1.00  0.00     0.174 HD
ENDBRANCH   7  28
TORSDOF 9
ENDMDL
MODEL 9
REMARK VINA RESULT:      -6.6      3.712      4.887
REMARK  9 active torsions:
REMARK  status: ('A' for Active; 'I' for Inactive)
REMARK    1  A    between atoms: O1_2  and  C2_3 
REMARK    2  A    between atoms: C2_3  and  C11_16 
REMARK    3  A    between atoms: C3_4  and  C4_5 
REMARK    4  A    between atoms: C9_11  and  N2_12 
REMARK    5  A    between atoms: C10_14  and  N4_15 
REMARK    6  A    between atoms: C11_16  and  O2_17 
REMARK    7  A    between atoms: O2_17  and  C12_18 
REMARK    8  A    between atoms: C12_18  and  C13_19 
REMARK    9  A    between atoms: C16_22  and  O3_23 
ROOT
HETATM    1  C4  UNL     1      23.900   1.703  52.108  1.00  0.00    -0.057 C 
HETATM    2  C5  UNL     1      23.873   2.873  52.702  1.00  0.00    -0.017 C 
HETATM    3  C6  UNL     1      24.964   3.008  53.722  1.00  0.00     0.070 C 
HETATM    4  C7  UNL     1      25.923   1.952  53.237  1.00  0.00     0.139 A 
HETATM    5  C8  UNL     1      25.024   0.887  52.659  1.00  0.00     0.080 C 
HETATM    6  N1  UNL     1      26.692   1.368  54.298  1.00  0.00    -0.086 NA
HETATM    7  C9  UNL     1      27.934   1.509  54.007  1.00  0.00     0.718 A 
HETATM    8  N3  UNL     1      28.111   2.183  52.753  1.00  0.00    -0.048 NA
HETATM    9  C10 UNL     1      26.917   2.448  52.293  1.00  0.00     0.148 A 
ENDROOT
BRANCH   1  10
HETATM   10  C3  UNL     1      23.003   1.217  51.071  1.00  0.00     0.041 C 
HETATM   11  C2  UNL     1      21.690   1.192  51.221  1.00  0.00     0.070 C 
BRANCH  11  12
HETATM   12  O1  UNL     1      20.909   1.583  52.296  1.00  0.00    -0.358 OA
HETATM   13  C1  UNL     1      19.869   2.520  52.249  1.00  0.00     0.209 C 
ENDBRANCH  11  12
BRANCH  11  14
HETATM   14  C11 UNL     1      20.760   0.700  50.174  1.00  0.00     0.232 C 
BRANCH  14  15
HETATM   15  O2  UNL     1      21.184   1.147  48.942  1.00  0.00    -0.380 OA
BRANCH  15  16
HETATM   16  C12 UNL     1      20.564   2.299  48.509  1.00  0.00     0.206 C 
BRANCH  16  17
HETATM   17  C13 UNL     1      21.442   3.462  48.760  1.00  0.00    -0.034 A 
HETATM   18  C14 UNL     1      20.916   4.575  49.426  1.00  0.00     0.012 A 
HETATM   19  C15 UNL     1      21.658   5.698  49.704  1.00  0.00     0.037 A 
HETATM   20  C16 UNL     1      22.981   5.777  49.330  1.00  0.00     0.068 A 
HETATM   21  C18 UNL     1      23.531   4.686  48.668  1.00  0.00     0.037 A 
HETATM   22  C19 UNL     1      22.779   3.576  48.399  1.00  0.00     0.012 A 
BRANCH  20  23
HETATM   23  O3  UNL     1      23.777   6.878  49.582  1.00  0.00    -0.356 OA
HETATM   24  C17 UNL     1      23.469   7.777  50.618  1.00  0.00     0.210 C 
ENDBRANCH  20  23
ENDBRANCH  16  17
ENDBRANCH  15  16
ENDBRANCH  14  15
ENDBRANCH  11  14
ENDBRANCH   1  10
BRANCH   9  25
HETATM   25  N4  UNL     1      26.788   3.124  51.045  1.00  0.00    -0.385 N 
HETATM   26  H12 UNL     1      25.858   3.230  50.572  1.00  0.00     0.157 HD
HETATM   27  H13 UNL     1      27.529   3.589  50.441  1.00  0.00     0.157 HD
ENDBRANCH   9  25
BRANCH   7  28
HETATM   28  N2  UNL     1      29.010   1.052  54.824  1.00  0.00    -0.231 N 
HETATM   29  H10 UNL     1      29.650   0.272  54.598  1.00  0.00     0.174 HD
HETATM   30  H11 UNL     1      29.386   1.355  55.754  1.00  0.00     0.174 HD
ENDBRANCH   7  28
TORSDOF 9
ENDMDL
