MODEL 1
REMARK VINA RESULT:      -7.8      0.000      0.000
REMARK  7 active torsions:
REMARK  status: ('A' for Active; 'I' for Inactive)
REMARK    1  A    between atoms: O1_2  and  C2_3 
REMARK    2  A    between atoms: C4_5  and  N1_6 
REMARK    3  A    between atoms: N1_6  and  C5_7 
REMARK    4  A    between atoms: N2_8  and  C6_9 
REMARK    5  A    between atoms: C6_9  and  N3_10 
REMARK    6  A    between atoms: N3_10  and  C7_11 
REMARK    7  A    between atoms: N6_23  and  O2_24 
ROOT
HETATM    1  C5  UNL     1      24.874   2.538  50.844  1.00  0.00     0.231 C 
HETATM    2  N2  UNL     1      23.810   3.268  50.990  1.00  0.00    -0.263 NA
ENDROOT
BRANCH   2   3
HETATM    3  C6  UNL     1      22.505   2.799  50.589  1.00  0.00     0.272 C 
BRANCH   3   4
HETATM    4  N3  UNL     1      22.471   1.355  50.651  1.00  0.00    -0.370 N 
HETATM    5  H8  UNL     1      23.165   0.873  50.046  1.00  0.00     0.161 HD
BRANCH   4   6
HETATM    6  C7  UNL     1      21.532   0.704  51.496  1.00  0.00     0.058 A 
HETATM    7  C8  UNL     1      20.194   0.714  51.163  1.00  0.00     0.146 A 
HETATM    8  N4  UNL     1      19.240   0.127  51.904  1.00  0.00    -0.270 NA
HETATM    9  C9  UNL     1      19.506  -0.529  53.047  1.00  0.00     0.128 A 
HETATM   10  C10 UNL     1      20.837  -0.569  53.424  1.00  0.00    -0.006 A 
HETATM   11  C11 UNL     1      21.160  -1.233  54.594  1.00  0.00     0.014 A 
HETATM   12  C15 UNL     1      21.814   0.032  52.667  1.00  0.00     0.003 A 
HETATM   13  C12 UNL     1      22.505  -1.268  54.967  1.00  0.00     0.001 A 
HETATM   14  C13 UNL     1      23.511  -0.669  54.220  1.00  0.00     0.001 A 
HETATM   15  C14 UNL     1      23.123  -0.024  53.068  1.00  0.00     0.014 A 
ENDBRANCH   4   6
ENDBRANCH   3   4
ENDBRANCH   2   3
BRANCH   1  16
HETATM   16  N1  UNL     1      26.245   2.832  51.182  1.00  0.00    -0.223 NA
BRANCH  16  17
HETATM   17  C4  UNL     1      26.910   2.032  51.969  1.00  0.00     0.156 A 
HETATM   18  C3  UNL     1      26.438   0.753  52.174  1.00  0.00     0.110 A 
HETATM   19  C2  UNL     1      27.121  -0.115  53.001  1.00  0.00     0.173 A 
HETATM   20  N6  UNL     1      28.268   0.273  53.627  1.00  0.00    -0.193 N 
HETATM   21  C16 UNL     1      28.685   1.535  53.391  1.00  0.00     0.244 A 
HETATM   22  N5  UNL     1      28.054   2.416  52.594  1.00  0.00    -0.222 NA
BRANCH  19  23
HETATM   23  O1  UNL     1      26.737  -1.420  53.277  1.00  0.00    -0.339 OA
HETATM   24  C1  UNL     1      26.794  -2.355  52.223  1.00  0.00     0.211 C 
ENDBRANCH  19  23
BRANCH  20  25
HETATM   25  O2  UNL     1      28.970  -0.570  54.458  1.00  0.00    -0.275 OA
HETATM   26  C17 UNL     1      30.091  -1.280  53.917  1.00  0.00     0.238 C 
ENDBRANCH  20  25
ENDBRANCH  16  17
ENDBRANCH   1  16
TORSDOF 7
ENDMDL
MODEL 2
REMARK VINA RESULT:      -7.4      4.473      7.228
REMARK  7 active torsions:
REMARK  status: ('A' for Active; 'I' for Inactive)
REMARK    1  A    between atoms: O1_2  and  C2_3 
REMARK    2  A    between atoms: C4_5  and  N1_6 
REMARK    3  A    between atoms: N1_6  and  C5_7 
REMARK    4  A    between atoms: N2_8  and  C6_9 
REMARK    5  A    between atoms: C6_9  and  N3_10 
REMARK    6  A    between atoms: N3_10  and  C7_11 
REMARK    7  A    between atoms: N6_23  and  O2_24 
ROOT
HETATM    1  C5  UNL     1      25.828   3.358  50.640  1.00  0.00     0.231 C 
HETATM    2  N2  UNL     1      24.798   2.781  51.181  1.00  0.00    -0.263 NA
ENDROOT
BRANCH   2   3
HETATM    3  C6  UNL     1      24.758   2.458  52.588  1.00  0.00     0.272 C 
BRANCH   3   4
HETATM    4  N3  UNL     1      25.327   1.146  52.797  1.00  0.00    -0.370 N 
HETATM    5  H8  UNL     1      24.680   0.352  52.618  1.00  0.00     0.161 HD
BRANCH   4   6
HETATM    6  C7  UNL     1      26.678   1.018  53.220  1.00  0.00     0.058 A 
HETATM    7  C8  UNL     1      27.342   2.117  53.722  1.00  0.00     0.146 A 
HETATM    8  N4  UNL     1      28.617   2.086  54.142  1.00  0.00    -0.270 NA
HETATM    9  C9  UNL     1      29.368   0.972  54.108  1.00  0.00     0.128 A 
HETATM   10  C10 UNL     1      28.746  -0.161  53.612  1.00  0.00    -0.006 A 
HETATM   11  C11 UNL     1      29.480  -1.332  53.557  1.00  0.00     0.014 A 
HETATM   12  C15 UNL     1      27.441  -0.130  53.182  1.00  0.00     0.003 A 
HETATM   13  C12 UNL     1      28.845  -2.469  53.055  1.00  0.00     0.001 A 
HETATM   14  C13 UNL     1      27.528  -2.465  52.615  1.00  0.00     0.001 A 
HETATM   15  C14 UNL     1      26.854  -1.269  52.695  1.00  0.00     0.014 A 
ENDBRANCH   4   6
ENDBRANCH   3   4
ENDBRANCH   2   3
BRANCH   1  16
HETATM   16  N1  UNL     1      26.048   3.753  49.271  1.00  0.00    -0.223 NA
BRANCH  16  17
HETATM   17  C4  UNL     1      26.781   4.797  49.002  1.00  0.00     0.156 A 
HETATM   18  C3  UNL     1      26.242   6.055  49.175  1.00  0.00     0.110 A 
HETATM   19  C2  UNL     1      26.995   7.177  48.899  1.00  0.00     0.173 A 
HETATM   20  N6  UNL     1      28.279   7.066  48.452  1.00  0.00    -0.193 N 
HETATM   21  C16 UNL     1      28.756   5.813  48.300  1.00  0.00     0.244 A 
HETATM   22  N5  UNL     1      28.061   4.689  48.556  1.00  0.00    -0.222 NA
BRANCH  19  23
HETATM   23  O1  UNL     1      26.554   8.486  49.038  1.00  0.00    -0.339 OA
HETATM   24  C1  UNL     1      25.429   8.713  49.857  1.00  0.00     0.211 C 
ENDBRANCH  19  23
BRANCH  20  25
HETATM   25  O2  UNL     1      29.053   8.167  48.167  1.00  0.00    -0.275 OA
HETATM   26  C17 UNL     1      30.272   8.349  48.899  1.00  0.00     0.238 C 
ENDBRANCH  20  25
ENDBRANCH  16  17
ENDBRANCH   1  16
TORSDOF 7
ENDMDL
MODEL 3
REMARK VINA RESULT:      -7.2      4.555      6.246
REMARK  7 active torsions:
REMARK  status: ('A' for Active; 'I' for Inactive)
REMARK    1  A    between atoms: O1_2  and  C2_3 
REMARK    2  A    between atoms: C4_5  and  N1_6 
REMARK    3  A    between atoms: N1_6  and  C5_7 
REMARK    4  A    between atoms: N2_8  and  C6_9 
REMARK    5  A    between atoms: C6_9  and  N3_10 
REMARK    6  A    between atoms: N3_10  and  C7_11 
REMARK    7  A    between atoms: N6_23  and  O2_24 
ROOT
HETATM    1  C5  UNL     1      25.926   3.384  50.365  1.00  0.00     0.231 C 
HETATM    2  N2  UNL     1      26.935   2.815  50.952  1.00  0.00    -0.263 NA
ENDROOT
BRANCH   2   3
HETATM    3  C6  UNL     1      26.778   2.062  52.174  1.00  0.00     0.272 C 
BRANCH   3   4
HETATM    4  N3  UNL     1      25.460   1.472  52.211  1.00  0.00    -0.370 N 
HETATM    5  H8  UNL     1      24.831   1.750  51.431  1.00  0.00     0.161 HD
BRANCH   4   6
HETATM    6  C7  UNL     1      25.109   0.584  53.265  1.00  0.00     0.058 A 
HETATM    7  C8  UNL     1      26.070   0.193  54.173  1.00  0.00     0.146 A 
HETATM    8  N4  UNL     1      25.827  -0.643  55.196  1.00  0.00    -0.270 NA
HETATM    9  C9  UNL     1      24.616  -1.178  55.428  1.00  0.00     0.128 A 
HETATM   10  C10 UNL     1      23.616  -0.814  54.543  1.00  0.00    -0.006 A 
HETATM   11  C11 UNL     1      22.352  -1.340  54.741  1.00  0.00     0.014 A 
HETATM   12  C15 UNL     1      23.863   0.040  53.496  1.00  0.00     0.003 A 
HETATM   13  C12 UNL     1      21.350  -0.969  53.844  1.00  0.00     0.001 A 
HETATM   14  C13 UNL     1      21.573  -0.107  52.778  1.00  0.00     0.001 A 
HETATM   15  C14 UNL     1      22.851   0.380  52.636  1.00  0.00     0.014 A 
ENDBRANCH   4   6
ENDBRANCH   3   4
ENDBRANCH   2   3
BRANCH   1  16
HETATM   16  N1  UNL     1      25.887   4.166  49.154  1.00  0.00    -0.223 NA
BRANCH  16  17
HETATM   17  C4  UNL     1      26.823   5.041  48.911  1.00  0.00     0.156 A 
HETATM   18  C3  UNL     1      26.533   6.383  49.041  1.00  0.00     0.110 A 
HETATM   19  C2  UNL     1      27.504   7.331  48.790  1.00  0.00     0.173 A 
HETATM   20  N6  UNL     1      28.761   6.960  48.411  1.00  0.00    -0.193 N 
HETATM   21  C16 UNL     1      28.989   5.635  48.299  1.00  0.00     0.244 A 
HETATM   22  N5  UNL     1      28.076   4.675  48.533  1.00  0.00    -0.222 NA
BRANCH  19  23
HETATM   23  O1  UNL     1      27.322   8.703  48.890  1.00  0.00    -0.339 OA
HETATM   24  C1  UNL     1      27.311   9.268  50.181  1.00  0.00     0.211 C 
ENDBRANCH  19  23
BRANCH  20  25
HETATM   25  O2  UNL     1      29.749   7.883  48.153  1.00  0.00    -0.275 OA
HETATM   26  C17 UNL     1      30.844   7.981  49.072  1.00  0.00     0.238 C 
ENDBRANCH  20  25
ENDBRANCH  16  17
ENDBRANCH   1  16
TORSDOF 7
ENDMDL
MODEL 4
REMARK VINA RESULT:      -7.2      3.334      6.330
REMARK  7 active torsions:
REMARK  status: ('A' for Active; 'I' for Inactive)
REMARK    1  A    between atoms: O1_2  and  C2_3 
REMARK    2  A    between atoms: C4_5  and  N1_6 
REMARK    3  A    between atoms: N1_6  and  C5_7 
REMARK    4  A    between atoms: N2_8  and  C6_9 
REMARK    5  A    between atoms: C6_9  and  N3_10 
REMARK    6  A    between atoms: N3_10  and  C7_11 
REMARK    7  A    between atoms: N6_23  and  O2_24 
ROOT
HETATM    1  C5  UNL     1      23.491   2.838  51.494  1.00  0.00     0.231 C 
HETATM    2  N2  UNL     1      23.772   3.735  52.389  1.00  0.00    -0.263 NA
ENDROOT
BRANCH   2   3
HETATM    3  C6  UNL     1      23.494   5.136  52.176  1.00  0.00     0.272 C 
BRANCH   3   4
HETATM    4  N3  UNL     1      23.537   5.426  50.761  1.00  0.00    -0.370 N 
HETATM    5  H8  UNL     1      22.858   4.892  50.181  1.00  0.00     0.161 HD
BRANCH   4   6
HETATM    6  C7  UNL     1      24.463   6.380  50.260  1.00  0.00     0.058 A 
HETATM    7  C8  UNL     1      24.183   7.725  50.370  1.00  0.00     0.146 A 
HETATM    8  N4  UNL     1      24.999   8.693  49.923  1.00  0.00    -0.270 NA
HETATM    9  C9  UNL     1      26.174   8.435  49.322  1.00  0.00     0.128 A 
HETATM   10  C10 UNL     1      26.502   7.098  49.188  1.00  0.00    -0.006 A 
HETATM   11  C11 UNL     1      27.702   6.783  48.575  1.00  0.00     0.014 A 
HETATM   12  C15 UNL     1      25.667   6.107  49.645  1.00  0.00     0.003 A 
HETATM   13  C12 UNL     1      28.025   5.432  48.443  1.00  0.00     0.001 A 
HETATM   14  C13 UNL     1      27.199   4.411  48.896  1.00  0.00     0.001 A 
HETATM   15  C14 UNL     1      26.021   4.791  49.496  1.00  0.00     0.014 A 
ENDBRANCH   4   6
ENDBRANCH   3   4
ENDBRANCH   2   3
BRANCH   1  16
HETATM   16  N1  UNL     1      23.692   1.410  51.527  1.00  0.00    -0.223 NA
BRANCH  16  17
HETATM   17  C4  UNL     1      24.675   0.904  52.218  1.00  0.00     0.156 A 
HETATM   18  C3  UNL     1      24.388   0.167  53.348  1.00  0.00     0.110 A 
HETATM   19  C2  UNL     1      25.408  -0.380  54.098  1.00  0.00     0.173 A 
HETATM   20  N6  UNL     1      26.712  -0.205  53.738  1.00  0.00    -0.193 N 
HETATM   21  C16 UNL     1      26.936   0.524  52.625  1.00  0.00     0.244 A 
HETATM   22  N5  UNL     1      25.976   1.077  51.862  1.00  0.00    -0.222 NA
BRANCH  19  23
HETATM   23  O1  UNL     1      25.233  -1.136  55.249  1.00  0.00    -0.339 OA
HETATM   24  C1  UNL     1      23.913  -1.344  55.699  1.00  0.00     0.211 C 
ENDBRANCH  19  23
BRANCH  20  25
HETATM   25  O2  UNL     1      27.750  -0.738  54.467  1.00  0.00    -0.275 OA
HETATM   26  C17 UNL     1      29.086  -0.327  54.150  1.00  0.00     0.238 C 
ENDBRANCH  20  25
ENDBRANCH  16  17
ENDBRANCH   1  16
TORSDOF 7
ENDMDL
MODEL 5
REMARK VINA RESULT:      -7.1      4.444      6.278
REMARK  7 active torsions:
REMARK  status: ('A' for Active; 'I' for Inactive)
REMARK    1  A    between atoms: O1_2  and  C2_3 
REMARK    2  A    between atoms: C4_5  and  N1_6 
REMARK    3  A    between atoms: N1_6  and  C5_7 
REMARK    4  A    between atoms: N2_8  and  C6_9 
REMARK    5  A    between atoms: C6_9  and  N3_10 
REMARK    6  A    between atoms: N3_10  and  C7_11 
REMARK    7  A    between atoms: N6_23  and  O2_24 
ROOT
HETATM    1  C5  UNL     1      26.130   2.800  50.566  1.00  0.00     0.231 C 
HETATM    2  N2  UNL     1      26.997   2.470  51.474  1.00  0.00    -0.263 NA
ENDROOT
BRANCH   2   3
HETATM    3  C6  UNL     1      26.611   1.764  52.673  1.00  0.00     0.272 C 
BRANCH   3   4
HETATM    4  N3  UNL     1      25.649   0.738  52.340  1.00  0.00    -0.370 N 
HETATM    5  H8  UNL     1      25.521   0.569  51.323  1.00  0.00     0.161 HD
BRANCH   4   6
HETATM    6  C7  UNL     1      24.961   0.048  53.376  1.00  0.00     0.058 A 
HETATM    7  C8  UNL     1      25.675  -0.510  54.414  1.00  0.00     0.146 A 
HETATM    8  N4  UNL     1      25.107  -1.179  55.431  1.00  0.00    -0.270 NA
HETATM    9  C9  UNL     1      23.780  -1.368  55.527  1.00  0.00     0.128 A 
HETATM   10  C10 UNL     1      23.017  -0.825  54.507  1.00  0.00    -0.006 A 
HETATM   11  C11 UNL     1      21.645  -0.994  54.563  1.00  0.00     0.014 A 
HETATM   12  C15 UNL     1      23.597  -0.140  53.467  1.00  0.00     0.003 A 
HETATM   13  C12 UNL     1      20.885  -0.444  53.530  1.00  0.00     0.001 A 
HETATM   14  C13 UNL     1      21.446   0.252  52.468  1.00  0.00     0.001 A 
HETATM   15  C14 UNL     1      22.815   0.384  52.471  1.00  0.00     0.014 A 
ENDBRANCH   4   6
ENDBRANCH   3   4
ENDBRANCH   2   3
BRANCH   1  16
HETATM   16  N1  UNL     1      26.324   3.497  49.319  1.00  0.00    -0.223 NA
BRANCH  16  17
HETATM   17  C4  UNL     1      26.450   4.795  49.308  1.00  0.00     0.156 A 
HETATM   18  C3  UNL     1      27.459   5.362  48.557  1.00  0.00     0.110 A 
HETATM   19  C2  UNL     1      27.616   6.732  48.526  1.00  0.00     0.173 A 
HETATM   20  N6  UNL     1      26.782   7.548  49.234  1.00  0.00    -0.193 N 
HETATM   21  C16 UNL     1      25.814   6.940  49.951  1.00  0.00     0.244 A 
HETATM   22  N5  UNL     1      25.621   5.610  50.012  1.00  0.00    -0.222 NA
BRANCH  19  23
HETATM   23  O1  UNL     1      28.593   7.406  47.806  1.00  0.00    -0.339 OA
HETATM   24  C1  UNL     1      29.873   6.819  47.734  1.00  0.00     0.211 C 
ENDBRANCH  19  23
BRANCH  20  25
HETATM   25  O2  UNL     1      26.915   8.918  49.223  1.00  0.00    -0.275 OA
HETATM   26  C17 UNL     1      25.889   9.696  48.595  1.00  0.00     0.238 C 
ENDBRANCH  20  25
ENDBRANCH  16  17
ENDBRANCH   1  16
TORSDOF 7
ENDMDL
MODEL 6
REMARK VINA RESULT:      -7.0      5.380      6.528
REMARK  7 active torsions:
REMARK  status: ('A' for Active; 'I' for Inactive)
REMARK    1  A    between atoms: O1_2  and  C2_3 
REMARK    2  A    between atoms: C4_5  and  N1_6 
REMARK    3  A    between atoms: N1_6  and  C5_7 
REMARK    4  A    between atoms: N2_8  and  C6_9 
REMARK    5  A    between atoms: C6_9  and  N3_10 
REMARK    6  A    between atoms: N3_10  and  C7_11 
REMARK    7  A    between atoms: N6_23  and  O2_24 
ROOT
HETATM    1  C5  UNL     1      27.985   5.127  48.525  1.00  0.00     0.231 C 
HETATM    2  N2  UNL     1      26.754   5.155  48.937  1.00  0.00    -0.263 NA
ENDROOT
BRANCH   2   3
HETATM    3  C6  UNL     1      26.050   3.951  49.311  1.00  0.00     0.272 C 
BRANCH   3   4
HETATM    4  N3  UNL     1      26.276   3.675  50.711  1.00  0.00    -0.370 N 
HETATM    5  H8  UNL     1      27.172   4.038  51.093  1.00  0.00     0.161 HD
BRANCH   4   6
HETATM    6  C7  UNL     1      25.305   2.953  51.457  1.00  0.00     0.058 A 
HETATM    7  C8  UNL     1      24.075   3.523  51.707  1.00  0.00     0.146 A 
HETATM    8  N4  UNL     1      23.101   2.914  52.403  1.00  0.00    -0.270 NA
HETATM    9  C9  UNL     1      23.240   1.683  52.925  1.00  0.00     0.128 A 
HETATM   10  C10 UNL     1      24.459   1.066  52.701  1.00  0.00    -0.006 A 
HETATM   11  C11 UNL     1      24.649  -0.202  53.220  1.00  0.00     0.014 A 
HETATM   12  C15 UNL     1      25.456   1.689  51.989  1.00  0.00     0.003 A 
HETATM   13  C12 UNL     1      25.881  -0.816  52.989  1.00  0.00     0.001 A 
HETATM   14  C13 UNL     1      26.904  -0.209  52.273  1.00  0.00     0.001 A 
HETATM   15  C14 UNL     1      26.652   1.052  51.785  1.00  0.00     0.014 A 
ENDBRANCH   4   6
ENDBRANCH   3   4
ENDBRANCH   2   3
BRANCH   1  16
HETATM   16  N1  UNL     1      28.843   6.211  48.114  1.00  0.00    -0.223 NA
BRANCH  16  17
HETATM   17  C4  UNL     1      30.129   6.141  48.318  1.00  0.00     0.156 A 
HETATM   18  C3  UNL     1      30.831   5.077  47.792  1.00  0.00     0.110 A 
HETATM   19  C2  UNL     1      32.193   4.976  47.991  1.00  0.00     0.173 A 
HETATM   20  N6  UNL     1      32.866   5.921  48.708  1.00  0.00    -0.193 N 
HETATM   21  C16 UNL     1      32.130   6.940  49.200  1.00  0.00     0.244 A 
HETATM   22  N5  UNL     1      30.803   7.081  49.032  1.00  0.00    -0.222 NA
BRANCH  19  23
HETATM   23  O1  UNL     1      32.995   3.952  47.508  1.00  0.00    -0.339 OA
HETATM   24  C1  UNL     1      32.916   3.654  46.132  1.00  0.00     0.211 C 
ENDBRANCH  19  23
BRANCH  20  25
HETATM   25  O2  UNL     1      34.223   5.847  48.924  1.00  0.00    -0.275 OA
HETATM   26  C17 UNL     1      35.067   6.811  48.283  1.00  0.00     0.238 C 
ENDBRANCH  20  25
ENDBRANCH  16  17
ENDBRANCH   1  16
TORSDOF 7
ENDMDL
MODEL 7
REMARK VINA RESULT:      -7.0      3.962      7.107
REMARK  7 active torsions:
REMARK  status: ('A' for Active; 'I' for Inactive)
REMARK    1  A    between atoms: O1_2  and  C2_3 
REMARK    2  A    between atoms: C4_5  and  N1_6 
REMARK    3  A    between atoms: N1_6  and  C5_7 
REMARK    4  A    between atoms: N2_8  and  C6_9 
REMARK    5  A    between atoms: C6_9  and  N3_10 
REMARK    6  A    between atoms: N3_10  and  C7_11 
REMARK    7  A    between atoms: N6_23  and  O2_24 
ROOT
HETATM    1  C5  UNL     1      23.566   3.490  51.726  1.00  0.00     0.231 C 
HETATM    2  N2  UNL     1      23.939   3.055  52.891  1.00  0.00    -0.263 NA
ENDROOT
BRANCH   2   3
HETATM    3  C6  UNL     1      24.377   1.694  53.089  1.00  0.00     0.272 C 
BRANCH   3   4
HETATM    4  N3  UNL     1      25.521   1.428  52.246  1.00  0.00    -0.370 N 
HETATM    5  H8  UNL     1      25.322   1.409  51.227  1.00  0.00     0.161 HD
BRANCH   4   6
HETATM    6  C7  UNL     1      26.799   1.216  52.832  1.00  0.00     0.058 A 
HETATM    7  C8  UNL     1      27.494   2.285  53.357  1.00  0.00     0.146 A 
HETATM    8  N4  UNL     1      28.706   2.176  53.926  1.00  0.00    -0.270 NA
HETATM    9  C9  UNL     1      29.356   1.005  54.034  1.00  0.00     0.128 A 
HETATM   10  C10 UNL     1      28.699  -0.100  53.522  1.00  0.00    -0.006 A 
HETATM   11  C11 UNL     1      29.331  -1.328  53.610  1.00  0.00     0.014 A 
HETATM   12  C15 UNL     1      27.460   0.010  52.939  1.00  0.00     0.003 A 
HETATM   13  C12 UNL     1      28.661  -2.437  53.090  1.00  0.00     0.001 A 
HETATM   14  C13 UNL     1      27.408  -2.353  52.497  1.00  0.00     0.001 A 
HETATM   15  C14 UNL     1      26.836  -1.103  52.440  1.00  0.00     0.014 A 
ENDBRANCH   4   6
ENDBRANCH   3   4
ENDBRANCH   2   3
BRANCH   1  16
HETATM   16  N1  UNL     1      23.102   4.800  51.337  1.00  0.00    -0.223 NA
BRANCH  16  17
HETATM   17  C4  UNL     1      23.942   5.674  50.855  1.00  0.00     0.156 A 
HETATM   18  C3  UNL     1      24.909   5.251  49.967  1.00  0.00     0.110 A 
HETATM   19  C2  UNL     1      25.810   6.153  49.440  1.00  0.00     0.173 A 
HETATM   20  N6  UNL     1      25.761   7.472  49.785  1.00  0.00    -0.193 N 
HETATM   21  C16 UNL     1      24.796   7.830  50.657  1.00  0.00     0.244 A 
HETATM   22  N5  UNL     1      23.896   6.988  51.196  1.00  0.00    -0.222 NA
BRANCH  19  23
HETATM   23  O1  UNL     1      26.820   5.838  48.542  1.00  0.00    -0.339 OA
HETATM   24  C1  UNL     1      27.543   4.648  48.763  1.00  0.00     0.211 C 
ENDBRANCH  19  23
BRANCH  20  25
HETATM   25  O2  UNL     1      26.647   8.395  49.276  1.00  0.00    -0.275 OA
HETATM   26  C17 UNL     1      26.157   9.702  48.955  1.00  0.00     0.238 C 
ENDBRANCH  20  25
ENDBRANCH  16  17
ENDBRANCH   1  16
TORSDOF 7
ENDMDL
MODEL 8
REMARK VINA RESULT:      -6.9      5.287      7.191
REMARK  7 active torsions:
REMARK  status: ('A' for Active; 'I' for Inactive)
REMARK    1  A    between atoms: O1_2  and  C2_3 
REMARK    2  A    between atoms: C4_5  and  N1_6 
REMARK    3  A    between atoms: N1_6  and  C5_7 
REMARK    4  A    between atoms: N2_8  and  C6_9 
REMARK    5  A    between atoms: C6_9  and  N3_10 
REMARK    6  A    between atoms: N3_10  and  C7_11 
REMARK    7  A    between atoms: N6_23  and  O2_24 
ROOT
HETATM    1  C5  UNL     1      26.626   4.223  49.387  1.00  0.00     0.231 C 
HETATM    2  N2  UNL     1      26.148   3.185  50.002  1.00  0.00    -0.263 NA
ENDROOT
BRANCH   2   3
HETATM    3  C6  UNL     1      24.945   3.260  50.798  1.00  0.00     0.272 C 
BRANCH   3   4
HETATM    4  N3  UNL     1      25.295   3.275  52.200  1.00  0.00    -0.370 N 
HETATM    5  H8  UNL     1      25.390   4.221  52.620  1.00  0.00     0.161 HD
BRANCH   4   6
HETATM    6  C7  UNL     1      25.484   2.050  52.897  1.00  0.00     0.058 A 
HETATM    7  C8  UNL     1      24.422   1.186  53.056  1.00  0.00     0.146 A 
HETATM    8  N4  UNL     1      24.510   0.011  53.701  1.00  0.00    -0.270 NA
HETATM    9  C9  UNL     1      25.652  -0.430  54.256  1.00  0.00     0.128 A 
HETATM   10  C10 UNL     1      26.750   0.402  54.123  1.00  0.00    -0.006 A 
HETATM   11  C11 UNL     1      27.948  -0.010  54.679  1.00  0.00     0.014 A 
HETATM   12  C15 UNL     1      26.660   1.604  53.463  1.00  0.00     0.003 A 
HETATM   13  C12 UNL     1      29.049   0.837  54.541  1.00  0.00     0.001 A 
HETATM   14  C13 UNL     1      28.985   2.056  53.879  1.00  0.00     0.001 A 
HETATM   15  C14 UNL     1      27.765   2.408  53.350  1.00  0.00     0.014 A 
ENDBRANCH   4   6
ENDBRANCH   3   4
ENDBRANCH   2   3
BRANCH   1  16
HETATM   16  N1  UNL     1      27.799   4.341  48.557  1.00  0.00    -0.223 NA
BRANCH  16  17
HETATM   17  C4  UNL     1      28.459   5.465  48.513  1.00  0.00     0.156 A 
HETATM   18  C3  UNL     1      27.755   6.651  48.469  1.00  0.00     0.110 A 
HETATM   19  C2  UNL     1      28.426   7.855  48.422  1.00  0.00     0.173 A 
HETATM   20  N6  UNL     1      29.790   7.897  48.419  1.00  0.00    -0.193 N 
HETATM   21  C16 UNL     1      30.427   6.708  48.464  1.00  0.00     0.244 A 
HETATM   22  N5  UNL     1      29.817   5.510  48.510  1.00  0.00    -0.222 NA
BRANCH  19  23
HETATM   23  O1  UNL     1      27.820   9.103  48.375  1.00  0.00    -0.339 OA
HETATM   24  C1  UNL     1      27.130   9.538  49.525  1.00  0.00     0.211 C 
ENDBRANCH  19  23
BRANCH  20  25
HETATM   25  O2  UNL     1      30.486   9.083  48.373  1.00  0.00    -0.275 OA
HETATM   26  C17 UNL     1      31.181   9.417  47.165  1.00  0.00     0.238 C 
ENDBRANCH  20  25
ENDBRANCH  16  17
ENDBRANCH   1  16
TORSDOF 7
ENDMDL
MODEL 9
REMARK VINA RESULT:      -6.8      5.493      7.856
REMARK  7 active torsions:
REMARK  status: ('A' for Active; 'I' for Inactive)
REMARK    1  A    between atoms: O1_2  and  C2_3 
REMARK    2  A    between atoms: C4_5  and  N1_6 
REMARK    3  A    between atoms: N1_6  and  C5_7 
REMARK    4  A    between atoms: N2_8  and  C6_9 
REMARK    5  A    between atoms: C6_9  and  N3_10 
REMARK    6  A    between atoms: N3_10  and  C7_11 
REMARK    7  A    between atoms: N6_23  and  O2_24 
ROOT
HETATM    1  C5  UNL     1      27.101   4.314  49.061  1.00  0.00     0.231 C 
HETATM    2  N2  UNL     1      26.491   4.000  50.163  1.00  0.00    -0.263 NA
ENDROOT
BRANCH   2   3
HETATM    3  C6  UNL     1      26.325   2.627  50.576  1.00  0.00     0.272 C 
BRANCH   3   4
HETATM    4  N3  UNL     1      26.269   2.561  52.019  1.00  0.00    -0.370 N 
HETATM    5  H8  UNL     1      25.454   3.039  52.451  1.00  0.00     0.161 HD
BRANCH   4   6
HETATM    6  C7  UNL     1      27.288   1.878  52.737  1.00  0.00     0.058 A 
HETATM    7  C8  UNL     1      28.214   2.601  53.460  1.00  0.00     0.146 A 
HETATM    8  N4  UNL     1      29.210   2.038  54.164  1.00  0.00    -0.270 NA
HETATM    9  C9  UNL     1      29.395   0.708  54.228  1.00  0.00     0.128 A 
HETATM   10  C10 UNL     1      28.490  -0.062  53.519  1.00  0.00    -0.006 A 
HETATM   11  C11 UNL     1      28.642  -1.437  53.554  1.00  0.00     0.014 A 
HETATM   12  C15 UNL     1      27.472   0.512  52.798  1.00  0.00     0.003 A 
HETATM   13  C12 UNL     1      27.725  -2.206  52.836  1.00  0.00     0.001 A 
HETATM   14  C13 UNL     1      26.687  -1.651  52.099  1.00  0.00     0.001 A 
HETATM   15  C14 UNL     1      26.592  -0.279  52.105  1.00  0.00     0.014 A 
ENDBRANCH   4   6
ENDBRANCH   3   4
ENDBRANCH   2   3
BRANCH   1  16
HETATM   16  N1  UNL     1      27.360   5.613  48.490  1.00  0.00    -0.223 NA
BRANCH  16  17
HETATM   17  C4  UNL     1      28.584   5.980  48.229  1.00  0.00     0.156 A 
HETATM   18  C3  UNL     1      28.848   7.315  48.006  1.00  0.00     0.110 A 
HETATM   19  C2  UNL     1      30.133   7.732  47.728  1.00  0.00     0.173 A 
HETATM   20  N6  UNL     1      31.161   6.837  47.668  1.00  0.00    -0.193 N 
HETATM   21  C16 UNL     1      30.846   5.545  47.894  1.00  0.00     0.244 A 
HETATM   22  N5  UNL     1      29.610   5.091  48.169  1.00  0.00    -0.222 NA
BRANCH  19  23
HETATM   23  O1  UNL     1      30.510   9.046  47.489  1.00  0.00    -0.339 OA
HETATM   24  C1  UNL     1      30.050   9.652  46.302  1.00  0.00     0.211 C 
ENDBRANCH  19  23
BRANCH  20  25
HETATM   25  O2  UNL     1      32.453   7.224  47.392  1.00  0.00    -0.275 OA
HETATM   26  C17 UNL     1      33.408   7.214  48.460  1.00  0.00     0.238 C 
ENDBRANCH  20  25
ENDBRANCH  16  17
ENDBRANCH   1  16
TORSDOF 7
ENDMDL
