MODEL 1
REMARK VINA RESULT:      -7.9      0.000      0.000
REMARK  6 active torsions:
REMARK  status: ('A' for Active; 'I' for Inactive)
REMARK    1  A    between atoms: C2_2  and  C3_3 
REMARK    2  A    between atoms: C5_5  and  N1_6 
REMARK    3  A    between atoms: C9_10  and  N2_11 
REMARK       I    between atoms: N2_11  and  C10_12 
REMARK    4  A    between atoms: C10_12  and  C11_14 
REMARK    5  A    between atoms: C12_15  and  C13_16 
REMARK    6  A    between atoms: C13_16  and  N3_17 
ROOT
HETATM    1  N1  UNL     1      25.174   3.377  50.577  1.00  0.00    -0.247 NA
HETATM    2  C6  UNL     1      24.725   2.927  51.638  1.00  0.00     0.106 C 
HETATM    3  C7  UNL     1      23.625   2.488  52.652  1.00  0.00     0.107 C 
HETATM    4  C8  UNL     1      24.141   1.237  53.260  1.00  0.00     0.008 C 
HETATM    5  C9  UNL     1      24.483   0.043  53.762  1.00  0.00     0.032 C 
HETATM    6  C16 UNL     1      25.787  -0.214  54.470  1.00  0.00     0.224 C 
HETATM    7  O2  UNL     1      26.434  -1.211  53.589  1.00  0.00    -0.382 OA
HETATM    8  C17 UNL     1      26.442  -0.451  52.369  1.00  0.00     0.196 C 
HETATM    9  C18 UNL     1      27.354   0.700  52.384  1.00  0.00     0.016 C 
HETATM   10  C19 UNL     1      27.405   2.062  52.309  1.00  0.00     0.087 C 
HETATM   11  N4  UNL     1      26.059   2.657  52.191  1.00  0.00    -0.354 N 
HETATM   12  H30 UNL     1      26.069   3.310  53.031  1.00  0.00     0.166 HD
ENDROOT
BRANCH   5  13
HETATM   13  N2  UNL     1      23.281  -0.472  53.302  1.00  0.00    -0.329 N 
HETATM   14  C10 UNL     1      22.402  -1.118  54.192  1.00  0.00     0.222 C 
HETATM   15  O1  UNL     1      22.943  -1.072  55.354  1.00  0.00    -0.273 OA
HETATM   16  H13 UNL     1      22.763  -0.512  52.401  1.00  0.00     0.168 HD
BRANCH  14  17
HETATM   17  C11 UNL     1      21.103  -1.809  54.179  1.00  0.00     0.068 C 
HETATM   18  C12 UNL     1      19.786  -1.529  53.846  1.00  0.00     0.069 C 
BRANCH  18  19
HETATM   19  C13 UNL     1      19.470  -0.198  53.356  1.00  0.00     0.277 C 
BRANCH  19  20
HETATM   20  N3  UNL     1      19.613  -0.175  51.871  1.00  0.00     0.080 N 
HETATM   21  C14 UNL     1      18.255  -0.028  51.292  1.00  0.00     0.309 C 
HETATM   22  C15 UNL     1      20.350   1.069  51.543  1.00  0.00     0.309 C 
ENDBRANCH  19  20
ENDBRANCH  18  19
ENDBRANCH  14  17
ENDBRANCH   5  13
BRANCH   1  23
HETATM   23  C5  UNL     1      26.380   3.648  49.979  1.00  0.00     0.121 C 
HETATM   24  C3  UNL     1      26.511   4.743  49.213  1.00  0.00    -0.067 C 
HETATM   25  C4  UNL     1      27.880   4.926  48.602  1.00  0.00     0.045 C 
BRANCH  24  26
HETATM   26  C2  UNL     1      25.516   5.750  48.893  1.00  0.00     0.031 C 
HETATM   27  C1  UNL     1      26.207   6.911  48.168  1.00  0.00     0.010 C 
ENDBRANCH  24  26
ENDBRANCH   1  23
TORSDOF 6
ENDMDL
MODEL 2
REMARK VINA RESULT:      -6.9      3.361      6.085
REMARK  6 active torsions:
REMARK  status: ('A' for Active; 'I' for Inactive)
REMARK    1  A    between atoms: C2_2  and  C3_3 
REMARK    2  A    between atoms: C5_5  and  N1_6 
REMARK    3  A    between atoms: C9_10  and  N2_11 
REMARK       I    between atoms: N2_11  and  C10_12 
REMARK    4  A    between atoms: C10_12  and  C11_14 
REMARK    5  A    between atoms: C12_15  and  C13_16 
REMARK    6  A    between atoms: C13_16  and  N3_17 
ROOT
HETATM    1  N1  UNL     1      27.691   5.610  48.627  1.00  0.00    -0.247 NA
HETATM    2  C6  UNL     1      26.902   4.718  48.963  1.00  0.00     0.106 C 
HETATM    3  C7  UNL     1      26.471   3.331  49.532  1.00  0.00     0.107 C 
HETATM    4  C8  UNL     1      25.264   3.611  50.350  1.00  0.00     0.008 C 
HETATM    5  C9  UNL     1      24.248   3.803  51.200  1.00  0.00     0.032 C 
HETATM    6  C16 UNL     1      22.960   4.480  50.811  1.00  0.00     0.224 C 
HETATM    7  O2  UNL     1      22.958   5.678  51.679  1.00  0.00    -0.382 OA
HETATM    8  C17 UNL     1      24.205   6.256  51.254  1.00  0.00     0.196 C 
HETATM    9  C18 UNL     1      24.190   6.774  49.880  1.00  0.00     0.016 C 
HETATM   10  C19 UNL     1      24.744   6.620  48.642  1.00  0.00     0.087 C 
HETATM   11  N4  UNL     1      25.718   5.510  48.610  1.00  0.00    -0.354 N 
HETATM   12  H30 UNL     1      25.301   4.919  47.829  1.00  0.00     0.166 HD
ENDROOT
BRANCH   5  13
HETATM   13  N2  UNL     1      24.997   3.200  52.199  1.00  0.00    -0.329 N 
HETATM   14  C10 UNL     1      24.749   1.860  52.557  1.00  0.00     0.222 C 
HETATM   15  O1  UNL     1      23.807   1.437  51.797  1.00  0.00    -0.273 OA
HETATM   16  H13 UNL     1      25.790   3.458  52.820  1.00  0.00     0.168 HD
BRANCH  14  17
HETATM   17  C11 UNL     1      25.229   0.849  53.512  1.00  0.00     0.068 C 
HETATM   18  C12 UNL     1      26.361   0.075  53.715  1.00  0.00     0.069 C 
BRANCH  18  19
HETATM   19  C13 UNL     1      27.464   0.210  52.778  1.00  0.00     0.277 C 
BRANCH  19  20
HETATM   20  N3  UNL     1      28.676   0.680  53.512  1.00  0.00     0.080 N 
HETATM   21  C14 UNL     1      28.600   2.159  53.601  1.00  0.00     0.309 C 
HETATM   22  C15 UNL     1      28.550   0.165  54.897  1.00  0.00     0.309 C 
ENDBRANCH  19  20
ENDBRANCH  18  19
ENDBRANCH  14  17
ENDBRANCH   5  13
BRANCH   1  23
HETATM   23  C5  UNL     1      27.680   6.869  48.081  1.00  0.00     0.121 C 
HETATM   24  C3  UNL     1      28.804   7.372  47.544  1.00  0.00    -0.067 C 
HETATM   25  C4  UNL     1      28.668   8.768  46.987  1.00  0.00     0.045 C 
BRANCH  24  26
HETATM   26  C2  UNL     1      30.114   6.755  47.445  1.00  0.00     0.031 C 
HETATM   27  C1  UNL     1      31.004   7.311  48.564  1.00  0.00     0.010 C 
ENDBRANCH  24  26
ENDBRANCH   1  23
TORSDOF 6
ENDMDL
MODEL 3
REMARK VINA RESULT:      -6.9      3.088      6.422
REMARK  6 active torsions:
REMARK  status: ('A' for Active; 'I' for Inactive)
REMARK    1  A    between atoms: C2_2  and  C3_3 
REMARK    2  A    between atoms: C5_5  and  N1_6 
REMARK    3  A    between atoms: C9_10  and  N2_11 
REMARK       I    between atoms: N2_11  and  C10_12 
REMARK    4  A    between atoms: C10_12  and  C11_14 
REMARK    5  A    between atoms: C12_15  and  C13_16 
REMARK    6  A    between atoms: C13_16  and  N3_17 
ROOT
HETATM    1  N1  UNL     1      25.889   0.817  52.360  1.00  0.00    -0.247 NA
HETATM    2  C6  UNL     1      24.983   1.590  52.696  1.00  0.00     0.106 C 
HETATM    3  C7  UNL     1      24.234   2.953  52.803  1.00  0.00     0.107 C 
HETATM    4  C8  UNL     1      22.800   2.618  52.616  1.00  0.00     0.008 C 
HETATM    5  C9  UNL     1      21.507   2.411  52.336  1.00  0.00     0.032 C 
HETATM    6  C16 UNL     1      20.643   1.435  53.089  1.00  0.00     0.224 C 
HETATM    7  O2  UNL     1      20.278   0.460  52.038  1.00  0.00    -0.382 OA
HETATM    8  C17 UNL     1      21.601   0.059  51.643  1.00  0.00     0.196 C 
HETATM    9  C18 UNL     1      22.320  -0.720  52.658  1.00  0.00     0.016 C 
HETATM   10  C19 UNL     1      23.416  -0.717  53.472  1.00  0.00     0.087 C 
HETATM   11  N4  UNL     1      24.197   0.529  53.339  1.00  0.00    -0.354 N 
HETATM   12  H30 UNL     1      24.198   0.857  54.352  1.00  0.00     0.166 HD
ENDROOT
BRANCH   5  13
HETATM   13  N2  UNL     1      21.603   3.338  51.309  1.00  0.00    -0.329 N 
HETATM   14  C10 UNL     1      20.554   4.249  51.079  1.00  0.00     0.222 C 
HETATM   15  O1  UNL     1      19.656   4.019  51.965  1.00  0.00    -0.273 OA
HETATM   16  H13 UNL     1      22.302   3.609  50.588  1.00  0.00     0.168 HD
BRANCH  14  17
HETATM   17  C11 UNL     1      20.198   5.336  50.154  1.00  0.00     0.068 C 
HETATM   18  C12 UNL     1      20.568   6.651  49.913  1.00  0.00     0.069 C 
BRANCH  18  19
HETATM   19  C13 UNL     1      21.597   7.241  50.754  1.00  0.00     0.277 C 
BRANCH  19  20
HETATM   20  N3  UNL     1      22.935   6.971  50.152  1.00  0.00     0.080 N 
HETATM   21  C14 UNL     1      23.549   8.281  49.820  1.00  0.00     0.309 C 
HETATM   22  C15 UNL     1      23.764   6.377  51.228  1.00  0.00     0.309 C 
ENDBRANCH  19  20
ENDBRANCH  18  19
ENDBRANCH  14  17
ENDBRANCH   5  13
BRANCH   1  23
HETATM   23  C5  UNL     1      26.238  -0.505  52.478  1.00  0.00     0.121 C 
HETATM   24  C3  UNL     1      27.472  -0.833  52.895  1.00  0.00    -0.067 C 
HETATM   25  C4  UNL     1      27.739  -2.317  52.973  1.00  0.00     0.045 C 
BRANCH  24  26
HETATM   26  C2  UNL     1      28.567   0.047  53.261  1.00  0.00     0.031 C 
HETATM   27  C1  UNL     1      29.805  -0.809  53.558  1.00  0.00     0.010 C 
ENDBRANCH  24  26
ENDBRANCH   1  23
TORSDOF 6
ENDMDL
MODEL 4
REMARK VINA RESULT:      -6.8      3.438      6.381
REMARK  6 active torsions:
REMARK  status: ('A' for Active; 'I' for Inactive)
REMARK    1  A    between atoms: C2_2  and  C3_3 
REMARK    2  A    between atoms: C5_5  and  N1_6 
REMARK    3  A    between atoms: C9_10  and  N2_11 
REMARK       I    between atoms: N2_11  and  C10_12 
REMARK    4  A    between atoms: C10_12  and  C11_14 
REMARK    5  A    between atoms: C12_15  and  C13_16 
REMARK    6  A    between atoms: C13_16  and  N3_17 
ROOT
HETATM    1  N1  UNL     1      28.872   5.153  48.578  1.00  0.00    -0.247 NA
HETATM    2  C6  UNL     1      27.719   4.734  48.734  1.00  0.00     0.106 C 
HETATM    3  C7  UNL     1      26.612   3.728  49.174  1.00  0.00     0.107 C 
HETATM    4  C8  UNL     1      25.535   4.571  49.750  1.00  0.00     0.008 C 
HETATM    5  C9  UNL     1      24.579   5.253  50.393  1.00  0.00     0.032 C 
HETATM    6  C16 UNL     1      23.831   6.408  49.780  1.00  0.00     0.224 C 
HETATM    7  O2  UNL     1      24.213   7.534  50.660  1.00  0.00    -0.382 OA
HETATM    8  C17 UNL     1      25.640   7.463  50.499  1.00  0.00     0.196 C 
HETATM    9  C18 UNL     1      26.112   7.842  49.161  1.00  0.00     0.016 C 
HETATM   10  C19 UNL     1      26.754   7.376  48.050  1.00  0.00     0.087 C 
HETATM   11  N4  UNL     1      27.108   5.948  48.178  1.00  0.00    -0.354 N 
HETATM   12  H30 UNL     1      26.620   5.557  47.317  1.00  0.00     0.166 HD
ENDROOT
BRANCH   5  13
HETATM   13  N2  UNL     1      24.777   4.445  51.502  1.00  0.00    -0.329 N 
HETATM   14  C10 UNL     1      23.880   3.395  51.781  1.00  0.00     0.222 C 
HETATM   15  O1  UNL     1      22.998   3.398  50.850  1.00  0.00    -0.273 OA
HETATM   16  H13 UNL     1      25.477   4.355  52.266  1.00  0.00     0.168 HD
BRANCH  14  17
HETATM   17  C11 UNL     1      23.664   2.345  52.788  1.00  0.00     0.068 C 
HETATM   18  C12 UNL     1      24.233   1.137  53.160  1.00  0.00     0.069 C 
BRANCH  18  19
HETATM   19  C13 UNL     1      25.383   0.659  52.411  1.00  0.00     0.277 C 
BRANCH  19  20
HETATM   20  N3  UNL     1      26.625   0.940  53.189  1.00  0.00     0.080 N 
HETATM   21  C14 UNL     1      27.471  -0.278  53.138  1.00  0.00     0.309 C 
HETATM   22  C15 UNL     1      27.355   1.993  52.442  1.00  0.00     0.309 C 
ENDBRANCH  19  20
ENDBRANCH  18  19
ENDBRANCH  14  17
ENDBRANCH   5  13
BRANCH   1  23
HETATM   23  C5  UNL     1      29.532   6.246  48.072  1.00  0.00     0.121 C 
HETATM   24  C3  UNL     1      30.863   6.198  47.897  1.00  0.00    -0.067 C 
HETATM   25  C4  UNL     1      31.473   7.463  47.346  1.00  0.00     0.045 C 
BRANCH  24  26
HETATM   26  C2  UNL     1      31.774   5.103  48.179  1.00  0.00     0.031 C 
HETATM   27  C1  UNL     1      32.040   4.339  46.876  1.00  0.00     0.010 C 
ENDBRANCH  24  26
ENDBRANCH   1  23
TORSDOF 6
ENDMDL
MODEL 5
REMARK VINA RESULT:      -6.6      3.029      8.413
REMARK  6 active torsions:
REMARK  status: ('A' for Active; 'I' for Inactive)
REMARK    1  A    between atoms: C2_2  and  C3_3 
REMARK    2  A    between atoms: C5_5  and  N1_6 
REMARK    3  A    between atoms: C9_10  and  N2_11 
REMARK       I    between atoms: N2_11  and  C10_12 
REMARK    4  A    between atoms: C10_12  and  C11_14 
REMARK    5  A    between atoms: C12_15  and  C13_16 
REMARK    6  A    between atoms: C13_16  and  N3_17 
ROOT
HETATM    1  N1  UNL     1      19.349  -0.503  53.006  1.00  0.00    -0.247 NA
HETATM    2  C6  UNL     1      20.203   0.392  53.038  1.00  0.00     0.106 C 
HETATM    3  C7  UNL     1      21.570   1.051  53.398  1.00  0.00     0.107 C 
HETATM    4  C8  UNL     1      21.956   1.817  52.187  1.00  0.00     0.008 C 
HETATM    5  C9  UNL     1      22.429   2.429  51.094  1.00  0.00     0.032 C 
HETATM    6  C16 UNL     1      21.670   3.495  50.349  1.00  0.00     0.224 C 
HETATM    7  O2  UNL     1      21.466   2.870  49.023  1.00  0.00    -0.382 OA
HETATM    8  C17 UNL     1      20.770   1.685  49.447  1.00  0.00     0.196 C 
HETATM    9  C18 UNL     1      19.420   1.935  49.967  1.00  0.00     0.016 C 
HETATM   10  C19 UNL     1      18.637   1.841  51.081  1.00  0.00     0.087 C 
HETATM   11  N4  UNL     1      19.390   1.318  52.239  1.00  0.00    -0.354 N 
HETATM   12  H30 UNL     1      19.232   2.106  52.936  1.00  0.00     0.166 HD
ENDROOT
BRANCH   5  13
HETATM   13  N2  UNL     1      23.574   1.651  51.178  1.00  0.00    -0.329 N 
HETATM   14  C10 UNL     1      24.834   2.262  51.322  1.00  0.00     0.222 C 
HETATM   15  O1  UNL     1      24.635   3.528  51.369  1.00  0.00    -0.273 OA
HETATM   16  H13 UNL     1      23.809   0.638  51.190  1.00  0.00     0.168 HD
BRANCH  14  17
HETATM   17  C11 UNL     1      26.254   1.890  51.423  1.00  0.00     0.068 C 
HETATM   18  C12 UNL     1      27.118   1.353  52.366  1.00  0.00     0.069 C 
BRANCH  18  19
HETATM   19  C13 UNL     1      26.584   1.021  53.677  1.00  0.00     0.277 C 
BRANCH  19  20
HETATM   20  N3  UNL     1      27.342  -0.136  54.237  1.00  0.00     0.080 N 
HETATM   21  C14 UNL     1      27.675  -1.041  53.109  1.00  0.00     0.309 C 
HETATM   22  C15 UNL     1      28.627   0.410  54.735  1.00  0.00     0.309 C 
ENDBRANCH  19  20
ENDBRANCH  18  19
ENDBRANCH  14  17
ENDBRANCH   5  13
BRANCH   1  23
HETATM   23  C5  UNL     1      18.084  -0.729  52.524  1.00  0.00     0.121 C 
HETATM   24  C3  UNL     1      17.399  -1.809  52.936  1.00  0.00    -0.067 C 
HETATM   25  C4  UNL     1      16.024  -1.954  52.328  1.00  0.00     0.045 C 
BRANCH  24  26
HETATM   26  C2  UNL     1      17.812  -2.843  53.866  1.00  0.00     0.031 C 
HETATM   27  C1  UNL     1      17.022  -4.122  53.560  1.00  0.00     0.010 C 
ENDBRANCH  24  26
ENDBRANCH   1  23
TORSDOF 6
ENDMDL
MODEL 6
REMARK VINA RESULT:      -6.6      3.202      5.996
REMARK  6 active torsions:
REMARK  status: ('A' for Active; 'I' for Inactive)
REMARK    1  A    between atoms: C2_2  and  C3_3 
REMARK    2  A    between atoms: C5_5  and  N1_6 
REMARK    3  A    between atoms: C9_10  and  N2_11 
REMARK       I    between atoms: N2_11  and  C10_12 
REMARK    4  A    between atoms: C10_12  and  C11_14 
REMARK    5  A    between atoms: C12_15  and  C13_16 
REMARK    6  A    between atoms: C13_16  and  N3_17 
ROOT
HETATM    1  N1  UNL     1      26.055   0.663  52.105  1.00  0.00    -0.247 NA
HETATM    2  C6  UNL     1      25.182   1.461  52.468  1.00  0.00     0.106 C 
HETATM    3  C7  UNL     1      24.435   2.829  52.534  1.00  0.00     0.107 C 
HETATM    4  C8  UNL     1      22.993   2.477  52.532  1.00  0.00     0.008 C 
HETATM    5  C9  UNL     1      21.680   2.245  52.411  1.00  0.00     0.032 C 
HETATM    6  C16 UNL     1      20.910   1.338  53.334  1.00  0.00     0.224 C 
HETATM    7  O2  UNL     1      20.445   0.275  52.417  1.00  0.00    -0.382 OA
HETATM    8  C17 UNL     1      21.723  -0.158  51.920  1.00  0.00     0.196 C 
HETATM    9  C18 UNL     1      22.554  -0.845  52.917  1.00  0.00     0.016 C 
HETATM   10  C19 UNL     1      23.730  -0.770  53.606  1.00  0.00     0.087 C 
HETATM   11  N4  UNL     1      24.480   0.461  53.282  1.00  0.00    -0.354 N 
HETATM   12  H30 UNL     1      24.585   0.877  54.255  1.00  0.00     0.166 HD
ENDROOT
BRANCH   5  13
HETATM   13  N2  UNL     1      21.656   3.078  51.302  1.00  0.00    -0.329 N 
HETATM   14  C10 UNL     1      20.562   3.938  51.087  1.00  0.00     0.222 C 
HETATM   15  O1  UNL     1      19.751   3.766  52.066  1.00  0.00    -0.273 OA
HETATM   16  H13 UNL     1      22.282   3.302  50.502  1.00  0.00     0.168 HD
BRANCH  14  17
HETATM   17  C11 UNL     1      20.092   4.929  50.106  1.00  0.00     0.068 C 
HETATM   18  C12 UNL     1      20.468   5.409  48.861  1.00  0.00     0.069 C 
BRANCH  18  19
HETATM   19  C13 UNL     1      21.658   4.851  48.239  1.00  0.00     0.277 C 
BRANCH  19  20
HETATM   20  N3  UNL     1      21.255   3.781  47.281  1.00  0.00     0.080 N 
HETATM   21  C14 UNL     1      21.822   4.129  45.956  1.00  0.00     0.309 C 
HETATM   22  C15 UNL     1      21.943   2.545  47.725  1.00  0.00     0.309 C 
ENDBRANCH  19  20
ENDBRANCH  18  19
ENDBRANCH  14  17
ENDBRANCH   5  13
BRANCH   1  23
HETATM   23  C5  UNL     1      26.428  -0.644  52.301  1.00  0.00     0.121 C 
HETATM   24  C3  UNL     1      27.589  -0.919  52.916  1.00  0.00    -0.067 C 
HETATM   25  C4  UNL     1      27.894  -2.391  53.062  1.00  0.00     0.045 C 
BRANCH  24  26
HETATM   26  C2  UNL     1      28.579   0.005  53.438  1.00  0.00     0.031 C 
HETATM   27  C1  UNL     1      29.937  -0.706  53.489  1.00  0.00     0.010 C 
ENDBRANCH  24  26
ENDBRANCH   1  23
TORSDOF 6
ENDMDL
MODEL 7
REMARK VINA RESULT:      -6.5      2.722      8.388
REMARK  6 active torsions:
REMARK  status: ('A' for Active; 'I' for Inactive)
REMARK    1  A    between atoms: C2_2  and  C3_3 
REMARK    2  A    between atoms: C5_5  and  N1_6 
REMARK    3  A    between atoms: C9_10  and  N2_11 
REMARK       I    between atoms: N2_11  and  C10_12 
REMARK    4  A    between atoms: C10_12  and  C11_14 
REMARK    5  A    between atoms: C12_15  and  C13_16 
REMARK    6  A    between atoms: C13_16  and  N3_17 
ROOT
HETATM    1  N1  UNL     1      21.524   1.992  51.601  1.00  0.00    -0.247 NA
HETATM    2  C6  UNL     1      22.545   2.103  50.910  1.00  0.00     0.106 C 
HETATM    3  C7  UNL     1      23.454   2.694  49.789  1.00  0.00     0.107 C 
HETATM    4  C8  UNL     1      24.811   2.750  50.387  1.00  0.00     0.008 C 
HETATM    5  C9  UNL     1      26.034   2.944  50.897  1.00  0.00     0.032 C 
HETATM    6  C16 UNL     1      26.854   1.846  51.523  1.00  0.00     0.224 C 
HETATM    7  O2  UNL     1      26.990   2.312  52.921  1.00  0.00    -0.382 OA
HETATM    8  C17 UNL     1      25.595   2.415  53.252  1.00  0.00     0.196 C 
HETATM    9  C18 UNL     1      24.901   1.124  53.341  1.00  0.00     0.016 C 
HETATM   10  C19 UNL     1      23.906   0.371  52.788  1.00  0.00     0.087 C 
HETATM   11  N4  UNL     1      23.266   1.059  51.648  1.00  0.00    -0.354 N 
HETATM   12  H30 UNL     1      23.410   0.330  50.886  1.00  0.00     0.166 HD
ENDROOT
BRANCH   5  13
HETATM   13  N2  UNL     1      25.938   4.286  50.561  1.00  0.00    -0.329 N 
HETATM   14  C10 UNL     1      26.645   4.789  49.452  1.00  0.00     0.222 C 
HETATM   15  O1  UNL     1      27.271   3.801  48.926  1.00  0.00    -0.273 OA
HETATM   16  H13 UNL     1      25.429   5.125  50.906  1.00  0.00     0.168 HD
BRANCH  14  17
HETATM   17  C11 UNL     1      26.872   6.064  48.753  1.00  0.00     0.068 C 
HETATM   18  C12 UNL     1      27.933   6.764  48.200  1.00  0.00     0.069 C 
BRANCH  18  19
HETATM   19  C13 UNL     1      29.259   6.172  48.269  1.00  0.00     0.277 C 
BRANCH  19  20
HETATM   20  N3  UNL     1      30.283   7.257  48.225  1.00  0.00     0.080 N 
HETATM   21  C14 UNL     1      29.674   8.472  48.820  1.00  0.00     0.309 C 
HETATM   22  C15 UNL     1      31.372   6.838  49.140  1.00  0.00     0.309 C 
ENDBRANCH  19  20
ENDBRANCH  18  19
ENDBRANCH  14  17
ENDBRANCH   5  13
BRANCH   1  23
HETATM   23  C5  UNL     1      21.038   1.238  52.641  1.00  0.00     0.121 C 
HETATM   24  C3  UNL     1      19.999   0.413  52.435  1.00  0.00    -0.067 C 
HETATM   25  C4  UNL     1      19.550  -0.353  53.656  1.00  0.00     0.045 C 
BRANCH  24  26
HETATM   26  C2  UNL     1      19.259   0.177  51.209  1.00  0.00     0.031 C 
HETATM   27  C1  UNL     1      17.905   0.892  51.309  1.00  0.00     0.010 C 
ENDBRANCH  24  26
ENDBRANCH   1  23
TORSDOF 6
ENDMDL
MODEL 8
REMARK VINA RESULT:      -6.4      2.456      7.582
REMARK  6 active torsions:
REMARK  status: ('A' for Active; 'I' for Inactive)
REMARK    1  A    between atoms: C2_2  and  C3_3 
REMARK    2  A    between atoms: C5_5  and  N1_6 
REMARK    3  A    between atoms: C9_10  and  N2_11 
REMARK       I    between atoms: N2_11  and  C10_12 
REMARK    4  A    between atoms: C10_12  and  C11_14 
REMARK    5  A    between atoms: C12_15  and  C13_16 
REMARK    6  A    between atoms: C13_16  and  N3_17 
ROOT
HETATM    1  N1  UNL     1      21.476   1.937  51.492  1.00  0.00    -0.247 NA
HETATM    2  C6  UNL     1      22.506   2.075  50.820  1.00  0.00     0.106 C 
HETATM    3  C7  UNL     1      23.421   2.693  49.719  1.00  0.00     0.107 C 
HETATM    4  C8  UNL     1      24.766   2.776  50.341  1.00  0.00     0.008 C 
HETATM    5  C9  UNL     1      25.974   2.995  50.874  1.00  0.00     0.032 C 
HETATM    6  C16 UNL     1      26.808   1.914  51.509  1.00  0.00     0.224 C 
HETATM    7  O2  UNL     1      26.908   2.374  52.911  1.00  0.00    -0.382 OA
HETATM    8  C17 UNL     1      25.505   2.444  53.218  1.00  0.00     0.196 C 
HETATM    9  C18 UNL     1      24.840   1.137  53.288  1.00  0.00     0.016 C 
HETATM   10  C19 UNL     1      23.872   0.365  52.713  1.00  0.00     0.087 C 
HETATM   11  N4  UNL     1      23.237   1.044  51.566  1.00  0.00    -0.354 N 
HETATM   12  H30 UNL     1      23.411   0.323  50.803  1.00  0.00     0.166 HD
ENDROOT
BRANCH   5  13
HETATM   13  N2  UNL     1      25.854   4.337  50.544  1.00  0.00    -0.329 N 
HETATM   14  C10 UNL     1      26.595   4.870  49.471  1.00  0.00     0.222 C 
HETATM   15  O1  UNL     1      27.274   3.905  48.968  1.00  0.00    -0.273 OA
HETATM   16  H13 UNL     1      25.305   5.158  50.871  1.00  0.00     0.168 HD
BRANCH  14  17
HETATM   17  C11 UNL     1      26.816   6.156  48.792  1.00  0.00     0.068 C 
HETATM   18  C12 UNL     1      26.057   7.184  48.252  1.00  0.00     0.069 C 
BRANCH  18  19
HETATM   19  C13 UNL     1      24.609   7.072  48.311  1.00  0.00     0.277 C 
BRANCH  19  20
HETATM   20  N3  UNL     1      24.047   8.303  48.939  1.00  0.00     0.080 N 
HETATM   21  C14 UNL     1      24.132   8.135  50.410  1.00  0.00     0.309 C 
HETATM   22  C15 UNL     1      24.970   9.409  48.586  1.00  0.00     0.309 C 
ENDBRANCH  19  20
ENDBRANCH  18  19
ENDBRANCH  14  17
ENDBRANCH   5  13
BRANCH   1  23
HETATM   23  C5  UNL     1      20.989   1.167  52.519  1.00  0.00     0.121 C 
HETATM   24  C3  UNL     1      19.919   0.382  52.312  1.00  0.00    -0.067 C 
HETATM   25  C4  UNL     1      19.472  -0.406  53.519  1.00  0.00     0.045 C 
BRANCH  24  26
HETATM   26  C2  UNL     1      19.144   0.210  51.097  1.00  0.00     0.031 C 
HETATM   27  C1  UNL     1      17.826   0.981  51.242  1.00  0.00     0.010 C 
ENDBRANCH  24  26
ENDBRANCH   1  23
TORSDOF 6
ENDMDL
MODEL 9
REMARK VINA RESULT:      -6.4      2.821      5.798
REMARK  6 active torsions:
REMARK  status: ('A' for Active; 'I' for Inactive)
REMARK    1  A    between atoms: C2_2  and  C3_3 
REMARK    2  A    between atoms: C5_5  and  N1_6 
REMARK    3  A    between atoms: C9_10  and  N2_11 
REMARK       I    between atoms: N2_11  and  C10_12 
REMARK    4  A    between atoms: C10_12  and  C11_14 
REMARK    5  A    between atoms: C12_15  and  C13_16 
REMARK    6  A    between atoms: C13_16  and  N3_17 
ROOT
HETATM    1  N1  UNL     1      23.422   5.470  48.979  1.00  0.00    -0.247 NA
HETATM    2  C6  UNL     1      23.335   4.255  49.198  1.00  0.00     0.106 C 
HETATM    3  C7  UNL     1      23.856   2.805  49.439  1.00  0.00     0.107 C 
HETATM    4  C8  UNL     1      22.982   2.256  50.505  1.00  0.00     0.008 C 
HETATM    5  C9  UNL     1      22.316   1.736  51.544  1.00  0.00     0.032 C 
HETATM    6  C16 UNL     1      20.815   1.621  51.591  1.00  0.00     0.224 C 
HETATM    7  O2  UNL     1      20.468   2.491  52.736  1.00  0.00    -0.382 OA
HETATM    8  C17 UNL     1      21.058   3.715  52.266  1.00  0.00     0.196 C 
HETATM    9  C18 UNL     1      20.374   4.307  51.110  1.00  0.00     0.016 C 
HETATM   10  C19 UNL     1      20.531   4.649  49.798  1.00  0.00     0.087 C 
HETATM   11  N4  UNL     1      21.870   4.288  49.292  1.00  0.00    -0.354 N 
HETATM   12  H30 UNL     1      21.597   3.671  48.468  1.00  0.00     0.166 HD
ENDROOT
BRANCH   5  13
HETATM   13  N2  UNL     1      23.526   1.532  52.191  1.00  0.00    -0.329 N 
HETATM   14  C10 UNL     1      23.743   0.352  52.928  1.00  0.00     0.222 C 
HETATM   15  O1  UNL     1      22.681  -0.360  52.819  1.00  0.00    -0.273 OA
HETATM   16  H13 UNL     1      24.432   2.032  52.290  1.00  0.00     0.168 HD
BRANCH  14  17
HETATM   17  C11 UNL     1      24.783  -0.274  53.759  1.00  0.00     0.068 C 
HETATM   18  C12 UNL     1      26.162  -0.422  53.751  1.00  0.00     0.069 C 
BRANCH  18  19
HETATM   19  C13 UNL     1      26.911   0.168  52.654  1.00  0.00     0.277 C 
BRANCH  19  20
HETATM   20  N3  UNL     1      28.178   0.750  53.182  1.00  0.00     0.080 N 
HETATM   21  C14 UNL     1      27.931   2.187  53.457  1.00  0.00     0.309 C 
HETATM   22  C15 UNL     1      28.418   0.104  54.495  1.00  0.00     0.309 C 
ENDBRANCH  19  20
ENDBRANCH  18  19
ENDBRANCH  14  17
ENDBRANCH   5  13
BRANCH   1  23
HETATM   23  C5  UNL     1      22.614   6.566  48.806  1.00  0.00     0.121 C 
HETATM   24  C3  UNL     1      22.777   7.643  49.591  1.00  0.00    -0.067 C 
HETATM   25  C4  UNL     1      21.822   8.778  49.311  1.00  0.00     0.045 C 
BRANCH  24  26
HETATM   26  C2  UNL     1      23.733   7.845  50.664  1.00  0.00     0.031 C 
HETATM   27  C1  UNL     1      24.970   8.553  50.094  1.00  0.00     0.010 C 
ENDBRANCH  24  26
ENDBRANCH   1  23
TORSDOF 6
ENDMDL
