MODEL 1
REMARK VINA RESULT:      -7.6      0.000      0.000
REMARK  8 active torsions:
REMARK  status: ('A' for Active; 'I' for Inactive)
REMARK    1  A    between atoms: O1_1  and  C1_2 
REMARK    2  A    between atoms: C1_2  and  C2_3 
REMARK    3  A    between atoms: C2_3  and  C3_4 
REMARK    4  A    between atoms: C3_4  and  N1_5 
REMARK    5  A    between atoms: N1_5  and  C4_6 
REMARK    6  A    between atoms: C8_10  and  C9_11 
REMARK    7  A    between atoms: C12_15  and  N3_16 
REMARK    8  A    between atoms: N3_16  and  C13_17 
ROOT
HETATM    1  C9  UNL     1      23.797   3.819  50.262  1.00  0.00     0.089 A 
HETATM    2  C10 UNL     1      22.793   4.762  50.284  1.00  0.00     0.148 A 
HETATM    3  N2  UNL     1      21.531   4.445  50.593  1.00  0.00    -0.267 NA
HETATM    4  C11 UNL     1      21.195   3.182  50.895  1.00  0.00     0.166 A 
HETATM    5  C12 UNL     1      22.178   2.221  50.880  1.00  0.00     0.146 A 
HETATM    6  N4  UNL     1      23.462   2.561  50.564  1.00  0.00    -0.228 NA
ENDROOT
BRANCH   1   7
HETATM    7  C8  UNL     1      25.158   4.273  49.871  1.00  0.00     0.021 C 
HETATM    8  C4  UNL     1      26.504   3.731  50.160  1.00  0.00     0.052 C 
HETATM    9  C5  UNL     1      26.994   4.143  48.979  1.00  0.00     0.004 C 
HETATM   10  C6  UNL     1      26.791   5.467  48.884  1.00  0.00     0.015 C 
HETATM   11  C7  UNL     1      25.323   5.353  49.083  1.00  0.00     0.017 C 
BRANCH   8  12
HETATM   12  N1  UNL     1      26.738   3.084  51.418  1.00  0.00    -0.388 N 
HETATM   13  H8  UNL     1      27.035   3.808  52.138  1.00  0.00     0.159 HD
BRANCH  12  14
HETATM   14  C3  UNL     1      26.605   1.703  51.708  1.00  0.00     0.122 C 
BRANCH  14  15
HETATM   15  C2  UNL     1      27.526   1.076  52.683  1.00  0.00     0.045 C 
BRANCH  15  16
HETATM   16  C1  UNL     1      28.464   1.969  53.417  1.00  0.00     0.165 C 
BRANCH  16  17
HETATM   17  O1  UNL     1      27.713   2.920  54.169  1.00  0.00    -0.401 OA
HETATM   18  H1  UNL     1      26.940   3.136  53.555  1.00  0.00     0.209 HD
ENDBRANCH  16  17
ENDBRANCH  15  16
ENDBRANCH  14  15
ENDBRANCH  12  14
ENDBRANCH   8  12
ENDBRANCH   1   7
BRANCH   5  19
HETATM   19  N3  UNL     1      21.893   0.836  51.161  1.00  0.00    -0.340 N 
HETATM   20  H13 UNL     1      21.564   0.037  50.570  1.00  0.00     0.167 HD
BRANCH  19  21
HETATM   21  C13 UNL     1      22.017   0.169  52.419  1.00  0.00     0.035 A 
HETATM   22  C14 UNL     1      21.017  -0.378  53.181  1.00  0.00     0.029 A 
HETATM   23  C15 UNL     1      21.191  -1.044  54.376  1.00  0.00     0.004 A 
HETATM   24  C16 UNL     1      22.471  -1.179  54.867  1.00  0.00     0.024 A 
HETATM   25  C17 UNL     1      23.528  -0.647  54.147  1.00  0.00     0.036 A 
HETATM   26 CL1  UNL     1      25.153  -0.840  54.785  1.00  0.00    -0.084 Cl
HETATM   27  C18 UNL     1      23.283   0.013  52.944  1.00  0.00     0.053 A 
ENDBRANCH  19  21
ENDBRANCH   5  19
TORSDOF 8
ENDMDL
MODEL 2
REMARK VINA RESULT:      -7.5      2.587      5.779
REMARK  8 active torsions:
REMARK  status: ('A' for Active; 'I' for Inactive)
REMARK    1  A    between atoms: O1_1  and  C1_2 
REMARK    2  A    between atoms: C1_2  and  C2_3 
REMARK    3  A    between atoms: C2_3  and  C3_4 
REMARK    4  A    between atoms: C3_4  and  N1_5 
REMARK    5  A    between atoms: N1_5  and  C4_6 
REMARK    6  A    between atoms: C8_10  and  C9_11 
REMARK    7  A    between atoms: C12_15  and  N3_16 
REMARK    8  A    between atoms: N3_16  and  C13_17 
ROOT
HETATM    1  C9  UNL     1      22.305  -0.117  53.100  1.00  0.00     0.089 A 
HETATM    2  C10 UNL     1      21.415  -0.812  53.889  1.00  0.00     0.148 A 
HETATM    3  N2  UNL     1      21.806  -1.467  54.989  1.00  0.00    -0.267 NA
HETATM    4  C11 UNL     1      23.094  -1.470  55.364  1.00  0.00     0.166 A 
HETATM    5  C12 UNL     1      24.003  -0.784  54.593  1.00  0.00     0.146 A 
HETATM    6  N4  UNL     1      23.588  -0.120  53.474  1.00  0.00    -0.228 NA
ENDROOT
BRANCH   1   7
HETATM    7  C8  UNL     1      21.770   0.545  51.881  1.00  0.00     0.021 C 
HETATM    8  C4  UNL     1      22.424   1.340  50.818  1.00  0.00     0.052 C 
HETATM    9  C5  UNL     1      21.568   0.906  49.878  1.00  0.00     0.004 C 
HETATM   10  C6  UNL     1      20.322   1.195  50.285  1.00  0.00     0.015 C 
HETATM   11  C7  UNL     1      20.464   0.452  51.564  1.00  0.00     0.017 C 
BRANCH   8  12
HETATM   12  N1  UNL     1      23.547   2.164  51.156  1.00  0.00    -0.388 N 
HETATM   13  H8  UNL     1      24.393   1.857  50.588  1.00  0.00     0.159 HD
BRANCH  12  14
HETATM   14  C3  UNL     1      23.577   3.231  52.089  1.00  0.00     0.122 C 
BRANCH  14  15
HETATM   15  C2  UNL     1      22.944   4.521  51.733  1.00  0.00     0.045 C 
BRANCH  15  16
HETATM   16  C1  UNL     1      23.840   5.643  51.341  1.00  0.00     0.165 C 
BRANCH  16  17
HETATM   17  O1  UNL     1      24.223   6.366  52.508  1.00  0.00    -0.401 OA
HETATM   18  H1  UNL     1      23.338   6.677  52.884  1.00  0.00     0.209 HD
ENDBRANCH  16  17
ENDBRANCH  15  16
ENDBRANCH  14  15
ENDBRANCH  12  14
ENDBRANCH   8  12
ENDBRANCH   1   7
BRANCH   5  19
HETATM   19  N3  UNL     1      25.410  -0.766  54.910  1.00  0.00    -0.340 N 
HETATM   20  H13 UNL     1      26.009  -1.342  55.545  1.00  0.00     0.167 HD
BRANCH  19  21
HETATM   21  C13 UNL     1      26.402   0.110  54.371  1.00  0.00     0.035 A 
HETATM   22  C14 UNL     1      26.268   1.439  54.061  1.00  0.00     0.029 A 
HETATM   23  C15 UNL     1      27.267   2.255  53.573  1.00  0.00     0.004 A 
HETATM   24  C16 UNL     1      28.515   1.707  53.370  1.00  0.00     0.024 A 
HETATM   25  C17 UNL     1      28.718   0.368  53.662  1.00  0.00     0.036 A 
HETATM   26 CL1  UNL     1      30.319  -0.308  53.405  1.00  0.00    -0.084 Cl
HETATM   27  C18 UNL     1      27.664  -0.401  54.153  1.00  0.00     0.053 A 
ENDBRANCH  19  21
ENDBRANCH   5  19
TORSDOF 8
ENDMDL
MODEL 3
REMARK VINA RESULT:      -7.4      2.677      6.214
REMARK  8 active torsions:
REMARK  status: ('A' for Active; 'I' for Inactive)
REMARK    1  A    between atoms: O1_1  and  C1_2 
REMARK    2  A    between atoms: C1_2  and  C2_3 
REMARK    3  A    between atoms: C2_3  and  C3_4 
REMARK    4  A    between atoms: C3_4  and  N1_5 
REMARK    5  A    between atoms: N1_5  and  C4_6 
REMARK    6  A    between atoms: C8_10  and  C9_11 
REMARK    7  A    between atoms: C12_15  and  N3_16 
REMARK    8  A    between atoms: N3_16  and  C13_17 
ROOT
HETATM    1  C9  UNL     1      22.072   1.568  52.697  1.00  0.00     0.089 A 
HETATM    2  C10 UNL     1      20.851   1.953  52.186  1.00  0.00     0.148 A 
HETATM    3  N2  UNL     1      20.679   3.134  51.580  1.00  0.00    -0.267 NA
HETATM    4  C11 UNL     1      21.699   3.995  51.451  1.00  0.00     0.166 A 
HETATM    5  C12 UNL     1      22.928   3.635  51.954  1.00  0.00     0.146 A 
HETATM    6  N4  UNL     1      23.088   2.426  52.568  1.00  0.00    -0.228 NA
ENDROOT
BRANCH   1   7
HETATM    7  C8  UNL     1      22.144   0.250  53.382  1.00  0.00     0.021 C 
HETATM    8  C4  UNL     1      23.285  -0.530  53.910  1.00  0.00     0.052 C 
HETATM    9  C5  UNL     1      22.550  -1.052  54.906  1.00  0.00     0.004 C 
HETATM   10  C6  UNL     1      21.490  -1.668  54.360  1.00  0.00     0.015 C 
HETATM   11  C7  UNL     1      21.024  -0.448  53.651  1.00  0.00     0.017 C 
BRANCH   8  12
HETATM   12  N1  UNL     1      24.550  -0.452  53.241  1.00  0.00    -0.388 N 
HETATM   13  H8  UNL     1      24.392  -0.249  52.208  1.00  0.00     0.159 HD
BRANCH  12  14
HETATM   14  C3  UNL     1      25.836  -0.609  53.817  1.00  0.00     0.122 C 
BRANCH  14  15
HETATM   15  C2  UNL     1      26.433   0.516  54.574  1.00  0.00     0.045 C 
BRANCH  15  16
HETATM   16  C1  UNL     1      26.793   1.743  53.813  1.00  0.00     0.165 C 
BRANCH  16  17
HETATM   17  O1  UNL     1      25.682   2.636  53.813  1.00  0.00    -0.401 OA
HETATM   18  H1  UNL     1      25.421   2.676  52.837  1.00  0.00     0.209 HD
ENDBRANCH  16  17
ENDBRANCH  15  16
ENDBRANCH  14  15
ENDBRANCH  12  14
ENDBRANCH   8  12
ENDBRANCH   1   7
BRANCH   5  19
HETATM   19  N3  UNL     1      24.067   4.517  51.884  1.00  0.00    -0.340 N 
HETATM   20  H13 UNL     1      24.427   5.273  52.510  1.00  0.00     0.167 HD
BRANCH  19  21
HETATM   21  C13 UNL     1      25.064   4.555  50.859  1.00  0.00     0.035 A 
HETATM   22  C14 UNL     1      25.858   3.526  50.424  1.00  0.00     0.029 A 
HETATM   23  C15 UNL     1      26.785   3.603  49.405  1.00  0.00     0.004 A 
HETATM   24  C16 UNL     1      26.944   4.809  48.758  1.00  0.00     0.024 A 
HETATM   25  C17 UNL     1      26.172   5.891  49.151  1.00  0.00     0.036 A 
HETATM   26 CL1  UNL     1      26.383   7.416  48.306  1.00  0.00    -0.084 Cl
HETATM   27  C18 UNL     1      25.252   5.744  50.188  1.00  0.00     0.053 A 
ENDBRANCH  19  21
ENDBRANCH   5  19
TORSDOF 8
ENDMDL
MODEL 4
REMARK VINA RESULT:      -7.4      3.231      7.006
REMARK  8 active torsions:
REMARK  status: ('A' for Active; 'I' for Inactive)
REMARK    1  A    between atoms: O1_1  and  C1_2 
REMARK    2  A    between atoms: C1_2  and  C2_3 
REMARK    3  A    between atoms: C2_3  and  C3_4 
REMARK    4  A    between atoms: C3_4  and  N1_5 
REMARK    5  A    between atoms: N1_5  and  C4_6 
REMARK    6  A    between atoms: C8_10  and  C9_11 
REMARK    7  A    between atoms: C12_15  and  N3_16 
REMARK    8  A    between atoms: N3_16  and  C13_17 
ROOT
HETATM    1  C9  UNL     1      26.338   1.989  52.547  1.00  0.00     0.089 A 
HETATM    2  C10 UNL     1      25.223   2.431  53.225  1.00  0.00     0.148 A 
HETATM    3  N2  UNL     1      24.333   3.256  52.662  1.00  0.00    -0.267 NA
HETATM    4  C11 UNL     1      24.499   3.688  51.403  1.00  0.00     0.166 A 
HETATM    5  C12 UNL     1      25.604   3.263  50.704  1.00  0.00     0.146 A 
HETATM    6  N4  UNL     1      26.503   2.419  51.292  1.00  0.00    -0.228 NA
ENDROOT
BRANCH   1   7
HETATM    7  C8  UNL     1      27.281   1.103  53.279  1.00  0.00     0.021 C 
HETATM    8  C4  UNL     1      27.308  -0.363  53.482  1.00  0.00     0.052 C 
HETATM    9  C5  UNL     1      28.650  -0.400  53.505  1.00  0.00     0.004 C 
HETATM   10  C6  UNL     1      29.072   0.436  54.468  1.00  0.00     0.015 C 
HETATM   11  C7  UNL     1      28.369   1.611  53.890  1.00  0.00     0.017 C 
BRANCH   8  12
HETATM   12  N1  UNL     1      26.067  -1.074  53.578  1.00  0.00    -0.388 N 
HETATM   13  H8  UNL     1      26.015  -1.801  52.803  1.00  0.00     0.159 HD
BRANCH  12  14
HETATM   14  C3  UNL     1      25.042  -0.881  54.537  1.00  0.00     0.122 C 
BRANCH  14  15
HETATM   15  C2  UNL     1      23.654  -0.646  54.076  1.00  0.00     0.045 C 
BRANCH  15  16
HETATM   16  C1  UNL     1      22.549  -1.180  54.919  1.00  0.00     0.165 C 
BRANCH  16  17
HETATM   17  O1  UNL     1      23.103  -1.919  56.004  1.00  0.00    -0.401 OA
HETATM   18  H1  UNL     1      24.081  -1.667  55.976  1.00  0.00     0.209 HD
ENDBRANCH  16  17
ENDBRANCH  15  16
ENDBRANCH  14  15
ENDBRANCH  12  14
ENDBRANCH   8  12
ENDBRANCH   1   7
BRANCH   5  19
HETATM   19  N3  UNL     1      25.872   3.708  49.358  1.00  0.00    -0.340 N 
HETATM   20  H13 UNL     1      25.646   3.315  48.415  1.00  0.00     0.167 HD
BRANCH  19  21
HETATM   21  C13 UNL     1      26.555   4.901  48.966  1.00  0.00     0.035 A 
HETATM   22  C14 UNL     1      26.057   6.177  48.928  1.00  0.00     0.029 A 
HETATM   23  C15 UNL     1      26.767   7.306  48.574  1.00  0.00     0.004 A 
HETATM   24  C16 UNL     1      28.092   7.160  48.223  1.00  0.00     0.024 A 
HETATM   25  C17 UNL     1      28.657   5.894  48.240  1.00  0.00     0.036 A 
HETATM   26 CL1  UNL     1      30.349   5.732  47.800  1.00  0.00    -0.084 Cl
HETATM   27  C18 UNL     1      27.882   4.796  48.609  1.00  0.00     0.053 A 
ENDBRANCH  19  21
ENDBRANCH   5  19
TORSDOF 8
ENDMDL
MODEL 5
REMARK VINA RESULT:      -7.3      2.778      5.331
REMARK  8 active torsions:
REMARK  status: ('A' for Active; 'I' for Inactive)
REMARK    1  A    between atoms: O1_1  and  C1_2 
REMARK    2  A    between atoms: C1_2  and  C2_3 
REMARK    3  A    between atoms: C2_3  and  C3_4 
REMARK    4  A    between atoms: C3_4  and  N1_5 
REMARK    5  A    between atoms: N1_5  and  C4_6 
REMARK    6  A    between atoms: C8_10  and  C9_11 
REMARK    7  A    between atoms: C12_15  and  N3_16 
REMARK    8  A    between atoms: N3_16  and  C13_17 
ROOT
HETATM    1  C9  UNL     1      24.403  -0.665  54.062  1.00  0.00     0.089 A 
HETATM    2  C10 UNL     1      24.098  -1.262  55.266  1.00  0.00     0.148 A 
HETATM    3  N2  UNL     1      22.837  -1.534  55.621  1.00  0.00    -0.267 NA
HETATM    4  C11 UNL     1      21.814  -1.228  54.809  1.00  0.00     0.166 A 
HETATM    5  C12 UNL     1      22.091  -0.630  53.602  1.00  0.00     0.146 A 
HETATM    6  N4  UNL     1      23.384  -0.361  53.253  1.00  0.00    -0.228 NA
ENDROOT
BRANCH   1   7
HETATM    7  C8  UNL     1      25.835  -0.376  53.782  1.00  0.00     0.021 C 
HETATM    8  C4  UNL     1      26.690   0.789  54.100  1.00  0.00     0.052 C 
HETATM    9  C5  UNL     1      27.789   0.028  54.231  1.00  0.00     0.004 C 
HETATM   10  C6  UNL     1      27.957  -0.659  53.089  1.00  0.00     0.015 C 
HETATM   11  C7  UNL     1      26.608  -1.280  53.151  1.00  0.00     0.017 C 
BRANCH   8  12
HETATM   12  N1  UNL     1      26.104   2.097  54.124  1.00  0.00    -0.388 N 
HETATM   13  H8  UNL     1      26.461   2.628  54.974  1.00  0.00     0.159 HD
BRANCH  12  14
HETATM   14  C3  UNL     1      25.191   2.644  53.188  1.00  0.00     0.122 C 
BRANCH  14  15
HETATM   15  C2  UNL     1      25.294   2.254  51.763  1.00  0.00     0.045 C 
BRANCH  15  16
HETATM   16  C1  UNL     1      26.307   2.956  50.928  1.00  0.00     0.165 C 
BRANCH  16  17
HETATM   17  O1  UNL     1      27.545   3.002  51.634  1.00  0.00    -0.401 OA
HETATM   18  H1  UNL     1      27.790   2.026  51.728  1.00  0.00     0.209 HD
ENDBRANCH  16  17
ENDBRANCH  15  16
ENDBRANCH  14  15
ENDBRANCH  12  14
ENDBRANCH   8  12
ENDBRANCH   1   7
BRANCH   5  19
HETATM   19  N3  UNL     1      21.046  -0.241  52.688  1.00  0.00    -0.340 N 
HETATM   20  H13 UNL     1      20.041  -0.513  52.590  1.00  0.00     0.167 HD
BRANCH  19  21
HETATM   21  C13 UNL     1      21.147   0.702  51.618  1.00  0.00     0.035 A 
HETATM   22  C14 UNL     1      21.276   0.439  50.279  1.00  0.00     0.029 A 
HETATM   23  C15 UNL     1      21.335   1.386  49.277  1.00  0.00     0.004 A 
HETATM   24  C16 UNL     1      21.261   2.715  49.630  1.00  0.00     0.024 A 
HETATM   25  C17 UNL     1      21.131   3.050  50.969  1.00  0.00     0.036 A 
HETATM   26 CL1  UNL     1      21.029   4.750  51.397  1.00  0.00    -0.084 Cl
HETATM   27  C18 UNL     1      21.077   2.043  51.931  1.00  0.00     0.053 A 
ENDBRANCH  19  21
ENDBRANCH   5  19
TORSDOF 8
ENDMDL
MODEL 6
REMARK VINA RESULT:      -7.3      3.537      7.059
REMARK  8 active torsions:
REMARK  status: ('A' for Active; 'I' for Inactive)
REMARK    1  A    between atoms: O1_1  and  C1_2 
REMARK    2  A    between atoms: C1_2  and  C2_3 
REMARK    3  A    between atoms: C2_3  and  C3_4 
REMARK    4  A    between atoms: C3_4  and  N1_5 
REMARK    5  A    between atoms: N1_5  and  C4_6 
REMARK    6  A    between atoms: C8_10  and  C9_11 
REMARK    7  A    between atoms: C12_15  and  N3_16 
REMARK    8  A    between atoms: N3_16  and  C13_17 
ROOT
HETATM    1  C9  UNL     1      21.000  -0.581  53.508  1.00  0.00     0.089 A 
HETATM    2  C10 UNL     1      21.204  -1.257  54.691  1.00  0.00     0.148 A 
HETATM    3  N2  UNL     1      22.427  -1.429  55.206  1.00  0.00    -0.267 NA
HETATM    4  C11 UNL     1      23.510  -0.945  54.579  1.00  0.00     0.166 A 
HETATM    5  C12 UNL     1      23.334  -0.267  53.396  1.00  0.00     0.146 A 
HETATM    6  N4  UNL     1      22.079  -0.099  52.884  1.00  0.00    -0.228 NA
ENDROOT
BRANCH   1   7
HETATM    7  C8  UNL     1      19.603  -0.478  53.007  1.00  0.00     0.021 C 
HETATM    8  C4  UNL     1      18.973   0.409  52.004  1.00  0.00     0.052 C 
HETATM    9  C5  UNL     1      18.098  -0.536  51.624  1.00  0.00     0.004 C 
HETATM   10  C6  UNL     1      17.420  -0.936  52.712  1.00  0.00     0.015 C 
HETATM   11  C7  UNL     1      18.648  -1.315  53.457  1.00  0.00     0.017 C 
BRANCH   8  12
HETATM   12  N1  UNL     1      19.460   1.749  51.858  1.00  0.00    -0.388 N 
HETATM   13  H8  UNL     1      19.491   2.219  52.812  1.00  0.00     0.159 HD
BRANCH  12  14
HETATM   14  C3  UNL     1      19.853   2.392  50.658  1.00  0.00     0.122 C 
BRANCH  14  15
HETATM   15  C2  UNL     1      20.107   1.575  49.448  1.00  0.00     0.045 C 
BRANCH  15  16
HETATM   16  C1  UNL     1      21.451   0.950  49.310  1.00  0.00     0.165 C 
BRANCH  16  17
HETATM   17  O1  UNL     1      22.250   1.303  50.436  1.00  0.00    -0.401 OA
HETATM   18  H1  UNL     1      23.061   0.709  50.336  1.00  0.00     0.209 HD
ENDBRANCH  16  17
ENDBRANCH  15  16
ENDBRANCH  14  15
ENDBRANCH  12  14
ENDBRANCH   8  12
ENDBRANCH   1   7
BRANCH   5  19
HETATM   19  N3  UNL     1      24.448   0.255  52.645  1.00  0.00    -0.340 N 
HETATM   20  H13 UNL     1      24.521   0.891  51.817  1.00  0.00     0.167 HD
BRANCH  19  21
HETATM   21  C13 UNL     1      25.837   0.017  52.888  1.00  0.00     0.035 A 
HETATM   22  C14 UNL     1      26.512  -1.173  52.793  1.00  0.00     0.029 A 
HETATM   23  C15 UNL     1      27.863  -1.348  53.005  1.00  0.00     0.004 A 
HETATM   24  C16 UNL     1      28.619  -0.247  53.343  1.00  0.00     0.024 A 
HETATM   25  C17 UNL     1      27.997   0.986  53.457  1.00  0.00     0.036 A 
HETATM   26 CL1  UNL     1      28.980   2.379  53.879  1.00  0.00    -0.084 Cl
HETATM   27  C18 UNL     1      26.627   1.094  53.228  1.00  0.00     0.053 A 
ENDBRANCH  19  21
ENDBRANCH   5  19
TORSDOF 8
ENDMDL
MODEL 7
REMARK VINA RESULT:      -6.9      1.984      2.315
REMARK  8 active torsions:
REMARK  status: ('A' for Active; 'I' for Inactive)
REMARK    1  A    between atoms: O1_1  and  C1_2 
REMARK    2  A    between atoms: C1_2  and  C2_3 
REMARK    3  A    between atoms: C2_3  and  C3_4 
REMARK    4  A    between atoms: C3_4  and  N1_5 
REMARK    5  A    between atoms: N1_5  and  C4_6 
REMARK    6  A    between atoms: C8_10  and  C9_11 
REMARK    7  A    between atoms: C12_15  and  N3_16 
REMARK    8  A    between atoms: N3_16  and  C13_17 
ROOT
HETATM    1  C9  UNL     1      23.832   3.962  50.966  1.00  0.00     0.089 A 
HETATM    2  C10 UNL     1      23.334   5.152  51.448  1.00  0.00     0.148 A 
HETATM    3  N2  UNL     1      22.109   5.243  51.980  1.00  0.00    -0.267 NA
HETATM    4  C11 UNL     1      21.315   4.166  52.062  1.00  0.00     0.166 A 
HETATM    5  C12 UNL     1      21.788   2.965  51.588  1.00  0.00     0.146 A 
HETATM    6  N4  UNL     1      23.041   2.888  51.049  1.00  0.00    -0.228 NA
ENDROOT
BRANCH   1   7
HETATM    7  C8  UNL     1      25.191   3.980  50.363  1.00  0.00     0.021 C 
HETATM    8  C4  UNL     1      26.406   3.179  50.634  1.00  0.00     0.052 C 
HETATM    9  C5  UNL     1      26.804   3.233  49.353  1.00  0.00     0.004 C 
HETATM   10  C6  UNL     1      26.897   4.525  49.000  1.00  0.00     0.015 C 
HETATM   11  C7  UNL     1      25.484   4.822  49.353  1.00  0.00     0.017 C 
BRANCH   8  12
HETATM   12  N1  UNL     1      26.661   2.734  51.973  1.00  0.00    -0.388 N 
HETATM   13  H8  UNL     1      26.478   3.533  52.652  1.00  0.00     0.159 HD
BRANCH  12  14
HETATM   14  C3  UNL     1      27.087   1.445  52.380  1.00  0.00     0.122 C 
BRANCH  14  15
HETATM   15  C2  UNL     1      26.100   0.342  52.443  1.00  0.00     0.045 C 
BRANCH  15  16
HETATM   16  C1  UNL     1      26.623  -1.051  52.427  1.00  0.00     0.165 C 
BRANCH  16  17
HETATM   17  O1  UNL     1      27.232  -1.337  53.684  1.00  0.00    -0.401 OA
HETATM   18  H1  UNL     1      27.531  -0.426  54.005  1.00  0.00     0.209 HD
ENDBRANCH  16  17
ENDBRANCH  15  16
ENDBRANCH  14  15
ENDBRANCH  12  14
ENDBRANCH   8  12
ENDBRANCH   1   7
BRANCH   5  19
HETATM   19  N3  UNL     1      20.984   1.768  51.609  1.00  0.00    -0.340 N 
HETATM   20  H13 UNL     1      20.218   1.408  50.995  1.00  0.00     0.167 HD
BRANCH  19  21
HETATM   21  C13 UNL     1      21.066   0.693  52.549  1.00  0.00     0.035 A 
HETATM   22  C14 UNL     1      22.117   0.376  53.369  1.00  0.00     0.029 A 
HETATM   23  C15 UNL     1      22.136  -0.654  54.288  1.00  0.00     0.004 A 
HETATM   24  C16 UNL     1      21.014  -1.444  54.405  1.00  0.00     0.024 A 
HETATM   25  C17 UNL     1      19.916  -1.177  53.603  1.00  0.00     0.036 A 
HETATM   26 CL1  UNL     1      18.491  -2.190  53.776  1.00  0.00    -0.084 Cl
HETATM   27  C18 UNL     1      19.962  -0.120  52.696  1.00  0.00     0.053 A 
ENDBRANCH  19  21
ENDBRANCH   5  19
TORSDOF 8
ENDMDL
MODEL 8
REMARK VINA RESULT:      -6.8      2.970      7.365
REMARK  8 active torsions:
REMARK  status: ('A' for Active; 'I' for Inactive)
REMARK    1  A    between atoms: O1_1  and  C1_2 
REMARK    2  A    between atoms: C1_2  and  C2_3 
REMARK    3  A    between atoms: C2_3  and  C3_4 
REMARK    4  A    between atoms: C3_4  and  N1_5 
REMARK    5  A    between atoms: N1_5  and  C4_6 
REMARK    6  A    between atoms: C8_10  and  C9_11 
REMARK    7  A    between atoms: C12_15  and  N3_16 
REMARK    8  A    between atoms: N3_16  and  C13_17 
ROOT
HETATM    1  C9  UNL     1      24.429   1.154  52.709  1.00  0.00     0.089 A 
HETATM    2  C10 UNL     1      25.598   1.133  53.438  1.00  0.00     0.148 A 
HETATM    3  N2  UNL     1      26.707   1.752  53.017  1.00  0.00    -0.267 NA
HETATM    4  C11 UNL     1      26.719   2.422  51.855  1.00  0.00     0.166 A 
HETATM    5  C12 UNL     1      25.566   2.458  51.107  1.00  0.00     0.146 A 
HETATM    6  N4  UNL     1      24.442   1.822  51.551  1.00  0.00    -0.228 NA
ENDROOT
BRANCH   1   7
HETATM    7  C8  UNL     1      23.267   0.403  53.252  1.00  0.00     0.021 C 
HETATM    8  C4  UNL     1      21.816   0.488  52.975  1.00  0.00     0.052 C 
HETATM    9  C5  UNL     1      21.633  -0.825  53.189  1.00  0.00     0.004 C 
HETATM   10  C6  UNL     1      22.082  -1.112  54.421  1.00  0.00     0.015 C 
HETATM   11  C7  UNL     1      23.445  -0.584  54.151  1.00  0.00     0.017 C 
BRANCH   8  12
HETATM   12  N1  UNL     1      21.244   1.761  52.648  1.00  0.00    -0.388 N 
HETATM   13  H8  UNL     1      21.193   2.361  53.525  1.00  0.00     0.159 HD
BRANCH  12  14
HETATM   14  C3  UNL     1      20.803   2.201  51.375  1.00  0.00     0.122 C 
BRANCH  14  15
HETATM   15  C2  UNL     1      20.539   1.201  50.314  1.00  0.00     0.045 C 
BRANCH  15  16
HETATM   16  C1  UNL     1      21.586   1.008  49.274  1.00  0.00     0.165 C 
BRANCH  16  17
HETATM   17  O1  UNL     1      22.531   2.072  49.358  1.00  0.00    -0.401 OA
HETATM   18  H1  UNL     1      22.546   2.286  50.346  1.00  0.00     0.209 HD
ENDBRANCH  16  17
ENDBRANCH  15  16
ENDBRANCH  14  15
ENDBRANCH  12  14
ENDBRANCH   8  12
ENDBRANCH   1   7
BRANCH   5  19
HETATM   19  N3  UNL     1      25.507   3.128  49.831  1.00  0.00    -0.340 N 
HETATM   20  H13 UNL     1      25.020   2.914  48.931  1.00  0.00     0.167 HD
BRANCH  19  21
HETATM   21  C13 UNL     1      26.143   4.358  49.475  1.00  0.00     0.035 A 
HETATM   22  C14 UNL     1      27.307   4.526  48.772  1.00  0.00     0.029 A 
HETATM   23  C15 UNL     1      27.866   5.738  48.421  1.00  0.00     0.004 A 
HETATM   24  C16 UNL     1      27.216   6.891  48.804  1.00  0.00     0.024 A 
HETATM   25  C17 UNL     1      26.034   6.791  49.520  1.00  0.00     0.036 A 
HETATM   26 CL1  UNL     1      25.216   8.273  49.988  1.00  0.00    -0.084 Cl
HETATM   27  C18 UNL     1      25.523   5.534  49.840  1.00  0.00     0.053 A 
ENDBRANCH  19  21
ENDBRANCH   5  19
TORSDOF 8
ENDMDL
MODEL 9
REMARK VINA RESULT:      -6.6      6.684     10.336
REMARK  8 active torsions:
REMARK  status: ('A' for Active; 'I' for Inactive)
REMARK    1  A    between atoms: O1_1  and  C1_2 
REMARK    2  A    between atoms: C1_2  and  C2_3 
REMARK    3  A    between atoms: C2_3  and  C3_4 
REMARK    4  A    between atoms: C3_4  and  N1_5 
REMARK    5  A    between atoms: N1_5  and  C4_6 
REMARK    6  A    between atoms: C8_10  and  C9_11 
REMARK    7  A    between atoms: C12_15  and  N3_16 
REMARK    8  A    between atoms: N3_16  and  C13_17 
ROOT
HETATM    1  C9  UNL     1      29.953   8.005  48.512  1.00  0.00     0.089 A 
HETATM    2  C10 UNL     1      30.874   8.655  49.304  1.00  0.00     0.148 A 
HETATM    3  N2  UNL     1      32.054   8.105  49.614  1.00  0.00    -0.267 NA
HETATM    4  C11 UNL     1      32.384   6.887  49.160  1.00  0.00     0.166 A 
HETATM    5  C12 UNL     1      31.482   6.216  48.368  1.00  0.00     0.146 A 
HETATM    6  N4  UNL     1      30.282   6.792  48.059  1.00  0.00    -0.228 NA
ENDROOT
BRANCH   1   7
HETATM    7  C8  UNL     1      28.658   8.692  48.259  1.00  0.00     0.021 C 
HETATM    8  C4  UNL     1      27.438   8.839  49.083  1.00  0.00     0.052 C 
HETATM    9  C5  UNL     1      27.164  10.052  48.574  1.00  0.00     0.004 C 
HETATM   10  C6  UNL     1      27.083   9.934  47.239  1.00  0.00     0.015 C 
HETATM   11  C7  UNL     1      28.449   9.363  47.110  1.00  0.00     0.017 C 
BRANCH   8  12
HETATM   12  N1  UNL     1      27.063   7.776  49.967  1.00  0.00    -0.388 N 
HETATM   13  H8  UNL     1      27.696   7.787  50.822  1.00  0.00     0.159 HD
BRANCH  12  14
HETATM   14  C3  UNL     1      26.020   6.834  49.780  1.00  0.00     0.122 C 
BRANCH  14  15
HETATM   15  C2  UNL     1      26.129   5.838  48.690  1.00  0.00     0.045 C 
BRANCH  15  16
HETATM   16  C1  UNL     1      26.977   4.639  48.935  1.00  0.00     0.165 C 
BRANCH  16  17
HETATM   17  O1  UNL     1      28.292   5.060  49.289  1.00  0.00    -0.401 OA
HETATM   18  H1  UNL     1      28.798   4.188  49.361  1.00  0.00     0.209 HD
ENDBRANCH  16  17
ENDBRANCH  15  16
ENDBRANCH  14  15
ENDBRANCH  12  14
ENDBRANCH   8  12
ENDBRANCH   1   7
BRANCH   5  19
HETATM   19  N3  UNL     1      31.747   4.890  47.867  1.00  0.00    -0.340 N 
HETATM   20  H13 UNL     1      31.218   3.989  47.910  1.00  0.00     0.167 HD
BRANCH  19  21
HETATM   21  C13 UNL     1      32.888   4.466  47.118  1.00  0.00     0.035 A 
HETATM   22  C14 UNL     1      33.946   3.713  47.556  1.00  0.00     0.029 A 
HETATM   23  C15 UNL     1      35.011   3.298  46.784  1.00  0.00     0.004 A 
HETATM   24  C16 UNL     1      35.035   3.662  45.456  1.00  0.00     0.024 A 
HETATM   25  C17 UNL     1      33.995   4.425  44.949  1.00  0.00     0.036 A 
HETATM   26 CL1  UNL     1      34.039   4.871  43.250  1.00  0.00    -0.084 Cl
HETATM   27  C18 UNL     1      32.948   4.810  45.784  1.00  0.00     0.053 A 
ENDBRANCH  19  21
ENDBRANCH   5  19
TORSDOF 8
ENDMDL
