MODEL 1
REMARK VINA RESULT:      -9.0      0.000      0.000
REMARK  1 active torsions:
REMARK  status: ('A' for Active; 'I' for Inactive)
REMARK    1  A    between atoms: N4_13  and  C10_14 
ROOT
HETATM    1  C1  UNL     1      18.655  -0.510  51.946  1.00  0.00     0.018 C 
HETATM    2  C2  UNL     1      19.490   0.013  53.111  1.00  0.00     0.029 C 
HETATM    3  C3  UNL     1      19.979  -1.172  53.847  1.00  0.00    -0.020 C 
HETATM    4  C4  UNL     1      21.252  -1.162  54.217  1.00  0.00     0.001 C 
HETATM    5  C5  UNL     1      22.288  -0.115  54.000  1.00  0.00     0.161 C 
HETATM    6  N1  UNL     1      23.552  -0.805  53.706  1.00  0.00    -0.383 N 
HETATM    7  C6  UNL     1      24.755  -0.242  53.235  1.00  0.00     0.120 C 
HETATM    8  C7  UNL     1      24.945   0.852  52.517  1.00  0.00     0.127 A 
HETATM    9  C8  UNL     1      23.972   1.800  51.995  1.00  0.00     0.201 A 
HETATM   10  N2  UNL     1      24.412   2.792  51.296  1.00  0.00    -0.214 NA
HETATM   11  C9  UNL     1      25.797   2.922  51.065  1.00  0.00     0.258 A 
HETATM   12  N3  UNL     1      26.698   2.092  51.518  1.00  0.00    -0.160 NA
HETATM   13  N4  UNL     1      26.343   0.963  52.300  1.00  0.00    -0.227 N 
HETATM   14  O1  UNL     1      22.599   1.724  52.189  1.00  0.00    -0.292 OA
HETATM   15  C16 UNL     1      21.874   0.807  52.938  1.00  0.00     0.079 C 
HETATM   16  C17 UNL     1      20.583   0.833  52.562  1.00  0.00     0.017 C 
HETATM   17  H8  UNL     1      23.562  -1.858  53.866  1.00  0.00     0.160 HD
ENDROOT
BRANCH  13  18
HETATM   18  C10 UNL     1      27.409   0.157  52.719  1.00  0.00     0.059 A 
HETATM   19  C11 UNL     1      28.412   0.957  53.285  1.00  0.00     0.031 A 
HETATM   20  C12 UNL     1      29.588   0.423  53.810  1.00  0.00     0.002 A 
HETATM   21  C13 UNL     1      29.799  -0.940  53.786  1.00  0.00     0.000 A 
HETATM   22  C14 UNL     1      28.822  -1.734  53.234  1.00  0.00     0.002 A 
HETATM   23  C15 UNL     1      27.656  -1.222  52.711  1.00  0.00     0.031 A 
ENDBRANCH  13  18
TORSDOF 1
ENDMDL
MODEL 2
REMARK VINA RESULT:      -9.0      2.264      5.082
REMARK  1 active torsions:
REMARK  status: ('A' for Active; 'I' for Inactive)
REMARK    1  A    between atoms: N4_13  and  C10_14 
ROOT
HETATM    1  C1  UNL     1      23.472   7.115  49.641  1.00  0.00     0.018 C 
HETATM    2  C2  UNL     1      24.042   5.867  48.972  1.00  0.00     0.029 C 
HETATM    3  C3  UNL     1      25.503   6.068  48.877  1.00  0.00    -0.020 C 
HETATM    4  C4  UNL     1      26.270   5.039  49.209  1.00  0.00     0.001 C 
HETATM    5  C5  UNL     1      25.875   3.680  49.673  1.00  0.00     0.161 C 
HETATM    6  N1  UNL     1      26.832   3.279  50.714  1.00  0.00    -0.383 N 
HETATM    7  C6  UNL     1      26.750   2.173  51.584  1.00  0.00     0.120 C 
HETATM    8  C7  UNL     1      25.682   1.533  52.027  1.00  0.00     0.127 A 
HETATM    9  C8  UNL     1      24.273   1.777  51.755  1.00  0.00     0.201 A 
HETATM   10  N2  UNL     1      23.407   1.014  52.332  1.00  0.00    -0.214 NA
HETATM   11  C9  UNL     1      23.845  -0.013  53.193  1.00  0.00     0.258 A 
HETATM   12  N3  UNL     1      25.099  -0.261  53.460  1.00  0.00    -0.160 NA
HETATM   13  N4  UNL     1      26.147   0.505  52.889  1.00  0.00    -0.227 N 
HETATM   14  O1  UNL     1      23.782   2.770  50.918  1.00  0.00    -0.292 OA
HETATM   15  C16 UNL     1      24.485   3.679  50.138  1.00  0.00     0.079 C 
HETATM   16  C17 UNL     1      23.679   4.699  49.794  1.00  0.00     0.017 C 
HETATM   17  H8  UNL     1      27.693   3.896  50.826  1.00  0.00     0.160 HD
ENDROOT
BRANCH  13  18
HETATM   18  C10 UNL     1      27.444   0.131  53.262  1.00  0.00     0.059 A 
HETATM   19  C11 UNL     1      27.687  -1.191  52.862  1.00  0.00     0.031 A 
HETATM   20  C12 UNL     1      28.909  -1.827  53.083  1.00  0.00     0.002 A 
HETATM   21  C13 UNL     1      29.933  -1.155  53.715  1.00  0.00     0.000 A 
HETATM   22  C14 UNL     1      29.706   0.142  54.111  1.00  0.00     0.002 A 
HETATM   23  C15 UNL     1      28.506   0.784  53.900  1.00  0.00     0.031 A 
ENDBRANCH  13  18
TORSDOF 1
ENDMDL
MODEL 3
REMARK VINA RESULT:      -8.7      1.929      7.152
REMARK  1 active torsions:
REMARK  status: ('A' for Active; 'I' for Inactive)
REMARK    1  A    between atoms: N4_13  and  C10_14 
ROOT
HETATM    1  C1  UNL     1      29.793  -0.577  53.810  1.00  0.00     0.018 C 
HETATM    2  C2  UNL     1      28.879   0.477  54.428  1.00  0.00     0.029 C 
HETATM    3  C3  UNL     1      28.806   1.594  53.463  1.00  0.00    -0.020 C 
HETATM    4  C4  UNL     1      27.607   2.110  53.235  1.00  0.00     0.001 C 
HETATM    5  C5  UNL     1      26.291   1.728  53.817  1.00  0.00     0.161 C 
HETATM    6  N1  UNL     1      25.293   1.826  52.743  1.00  0.00    -0.383 N 
HETATM    7  C6  UNL     1      23.959   1.373  52.759  1.00  0.00     0.120 C 
HETATM    8  C7  UNL     1      23.415   0.390  53.457  1.00  0.00     0.127 A 
HETATM    9  C8  UNL     1      24.028  -0.518  54.415  1.00  0.00     0.201 A 
HETATM   10  N2  UNL     1      23.278  -1.417  54.958  1.00  0.00    -0.214 NA
HETATM   11  C9  UNL     1      21.913  -1.490  54.610  1.00  0.00     0.258 A 
HETATM   12  N3  UNL     1      21.330  -0.693  53.757  1.00  0.00    -0.160 NA
HETATM   13  N4  UNL     1      22.043   0.338  53.093  1.00  0.00    -0.227 N 
HETATM   14  O1  UNL     1      25.363  -0.495  54.796  1.00  0.00    -0.292 OA
HETATM   15  C16 UNL     1      26.362   0.392  54.418  1.00  0.00     0.079 C 
HETATM   16  C17 UNL     1      27.567  -0.143  54.681  1.00  0.00     0.017 C 
HETATM   17  H8  UNL     1      25.614   2.296  51.843  1.00  0.00     0.160 HD
ENDROOT
BRANCH  13  18
HETATM   18  C10 UNL     1      21.295   1.119  52.204  1.00  0.00     0.059 A 
HETATM   19  C11 UNL     1      21.175   0.452  50.976  1.00  0.00     0.031 A 
HETATM   20  C12 UNL     1      20.461   0.983  49.902  1.00  0.00     0.002 A 
HETATM   21  C13 UNL     1      19.840   2.208  50.024  1.00  0.00     0.000 A 
HETATM   22  C14 UNL     1      19.950   2.871  51.224  1.00  0.00     0.002 A 
HETATM   23  C15 UNL     1      20.651   2.360  52.293  1.00  0.00     0.031 A 
ENDBRANCH  13  18
TORSDOF 1
ENDMDL
MODEL 4
REMARK VINA RESULT:      -8.4      1.668      6.758
REMARK  1 active torsions:
REMARK  status: ('A' for Active; 'I' for Inactive)
REMARK    1  A    between atoms: N4_13  and  C10_14 
ROOT
HETATM    1  C1  UNL     1      29.390   1.350  54.578  1.00  0.00     0.018 C 
HETATM    2  C2  UNL     1      28.695   0.924  53.288  1.00  0.00     0.029 C 
HETATM    3  C3  UNL     1      28.233  -0.464  53.494  1.00  0.00    -0.020 C 
HETATM    4  C4  UNL     1      27.005  -0.751  53.088  1.00  0.00     0.001 C 
HETATM    5  C5  UNL     1      25.995   0.131  52.441  1.00  0.00     0.161 C 
HETATM    6  N1  UNL     1      24.682  -0.228  52.994  1.00  0.00    -0.383 N 
HETATM    7  C6  UNL     1      23.462   0.461  52.842  1.00  0.00     0.120 C 
HETATM    8  C7  UNL     1      23.247   1.746  52.616  1.00  0.00     0.127 A 
HETATM    9  C8  UNL     1      24.202   2.834  52.460  1.00  0.00     0.201 A 
HETATM   10  N2  UNL     1      23.735   4.021  52.264  1.00  0.00    -0.214 NA
HETATM   11  C9  UNL     1      22.341   4.223  52.208  1.00  0.00     0.258 A 
HETATM   12  N3  UNL     1      21.456   3.272  52.342  1.00  0.00    -0.160 NA
HETATM   13  N4  UNL     1      21.839   1.923  52.561  1.00  0.00    -0.227 N 
HETATM   14  O1  UNL     1      25.582   2.698  52.506  1.00  0.00    -0.292 OA
HETATM   15  C16 UNL     1      26.340   1.542  52.644  1.00  0.00     0.079 C 
HETATM   16  C17 UNL     1      27.588   1.861  53.032  1.00  0.00     0.017 C 
HETATM   17  H8  UNL     1      24.645  -1.115  53.582  1.00  0.00     0.160 HD
ENDROOT
BRANCH  13  18
HETATM   18  C10 UNL     1      20.789   1.007  52.688  1.00  0.00     0.059 A 
HETATM   19  C11 UNL     1      20.005   1.023  51.525  1.00  0.00     0.031 A 
HETATM   20  C12 UNL     1      18.897   0.194  51.358  1.00  0.00     0.002 A 
HETATM   21  C13 UNL     1      18.535  -0.685  52.357  1.00  0.00     0.000 A 
HETATM   22  C14 UNL     1      19.296  -0.710  53.501  1.00  0.00     0.002 A 
HETATM   23  C15 UNL     1      20.393   0.102  53.682  1.00  0.00     0.031 A 
ENDBRANCH  13  18
TORSDOF 1
ENDMDL
MODEL 5
REMARK VINA RESULT:      -8.3      1.914      3.586
REMARK  1 active torsions:
REMARK  status: ('A' for Active; 'I' for Inactive)
REMARK    1  A    between atoms: N4_13  and  C10_14 
ROOT
HETATM    1  C1  UNL     1      20.034   4.571  51.172  1.00  0.00     0.018 C 
HETATM    2  C2  UNL     1      20.572   3.282  50.556  1.00  0.00     0.029 C 
HETATM    3  C3  UNL     1      21.787   3.650  49.799  1.00  0.00    -0.020 C 
HETATM    4  C4  UNL     1      22.841   2.859  49.940  1.00  0.00     0.001 C 
HETATM    5  C5  UNL     1      22.992   1.628  50.764  1.00  0.00     0.161 C 
HETATM    6  N1  UNL     1      24.346   1.648  51.336  1.00  0.00    -0.383 N 
HETATM    7  C6  UNL     1      24.874   0.807  52.337  1.00  0.00     0.120 C 
HETATM    8  C7  UNL     1      24.249   0.164  53.308  1.00  0.00     0.127 A 
HETATM    9  C8  UNL     1      22.832   0.133  53.638  1.00  0.00     0.201 A 
HETATM   10  N2  UNL     1      22.467  -0.564  54.662  1.00  0.00    -0.214 NA
HETATM   11  C9  UNL     1      23.436  -1.260  55.413  1.00  0.00     0.258 A 
HETATM   12  N3  UNL     1      24.714  -1.255  55.146  1.00  0.00    -0.160 NA
HETATM   13  N4  UNL     1      25.243  -0.529  54.048  1.00  0.00    -0.227 N 
HETATM   14  O1  UNL     1      21.833   0.796  52.938  1.00  0.00    -0.292 OA
HETATM   15  C16 UNL     1      21.938   1.557  51.781  1.00  0.00     0.079 C 
HETATM   16  C17 UNL     1      20.847   2.331  51.647  1.00  0.00     0.017 C 
HETATM   17  H8  UNL     1      25.010   2.385  50.950  1.00  0.00     0.160 HD
ENDROOT
BRANCH  13  18
HETATM   18  C10 UNL     1      26.630  -0.610  53.877  1.00  0.00     0.059 A 
HETATM   19  C11 UNL     1      27.268   0.246  54.786  1.00  0.00     0.031 A 
HETATM   20  C12 UNL     1      28.657   0.357  54.861  1.00  0.00     0.002 A 
HETATM   21  C13 UNL     1      29.456  -0.390  54.022  1.00  0.00     0.000 A 
HETATM   22  C14 UNL     1      28.840  -1.233  53.126  1.00  0.00     0.002 A 
HETATM   23  C15 UNL     1      27.472  -1.354  53.040  1.00  0.00     0.031 A 
ENDBRANCH  13  18
TORSDOF 1
ENDMDL
MODEL 6
REMARK VINA RESULT:      -8.2      3.039      6.190
REMARK  1 active torsions:
REMARK  status: ('A' for Active; 'I' for Inactive)
REMARK    1  A    between atoms: N4_13  and  C10_14 
ROOT
HETATM    1  C1  UNL     1      25.065   8.770  48.685  1.00  0.00     0.018 C 
HETATM    2  C2  UNL     1      25.452   7.435  48.055  1.00  0.00     0.029 C 
HETATM    3  C3  UNL     1      26.877   7.212  48.376  1.00  0.00    -0.020 C 
HETATM    4  C4  UNL     1      27.216   5.997  48.780  1.00  0.00     0.001 C 
HETATM    5  C5  UNL     1      26.360   4.792  48.966  1.00  0.00     0.161 C 
HETATM    6  N1  UNL     1      26.836   4.099  50.171  1.00  0.00    -0.383 N 
HETATM    7  C6  UNL     1      26.218   3.034  50.857  1.00  0.00     0.120 C 
HETATM    8  C7  UNL     1      24.938   2.711  50.924  1.00  0.00     0.127 A 
HETATM    9  C8  UNL     1      23.784   3.356  50.316  1.00  0.00     0.201 A 
HETATM   10  N2  UNL     1      22.619   2.854  50.552  1.00  0.00    -0.214 NA
HETATM   11  C9  UNL     1      22.503   1.716  51.376  1.00  0.00     0.258 A 
HETATM   12  N3  UNL     1      23.515   1.111  51.937  1.00  0.00    -0.160 NA
HETATM   13  N4  UNL     1      24.847   1.564  51.756  1.00  0.00    -0.227 N 
HETATM   14  O1  UNL     1      23.835   4.476  49.497  1.00  0.00    -0.292 OA
HETATM   15  C16 UNL     1      24.946   5.173  49.041  1.00  0.00     0.079 C 
HETATM   16  C17 UNL     1      24.573   6.392  48.613  1.00  0.00     0.017 C 
HETATM   17  H8  UNL     1      27.759   4.441  50.577  1.00  0.00     0.160 HD
ENDROOT
BRANCH  13  18
HETATM   18  C10 UNL     1      25.835   0.822  52.415  1.00  0.00     0.059 A 
HETATM   19  C11 UNL     1      25.869   1.181  53.771  1.00  0.00     0.031 A 
HETATM   20  C12 UNL     1      26.744   0.587  54.680  1.00  0.00     0.002 A 
HETATM   21  C13 UNL     1      27.620  -0.390  54.258  1.00  0.00     0.000 A 
HETATM   22  C14 UNL     1      27.596  -0.750  52.932  1.00  0.00     0.002 A 
HETATM   23  C15 UNL     1      26.738  -0.174  52.021  1.00  0.00     0.031 A 
ENDBRANCH  13  18
TORSDOF 1
ENDMDL
MODEL 7
REMARK VINA RESULT:      -7.6      7.084      9.908
REMARK  1 active torsions:
REMARK  status: ('A' for Active; 'I' for Inactive)
REMARK    1  A    between atoms: N4_13  and  C10_14 
ROOT
HETATM    1  C1  UNL     1      25.056   3.293  50.810  1.00  0.00     0.018 C 
HETATM    2  C2  UNL     1      25.220   4.010  49.473  1.00  0.00     0.029 C 
HETATM    3  C3  UNL     1      24.614   5.348  49.633  1.00  0.00    -0.020 C 
HETATM    4  C4  UNL     1      25.296   6.375  49.146  1.00  0.00     0.001 C 
HETATM    5  C5  UNL     1      26.610   6.387  48.446  1.00  0.00     0.161 C 
HETATM    6  N1  UNL     1      27.342   7.574  48.910  1.00  0.00    -0.383 N 
HETATM    7  C6  UNL     1      28.696   7.896  48.688  1.00  0.00     0.120 C 
HETATM    8  C7  UNL     1      29.723   7.094  48.464  1.00  0.00     0.127 A 
HETATM    9  C8  UNL     1      29.767   5.642  48.382  1.00  0.00     0.201 A 
HETATM   10  N2  UNL     1      30.912   5.084  48.170  1.00  0.00    -0.214 NA
HETATM   11  C9  UNL     1      32.062   5.886  48.027  1.00  0.00     0.258 A 
HETATM   12  N3  UNL     1      32.061   7.190  48.093  1.00  0.00    -0.160 NA
HETATM   13  N4  UNL     1      30.868   7.923  48.321  1.00  0.00    -0.227 N 
HETATM   14  O1  UNL     1      28.670   4.801  48.514  1.00  0.00    -0.292 OA
HETATM   15  C16 UNL     1      27.332   5.134  48.687  1.00  0.00     0.079 C 
HETATM   16  C17 UNL     1      26.658   4.070  49.157  1.00  0.00     0.017 C 
HETATM   17  H8  UNL     1      26.785   8.276  49.484  1.00  0.00     0.160 HD
ENDROOT
BRANCH  13  18
HETATM   18  C10 UNL     1      31.010   9.315  48.369  1.00  0.00     0.059 A 
HETATM   19  C11 UNL     1      31.720   9.756  47.243  1.00  0.00     0.031 A 
HETATM   20  C12 UNL     1      31.995  11.104  47.013  1.00  0.00     0.002 A 
HETATM   21  C13 UNL     1      31.565  12.059  47.909  1.00  0.00     0.000 A 
HETATM   22  C14 UNL     1      30.867  11.638  49.016  1.00  0.00     0.002 A 
HETATM   23  C15 UNL     1      30.588  10.312  49.259  1.00  0.00     0.031 A 
ENDBRANCH  13  18
TORSDOF 1
ENDMDL
MODEL 8
REMARK VINA RESULT:      -7.5      2.836      6.176
REMARK  1 active torsions:
REMARK  status: ('A' for Active; 'I' for Inactive)
REMARK    1  A    between atoms: N4_13  and  C10_14 
ROOT
HETATM    1  C1  UNL     1      24.312   7.218  47.541  1.00  0.00     0.018 C 
HETATM    2  C2  UNL     1      24.393   7.198  49.065  1.00  0.00     0.029 C 
HETATM    3  C3  UNL     1      23.001   7.195  49.562  1.00  0.00    -0.020 C 
HETATM    4  C4  UNL     1      22.721   6.356  50.549  1.00  0.00     0.001 C 
HETATM    5  C5  UNL     1      23.615   5.394  51.251  1.00  0.00     0.161 C 
HETATM    6  N1  UNL     1      22.833   4.177  51.506  1.00  0.00    -0.383 N 
HETATM    7  C6  UNL     1      23.302   2.926  51.957  1.00  0.00     0.120 C 
HETATM    8  C7  UNL     1      24.497   2.379  51.817  1.00  0.00     0.127 A 
HETATM    9  C8  UNL     1      25.684   2.898  51.154  1.00  0.00     0.201 A 
HETATM   10  N2  UNL     1      26.738   2.153  51.136  1.00  0.00    -0.214 NA
HETATM   11  C9  UNL     1      26.706   0.883  51.747  1.00  0.00     0.258 A 
HETATM   12  N3  UNL     1      25.660   0.385  52.351  1.00  0.00    -0.160 NA
HETATM   13  N4  UNL     1      24.440   1.105  52.441  1.00  0.00    -0.227 N 
HETATM   14  O1  UNL     1      25.776   4.137  50.536  1.00  0.00    -0.292 OA
HETATM   15  C16 UNL     1      24.825   5.147  50.460  1.00  0.00     0.079 C 
HETATM   16  C17 UNL     1      25.144   5.997  49.469  1.00  0.00     0.017 C 
HETATM   17  H8  UNL     1      21.785   4.244  51.329  1.00  0.00     0.160 HD
ENDROOT
BRANCH  13  18
HETATM   18  C10 UNL     1      23.400   0.453  53.115  1.00  0.00     0.059 A 
HETATM   19  C11 UNL     1      23.934  -0.445  54.050  1.00  0.00     0.031 A 
HETATM   20  C12 UNL     1      23.130  -1.222  54.885  1.00  0.00     0.002 A 
HETATM   21  C13 UNL     1      21.757  -1.122  54.809  1.00  0.00     0.000 A 
HETATM   22  C14 UNL     1      21.223  -0.244  53.896  1.00  0.00     0.002 A 
HETATM   23  C15 UNL     1      22.002   0.529  53.065  1.00  0.00     0.031 A 
ENDBRANCH  13  18
TORSDOF 1
ENDMDL
MODEL 9
REMARK VINA RESULT:      -7.3      3.461      6.763
REMARK  1 active torsions:
REMARK  status: ('A' for Active; 'I' for Inactive)
REMARK    1  A    between atoms: N4_13  and  C10_14 
ROOT
HETATM    1  C1  UNL     1      25.619   7.595  49.091  1.00  0.00     0.018 C 
HETATM    2  C2  UNL     1      25.240   6.228  48.529  1.00  0.00     0.029 C 
HETATM    3  C3  UNL     1      26.300   5.288  48.950  1.00  0.00    -0.020 C 
HETATM    4  C4  UNL     1      25.904   4.111  49.413  1.00  0.00     0.001 C 
HETATM    5  C5  UNL     1      24.524   3.578  49.577  1.00  0.00     0.161 C 
HETATM    6  N1  UNL     1      24.497   2.813  50.832  1.00  0.00    -0.383 N 
HETATM    7  C6  UNL     1      23.372   2.298  51.506  1.00  0.00     0.120 C 
HETATM    8  C7  UNL     1      22.121   2.727  51.499  1.00  0.00     0.127 A 
HETATM    9  C8  UNL     1      21.531   3.856  50.796  1.00  0.00     0.201 A 
HETATM   10  N2  UNL     1      20.271   4.082  50.968  1.00  0.00    -0.214 NA
HETATM   11  C9  UNL     1      19.522   3.242  51.817  1.00  0.00     0.258 A 
HETATM   12  N3  UNL     1      20.017   2.220  52.463  1.00  0.00    -0.160 NA
HETATM   13  N4  UNL     1      21.387   1.866  52.357  1.00  0.00    -0.227 N 
HETATM   14  O1  UNL     1      22.216   4.716  49.949  1.00  0.00    -0.292 OA
HETATM   15  C16 UNL     1      23.545   4.669  49.546  1.00  0.00     0.079 C 
HETATM   16  C17 UNL     1      23.914   5.866  49.058  1.00  0.00     0.017 C 
HETATM   17  H8  UNL     1      25.440   2.623  51.288  1.00  0.00     0.160 HD
ENDROOT
BRANCH  13  18
HETATM   18  C10 UNL     1      21.784   0.749  53.103  1.00  0.00     0.059 A 
HETATM   19  C11 UNL     1      20.661  -0.027  53.423  1.00  0.00     0.031 A 
HETATM   20  C12 UNL     1      20.756  -1.217  54.145  1.00  0.00     0.002 A 
HETATM   21  C13 UNL     1      21.986  -1.669  54.573  1.00  0.00     0.000 A 
HETATM   22  C14 UNL     1      23.094  -0.915  54.264  1.00  0.00     0.002 A 
HETATM   23  C15 UNL     1      23.017   0.261  53.552  1.00  0.00     0.031 A 
ENDBRANCH  13  18
TORSDOF 1
ENDMDL
