MODEL 1
REMARK VINA RESULT:      -8.8      0.000      0.000
REMARK  5 active torsions:
REMARK  status: ('A' for Active; 'I' for Inactive)
REMARK    1  A    between atoms: O1_2  and  C2_3 
REMARK    2  A    between atoms: C6_8  and  C7_9 
REMARK    3  A    between atoms: C17_21  and  C18_22 
REMARK    4  A    between atoms: C18_22  and  C19_23 
REMARK    5  A    between atoms: C19_23  and  O4_25 
ROOT
HETATM    1  C2  UNL     1      19.356   0.495  51.028  1.00  0.00     0.073 C 
HETATM    2  C3  UNL     1      20.503   0.993  50.596  1.00  0.00     0.018 C 
HETATM    3  C4  UNL     1      21.856   1.147  51.122  1.00  0.00     0.109 C 
HETATM    4  C5  UNL     1      22.197   0.324  52.282  1.00  0.00     0.117 A 
HETATM    5  N1  UNL     1      23.547   0.271  52.443  1.00  0.00    -0.234 NA
HETATM    6  C6  UNL     1      24.138  -0.415  53.430  1.00  0.00     0.074 A 
HETATM    7  C14 UNL     1      23.319  -1.090  54.310  1.00  0.00     0.107 A 
HETATM    8  C15 UNL     1      21.944  -1.083  54.210  1.00  0.00     0.255 A 
HETATM    9  O2  UNL     1      21.180  -1.693  55.002  1.00  0.00    -0.268 OA
HETATM   10  N2  UNL     1      21.444  -0.363  53.182  1.00  0.00    -0.276 N 
HETATM   11  C16 UNL     1      20.025  -0.464  53.229  1.00  0.00     0.112 C 
HETATM   12  C17 UNL     1      19.135  -0.102  52.319  1.00  0.00     0.001 C 
ENDROOT
BRANCH   6  13
HETATM   13  C7  UNL     1      25.591  -0.418  53.526  1.00  0.00    -0.007 A 
HETATM   14  C8  UNL     1      26.205   0.393  54.444  1.00  0.00     0.014 A 
HETATM   15  C9  UNL     1      27.572   0.434  54.580  1.00  0.00     0.007 A 
HETATM   16  C10 UNL     1      28.406  -0.351  53.789  1.00  0.00    -0.062 A 
HETATM   17  C11 UNL     1      29.885  -0.396  53.839  1.00  0.00     0.048 C 
HETATM   18  C12 UNL     1      27.798  -1.175  52.858  1.00  0.00     0.007 A 
HETATM   19  C13 UNL     1      26.421  -1.183  52.757  1.00  0.00     0.014 A 
ENDBRANCH   6  13
BRANCH   1  20
HETATM   20  O1  UNL     1      18.238   0.519  50.229  1.00  0.00    -0.356 OA
HETATM   21  C1  UNL     1      17.705   1.634  49.577  1.00  0.00     0.210 C 
ENDBRANCH   1  20
BRANCH  12  22
HETATM   22  C18 UNL     1      17.689  -0.342  52.668  1.00  0.00     0.152 C 
BRANCH  22  23
HETATM   23  C19 UNL     1      17.446  -1.690  53.190  1.00  0.00     0.143 C 
HETATM   24  O3  UNL     1      16.447  -2.318  52.701  1.00  0.00    -0.650 OA
BRANCH  23  25
HETATM   25  O4  UNL     1      18.154  -2.387  54.148  1.00  0.00    -0.776 OA
HETATM   26  H18 UNL     1      18.085  -2.213  55.143  1.00  0.00     0.167 HD
ENDBRANCH  23  25
ENDBRANCH  22  23
ENDBRANCH  12  22
TORSDOF 5
ENDMDL
MODEL 2
REMARK VINA RESULT:      -8.6      7.170      9.658
REMARK  5 active torsions:
REMARK  status: ('A' for Active; 'I' for Inactive)
REMARK    1  A    between atoms: O1_2  and  C2_3 
REMARK    2  A    between atoms: C6_8  and  C7_9 
REMARK    3  A    between atoms: C17_21  and  C18_22 
REMARK    4  A    between atoms: C18_22  and  C19_23 
REMARK    5  A    between atoms: C19_23  and  O4_25 
ROOT
HETATM    1  C2  UNL     1      27.445   6.229  48.477  1.00  0.00     0.073 C 
HETATM    2  C3  UNL     1      27.446   4.933  48.741  1.00  0.00     0.018 C 
HETATM    3  C4  UNL     1      26.764   4.041  49.674  1.00  0.00     0.109 C 
HETATM    4  C5  UNL     1      25.558   4.570  50.310  1.00  0.00     0.117 A 
HETATM    5  N1  UNL     1      24.823   3.557  50.844  1.00  0.00    -0.234 NA
HETATM    6  C6  UNL     1      23.666   3.757  51.489  1.00  0.00     0.074 A 
HETATM    7  C14 UNL     1      23.220   5.057  51.604  1.00  0.00     0.107 A 
HETATM    8  C15 UNL     1      23.911   6.134  51.087  1.00  0.00     0.255 A 
HETATM    9  O2  UNL     1      23.521   7.327  51.181  1.00  0.00    -0.268 OA
HETATM   10  N2  UNL     1      25.066   5.830  50.456  1.00  0.00    -0.276 N 
HETATM   11  C16 UNL     1      25.641   7.045  49.991  1.00  0.00     0.112 C 
HETATM   12  C17 UNL     1      26.650   7.221  49.152  1.00  0.00     0.001 C 
ENDROOT
BRANCH   6  13
HETATM   13  C7  UNL     1      22.944   2.614  52.029  1.00  0.00    -0.007 A 
HETATM   14  C8  UNL     1      23.628   1.464  52.320  1.00  0.00     0.014 A 
HETATM   15  C9  UNL     1      23.001   0.352  52.831  1.00  0.00     0.007 A 
HETATM   16  C10 UNL     1      21.631   0.340  53.079  1.00  0.00    -0.062 A 
HETATM   17  C11 UNL     1      20.844  -0.790  53.624  1.00  0.00     0.048 C 
HETATM   18  C12 UNL     1      20.928   1.495  52.789  1.00  0.00     0.007 A 
HETATM   19  C13 UNL     1      21.601   2.588  52.278  1.00  0.00     0.014 A 
ENDBRANCH   6  13
BRANCH   1  20
HETATM   20  O1  UNL     1      28.249   6.743  47.487  1.00  0.00    -0.356 OA
HETATM   21  C1  UNL     1      29.642   6.661  47.421  1.00  0.00     0.210 C 
ENDBRANCH   1  20
BRANCH  12  22
HETATM   22  C18 UNL     1      27.027   8.649  48.854  1.00  0.00     0.152 C 
BRANCH  22  23
HETATM   23  C19 UNL     1      27.888   9.237  49.884  1.00  0.00     0.143 C 
HETATM   24  O3  UNL     1      29.114   9.413  49.569  1.00  0.00    -0.650 OA
BRANCH  23  25
HETATM   25  O4  UNL     1      27.558   9.635  51.164  1.00  0.00    -0.776 OA
HETATM   26  H18 UNL     1      28.157   9.508  51.970  1.00  0.00     0.167 HD
ENDBRANCH  23  25
ENDBRANCH  22  23
ENDBRANCH  12  22
TORSDOF 5
ENDMDL
MODEL 3
REMARK VINA RESULT:      -8.6      4.325      6.215
REMARK  5 active torsions:
REMARK  status: ('A' for Active; 'I' for Inactive)
REMARK    1  A    between atoms: O1_2  and  C2_3 
REMARK    2  A    between atoms: C6_8  and  C7_9 
REMARK    3  A    between atoms: C17_21  and  C18_22 
REMARK    4  A    between atoms: C18_22  and  C19_23 
REMARK    5  A    between atoms: C19_23  and  O4_25 
ROOT
HETATM    1  C2  UNL     1      24.365  -0.500  54.014  1.00  0.00     0.073 C 
HETATM    2  C3  UNL     1      25.540   0.030  53.717  1.00  0.00     0.018 C 
HETATM    3  C4  UNL     1      26.092   0.850  52.643  1.00  0.00     0.109 C 
HETATM    4  C5  UNL     1      25.123   1.548  51.798  1.00  0.00     0.117 A 
HETATM    5  N1  UNL     1      25.734   2.543  51.101  1.00  0.00    -0.234 NA
HETATM    6  C6  UNL     1      25.082   3.344  50.248  1.00  0.00     0.074 A 
HETATM    7  C14 UNL     1      23.729   3.130  50.087  1.00  0.00     0.107 A 
HETATM    8  C15 UNL     1      23.042   2.141  50.760  1.00  0.00     0.255 A 
HETATM    9  O2  UNL     1      21.809   1.930  50.626  1.00  0.00    -0.268 OA
HETATM   10  N2  UNL     1      23.787   1.387  51.596  1.00  0.00    -0.276 N 
HETATM   11  C16 UNL     1      22.928   0.427  52.200  1.00  0.00     0.112 C 
HETATM   12  C17 UNL     1      23.167  -0.375  53.225  1.00  0.00     0.001 C 
ENDROOT
BRANCH   6  13
HETATM   13  C7  UNL     1      25.817   4.385  49.544  1.00  0.00    -0.007 A 
HETATM   14  C8  UNL     1      27.124   4.169  49.198  1.00  0.00     0.014 A 
HETATM   15  C9  UNL     1      27.868   5.115  48.534  1.00  0.00     0.007 A 
HETATM   16  C10 UNL     1      27.327   6.346  48.177  1.00  0.00    -0.062 A 
HETATM   17  C11 UNL     1      28.023   7.442  47.464  1.00  0.00     0.048 C 
HETATM   18  C12 UNL     1      26.007   6.578  48.520  1.00  0.00     0.007 A 
HETATM   19  C13 UNL     1      25.299   5.598  49.187  1.00  0.00     0.014 A 
ENDBRANCH   6  13
BRANCH   1  20
HETATM   20  O1  UNL     1      24.201  -1.246  55.157  1.00  0.00    -0.356 OA
HETATM   21  C1  UNL     1      24.896  -1.088  56.358  1.00  0.00     0.210 C 
ENDBRANCH   1  20
BRANCH  12  22
HETATM   22  C18 UNL     1      22.040  -1.288  53.633  1.00  0.00     0.152 C 
BRANCH  22  23
HETATM   23  C19 UNL     1      20.846  -0.560  54.070  1.00  0.00     0.143 C 
HETATM   24  O3  UNL     1      19.791  -0.722  53.368  1.00  0.00    -0.650 OA
BRANCH  23  25
HETATM   25  O4  UNL     1      20.698   0.289  55.148  1.00  0.00    -0.776 OA
HETATM   26  H18 UNL     1      20.708   1.299  55.081  1.00  0.00     0.167 HD
ENDBRANCH  23  25
ENDBRANCH  22  23
ENDBRANCH  12  22
TORSDOF 5
ENDMDL
MODEL 4
REMARK VINA RESULT:      -8.6      4.652      5.673
REMARK  5 active torsions:
REMARK  status: ('A' for Active; 'I' for Inactive)
REMARK    1  A    between atoms: O1_2  and  C2_3 
REMARK    2  A    between atoms: C6_8  and  C7_9 
REMARK    3  A    between atoms: C17_21  and  C18_22 
REMARK    4  A    between atoms: C18_22  and  C19_23 
REMARK    5  A    between atoms: C19_23  and  O4_25 
ROOT
HETATM    1  C2  UNL     1      21.305   0.651  51.913  1.00  0.00     0.073 C 
HETATM    2  C3  UNL     1      21.217   1.820  51.300  1.00  0.00     0.018 C 
HETATM    3  C4  UNL     1      22.124   2.916  50.974  1.00  0.00     0.109 C 
HETATM    4  C5  UNL     1      23.554   2.614  51.040  1.00  0.00     0.117 A 
HETATM    5  N1  UNL     1      24.268   3.561  50.372  1.00  0.00    -0.234 NA
HETATM    6  C6  UNL     1      25.603   3.532  50.273  1.00  0.00     0.074 A 
HETATM    7  C14 UNL     1      26.262   2.486  50.884  1.00  0.00     0.107 A 
HETATM    8  C15 UNL     1      25.605   1.490  51.577  1.00  0.00     0.255 A 
HETATM    9  O2  UNL     1      26.188   0.528  52.142  1.00  0.00    -0.268 OA
HETATM   10  N2  UNL     1      24.260   1.608  51.621  1.00  0.00    -0.276 N 
HETATM   11  C16 UNL     1      23.751   0.509  52.368  1.00  0.00     0.112 C 
HETATM   12  C17 UNL     1      22.500   0.098  52.496  1.00  0.00     0.001 C 
ENDROOT
BRANCH   6  13
HETATM   13  C7  UNL     1      26.286   4.586  49.538  1.00  0.00    -0.007 A 
HETATM   14  C8  UNL     1      25.677   5.804  49.388  1.00  0.00     0.014 A 
HETATM   15  C9  UNL     1      26.273   6.837  48.704  1.00  0.00     0.007 A 
HETATM   16  C10 UNL     1      27.531   6.697  48.126  1.00  0.00    -0.062 A 
HETATM   17  C11 UNL     1      28.273   7.730  47.367  1.00  0.00     0.048 C 
HETATM   18  C12 UNL     1      28.158   5.472  48.270  1.00  0.00     0.007 A 
HETATM   19  C13 UNL     1      27.521   4.463  48.966  1.00  0.00     0.014 A 
ENDBRANCH   6  13
BRANCH   1  20
HETATM   20  O1  UNL     1      20.200  -0.156  52.043  1.00  0.00    -0.356 OA
HETATM   21  C1  UNL     1      18.869   0.218  51.840  1.00  0.00     0.210 C 
ENDBRANCH   1  20
BRANCH  12  22
HETATM   22  C18 UNL     1      22.281  -1.112  53.366  1.00  0.00     0.152 C 
BRANCH  22  23
HETATM   23  C19 UNL     1      21.912  -0.765  54.741  1.00  0.00     0.143 C 
HETATM   24  O3  UNL     1      22.598  -1.311  55.670  1.00  0.00    -0.650 OA
BRANCH  23  25
HETATM   25  O4  UNL     1      20.913   0.080  55.181  1.00  0.00    -0.776 OA
HETATM   26  H18 UNL     1      20.830   1.051  54.907  1.00  0.00     0.167 HD
ENDBRANCH  23  25
ENDBRANCH  22  23
ENDBRANCH  12  22
TORSDOF 5
ENDMDL
MODEL 5
REMARK VINA RESULT:      -8.4      3.110      8.364
REMARK  5 active torsions:
REMARK  status: ('A' for Active; 'I' for Inactive)
REMARK    1  A    between atoms: O1_2  and  C2_3 
REMARK    2  A    between atoms: C6_8  and  C7_9 
REMARK    3  A    between atoms: C17_21  and  C18_22 
REMARK    4  A    between atoms: C18_22  and  C19_23 
REMARK    5  A    between atoms: C19_23  and  O4_25 
ROOT
HETATM    1  C2  UNL     1      25.902  -0.352  53.411  1.00  0.00     0.073 C 
HETATM    2  C3  UNL     1      24.906  -0.925  54.066  1.00  0.00     0.018 C 
HETATM    3  C4  UNL     1      23.453  -0.788  54.116  1.00  0.00     0.109 C 
HETATM    4  C5  UNL     1      22.831  -0.078  52.998  1.00  0.00     0.117 A 
HETATM    5  N1  UNL     1      21.495  -0.335  52.960  1.00  0.00    -0.234 NA
HETATM    6  C6  UNL     1      20.678   0.189  52.037  1.00  0.00     0.074 A 
HETATM    7  C14 UNL     1      21.240   1.022  51.092  1.00  0.00     0.107 A 
HETATM    8  C15 UNL     1      22.585   1.327  51.068  1.00  0.00     0.255 A 
HETATM    9  O2  UNL     1      23.116   2.085  50.216  1.00  0.00    -0.268 OA
HETATM   10  N2  UNL     1      23.325   0.752  52.040  1.00  0.00    -0.276 N 
HETATM   11  C16 UNL     1      24.674   1.171  51.867  1.00  0.00     0.112 C 
HETATM   12  C17 UNL     1      25.770   0.707  52.445  1.00  0.00     0.001 C 
ENDROOT
BRANCH   6  13
HETATM   13  C7  UNL     1      19.261  -0.142  52.070  1.00  0.00    -0.007 A 
HETATM   14  C8  UNL     1      18.762  -0.856  53.127  1.00  0.00     0.014 A 
HETATM   15  C9  UNL     1      17.433  -1.197  53.213  1.00  0.00     0.007 A 
HETATM   16  C10 UNL     1      16.523  -0.832  52.225  1.00  0.00    -0.062 A 
HETATM   17  C11 UNL     1      15.074  -1.140  52.204  1.00  0.00     0.048 C 
HETATM   18  C12 UNL     1      17.014  -0.111  51.152  1.00  0.00     0.007 A 
HETATM   19  C13 UNL     1      18.356   0.210  51.108  1.00  0.00     0.014 A 
ENDBRANCH   6  13
BRANCH   1  20
HETATM   20  O1  UNL     1      27.200  -0.751  53.623  1.00  0.00    -0.356 OA
HETATM   21  C1  UNL     1      27.830  -1.862  53.058  1.00  0.00     0.210 C 
ENDBRANCH   1  20
BRANCH  12  22
HETATM   22  C18 UNL     1      27.064   1.368  52.047  1.00  0.00     0.152 C 
BRANCH  22  23
HETATM   23  C19 UNL     1      27.588   2.265  53.081  1.00  0.00     0.143 C 
HETATM   24  O3  UNL     1      28.820   2.587  52.984  1.00  0.00    -0.650 OA
BRANCH  23  25
HETATM   25  O4  UNL     1      26.929   2.818  54.160  1.00  0.00    -0.776 OA
HETATM   26  H18 UNL     1      27.282   3.596  54.703  1.00  0.00     0.167 HD
ENDBRANCH  23  25
ENDBRANCH  22  23
ENDBRANCH  12  22
TORSDOF 5
ENDMDL
MODEL 6
REMARK VINA RESULT:      -8.4      2.798      7.881
REMARK  5 active torsions:
REMARK  status: ('A' for Active; 'I' for Inactive)
REMARK    1  A    between atoms: O1_2  and  C2_3 
REMARK    2  A    between atoms: C6_8  and  C7_9 
REMARK    3  A    between atoms: C17_21  and  C18_22 
REMARK    4  A    between atoms: C18_22  and  C19_23 
REMARK    5  A    between atoms: C19_23  and  O4_25 
ROOT
HETATM    1  C2  UNL     1      25.000   1.430  52.561  1.00  0.00     0.073 C 
HETATM    2  C3  UNL     1      24.004   1.632  51.715  1.00  0.00     0.018 C 
HETATM    3  C4  UNL     1      22.704   1.024  51.444  1.00  0.00     0.109 C 
HETATM    4  C5  UNL     1      22.157   0.169  52.497  1.00  0.00     0.117 A 
HETATM    5  N1  UNL     1      20.825  -0.027  52.302  1.00  0.00    -0.234 NA
HETATM    6  C6  UNL     1      20.070  -0.774  53.119  1.00  0.00     0.074 A 
HETATM    7  C14 UNL     1      20.695  -1.359  54.200  1.00  0.00     0.107 A 
HETATM    8  C15 UNL     1      22.040  -1.205  54.462  1.00  0.00     0.255 A 
HETATM    9  O2  UNL     1      22.629  -1.731  55.442  1.00  0.00    -0.268 OA
HETATM   10  N2  UNL     1      22.716  -0.435  53.580  1.00  0.00    -0.276 N 
HETATM   11  C16 UNL     1      24.075  -0.385  53.998  1.00  0.00     0.112 C 
HETATM   12  C17 UNL     1      25.048   0.403  53.569  1.00  0.00     0.001 C 
ENDROOT
BRANCH   6  13
HETATM   13  C7  UNL     1      18.651  -0.928  52.835  1.00  0.00    -0.007 A 
HETATM   14  C8  UNL     1      18.029  -0.029  52.009  1.00  0.00     0.014 A 
HETATM   15  C9  UNL     1      16.692  -0.124  51.706  1.00  0.00     0.007 A 
HETATM   16  C10 UNL     1      15.898  -1.143  52.224  1.00  0.00    -0.062 A 
HETATM   17  C11 UNL     1      14.453  -1.351  51.973  1.00  0.00     0.048 C 
HETATM   18  C12 UNL     1      16.514  -2.058  53.059  1.00  0.00     0.007 A 
HETATM   19  C13 UNL     1      17.860  -1.923  53.336  1.00  0.00     0.014 A 
ENDBRANCH   6  13
BRANCH   1  20
HETATM   20  O1  UNL     1      26.118   2.229  52.530  1.00  0.00    -0.356 OA
HETATM   21  C1  UNL     1      26.813   2.641  51.391  1.00  0.00     0.210 C 
ENDBRANCH   1  20
BRANCH  12  22
HETATM   22  C18 UNL     1      26.394   0.212  54.218  1.00  0.00     0.152 C 
BRANCH  22  23
HETATM   23  C19 UNL     1      27.261  -0.706  53.471  1.00  0.00     0.143 C 
HETATM   24  O3  UNL     1      28.378  -0.234  53.071  1.00  0.00    -0.650 OA
BRANCH  23  25
HETATM   25  O4  UNL     1      27.036  -2.026  53.136  1.00  0.00    -0.776 OA
HETATM   26  H18 UNL     1      27.757  -2.659  52.814  1.00  0.00     0.167 HD
ENDBRANCH  23  25
ENDBRANCH  22  23
ENDBRANCH  12  22
TORSDOF 5
ENDMDL
MODEL 7
REMARK VINA RESULT:      -8.3      3.365      7.846
REMARK  5 active torsions:
REMARK  status: ('A' for Active; 'I' for Inactive)
REMARK    1  A    between atoms: O1_2  and  C2_3 
REMARK    2  A    between atoms: C6_8  and  C7_9 
REMARK    3  A    between atoms: C17_21  and  C18_22 
REMARK    4  A    between atoms: C18_22  and  C19_23 
REMARK    5  A    between atoms: C19_23  and  O4_25 
ROOT
HETATM    1  C2  UNL     1      25.460   2.474  51.086  1.00  0.00     0.073 C 
HETATM    2  C3  UNL     1      24.318   2.635  50.439  1.00  0.00     0.018 C 
HETATM    3  C4  UNL     1      23.019   1.968  50.398  1.00  0.00     0.109 C 
HETATM    4  C5  UNL     1      22.713   1.079  51.518  1.00  0.00     0.117 A 
HETATM    5  N1  UNL     1      21.378   0.821  51.565  1.00  0.00    -0.234 NA
HETATM    6  C6  UNL     1      20.820   0.033  52.493  1.00  0.00     0.074 A 
HETATM    7  C14 UNL     1      21.657  -0.532  53.432  1.00  0.00     0.107 A 
HETATM    8  C15 UNL     1      23.019  -0.316  53.447  1.00  0.00     0.255 A 
HETATM    9  O2  UNL     1      23.799  -0.821  54.295  1.00  0.00    -0.268 OA
HETATM   10  N2  UNL     1      23.486   0.493  52.471  1.00  0.00    -0.276 N 
HETATM   11  C16 UNL     1      24.895   0.605  52.636  1.00  0.00     0.112 C 
HETATM   12  C17 UNL     1      25.737   1.442  52.051  1.00  0.00     0.001 C 
ENDROOT
BRANCH   6  13
HETATM   13  C7  UNL     1      19.381  -0.187  52.469  1.00  0.00    -0.007 A 
HETATM   14  C8  UNL     1      18.825  -1.091  53.335  1.00  0.00     0.014 A 
HETATM   15  C9  UNL     1      17.473  -1.340  53.359  1.00  0.00     0.007 A 
HETATM   16  C10 UNL     1      16.597  -0.685  52.499  1.00  0.00    -0.062 A 
HETATM   17  C11 UNL     1      15.129  -0.867  52.427  1.00  0.00     0.048 C 
HETATM   18  C12 UNL     1      17.145   0.231  51.618  1.00  0.00     0.007 A 
HETATM   19  C13 UNL     1      18.509   0.449  51.631  1.00  0.00     0.014 A 
ENDBRANCH   6  13
BRANCH   1  20
HETATM   20  O1  UNL     1      26.515   3.326  50.866  1.00  0.00    -0.356 OA
HETATM   21  C1  UNL     1      26.827   3.971  49.667  1.00  0.00     0.210 C 
ENDBRANCH   1  20
BRANCH  12  22
HETATM   22  C18 UNL     1      27.186   1.309  52.440  1.00  0.00     0.152 C 
BRANCH  22  23
HETATM   23  C19 UNL     1      27.419   1.559  53.866  1.00  0.00     0.143 C 
HETATM   24  O3  UNL     1      27.777   2.742  54.186  1.00  0.00    -0.650 OA
BRANCH  23  25
HETATM   25  O4  UNL     1      27.303   0.683  54.927  1.00  0.00    -0.776 OA
HETATM   26  H18 UNL     1      27.012   0.955  55.858  1.00  0.00     0.167 HD
ENDBRANCH  23  25
ENDBRANCH  22  23
ENDBRANCH  12  22
TORSDOF 5
ENDMDL
MODEL 8
REMARK VINA RESULT:      -8.2      5.281      7.211
REMARK  5 active torsions:
REMARK  status: ('A' for Active; 'I' for Inactive)
REMARK    1  A    between atoms: O1_2  and  C2_3 
REMARK    2  A    between atoms: C6_8  and  C7_9 
REMARK    3  A    between atoms: C17_21  and  C18_22 
REMARK    4  A    between atoms: C18_22  and  C19_23 
REMARK    5  A    between atoms: C19_23  and  O4_25 
ROOT
HETATM    1  C2  UNL     1      22.578   0.998  52.889  1.00  0.00     0.073 C 
HETATM    2  C3  UNL     1      22.147   2.130  52.358  1.00  0.00     0.018 C 
HETATM    3  C4  UNL     1      22.752   3.325  51.776  1.00  0.00     0.109 C 
HETATM    4  C5  UNL     1      24.153   3.210  51.372  1.00  0.00     0.117 A 
HETATM    5  N1  UNL     1      24.486   4.223  50.527  1.00  0.00    -0.234 NA
HETATM    6  C6  UNL     1      25.710   4.363  50.003  1.00  0.00     0.074 A 
HETATM    7  C14 UNL     1      26.660   3.425  50.350  1.00  0.00     0.107 A 
HETATM    8  C15 UNL     1      26.396   2.372  51.201  1.00  0.00     0.255 A 
HETATM    9  O2  UNL     1      27.247   1.506  51.530  1.00  0.00    -0.268 OA
HETATM   10  N2  UNL     1      25.133   2.317  51.678  1.00  0.00    -0.276 N 
HETATM   11  C16 UNL     1      25.037   1.182  52.529  1.00  0.00     0.112 C 
HETATM   12  C17 UNL     1      23.957   0.618  53.046  1.00  0.00     0.001 C 
ENDROOT
BRANCH   6  13
HETATM   13  C7  UNL     1      25.978   5.477  49.105  1.00  0.00    -0.007 A 
HETATM   14  C8  UNL     1      24.935   6.243  48.654  1.00  0.00     0.014 A 
HETATM   15  C9  UNL     1      25.127   7.306  47.805  1.00  0.00     0.007 A 
HETATM   16  C10 UNL     1      26.396   7.662  47.358  1.00  0.00    -0.062 A 
HETATM   17  C11 UNL     1      26.730   8.780  46.446  1.00  0.00     0.048 C 
HETATM   18  C12 UNL     1      27.458   6.897  47.806  1.00  0.00     0.007 A 
HETATM   19  C13 UNL     1      27.218   5.838  48.659  1.00  0.00     0.014 A 
ENDBRANCH   6  13
BRANCH   1  20
HETATM   20  O1  UNL     1      21.687   0.060  53.354  1.00  0.00    -0.356 OA
HETATM   21  C1  UNL     1      20.637   0.282  54.248  1.00  0.00     0.210 C 
ENDBRANCH   1  20
BRANCH  12  22
HETATM   22  C18 UNL     1      24.188  -0.588  53.919  1.00  0.00     0.152 C 
BRANCH  22  23
HETATM   23  C19 UNL     1      25.606  -0.813  54.216  1.00  0.00     0.143 C 
HETATM   24  O3  UNL     1      26.032  -0.363  55.333  1.00  0.00    -0.650 OA
BRANCH  23  25
HETATM   25  O4  UNL     1      26.559  -1.452  53.449  1.00  0.00    -0.776 OA
HETATM   26  H18 UNL     1      27.075  -2.270  53.751  1.00  0.00     0.167 HD
ENDBRANCH  23  25
ENDBRANCH  22  23
ENDBRANCH  12  22
TORSDOF 5
ENDMDL
MODEL 9
REMARK VINA RESULT:      -8.2      4.401      8.379
REMARK  5 active torsions:
REMARK  status: ('A' for Active; 'I' for Inactive)
REMARK    1  A    between atoms: O1_2  and  C2_3 
REMARK    2  A    between atoms: C6_8  and  C7_9 
REMARK    3  A    between atoms: C17_21  and  C18_22 
REMARK    4  A    between atoms: C18_22  and  C19_23 
REMARK    5  A    between atoms: C19_23  and  O4_25 
ROOT
HETATM    1  C2  UNL     1      25.042  -0.120  54.092  1.00  0.00     0.073 C 
HETATM    2  C3  UNL     1      23.847   0.058  53.555  1.00  0.00     0.018 C 
HETATM    3  C4  UNL     1      23.238   0.989  52.608  1.00  0.00     0.109 C 
HETATM    4  C5  UNL     1      24.161   1.763  51.778  1.00  0.00     0.117 A 
HETATM    5  N1  UNL     1      23.505   2.294  50.711  1.00  0.00    -0.234 NA
HETATM    6  C6  UNL     1      24.109   3.051  49.786  1.00  0.00     0.074 A 
HETATM    7  C14 UNL     1      25.458   3.288  49.943  1.00  0.00     0.107 A 
HETATM    8  C15 UNL     1      26.189   2.783  50.998  1.00  0.00     0.255 A 
HETATM    9  O2  UNL     1      27.420   2.988  51.160  1.00  0.00    -0.268 OA
HETATM   10  N2  UNL     1      25.491   2.033  51.878  1.00  0.00    -0.276 N 
HETATM   11  C16 UNL     1      26.390   1.598  52.891  1.00  0.00     0.112 C 
HETATM   12  C17 UNL     1      26.206   0.686  53.832  1.00  0.00     0.001 C 
ENDROOT
BRANCH   6  13
HETATM   13  C7  UNL     1      23.329   3.577  48.675  1.00  0.00    -0.007 A 
HETATM   14  C8  UNL     1      22.606   2.716  47.894  1.00  0.00     0.014 A 
HETATM   15  C9  UNL     1      21.851   3.155  46.832  1.00  0.00     0.007 A 
HETATM   16  C10 UNL     1      21.783   4.503  46.496  1.00  0.00    -0.062 A 
HETATM   17  C11 UNL     1      21.010   5.097  45.380  1.00  0.00     0.048 C 
HETATM   18  C12 UNL     1      22.509   5.385  47.277  1.00  0.00     0.007 A 
HETATM   19  C13 UNL     1      23.252   4.898  48.334  1.00  0.00     0.014 A 
ENDBRANCH   6  13
BRANCH   1  20
HETATM   20  O1  UNL     1      25.263  -1.143  54.984  1.00  0.00    -0.356 OA
HETATM   21  C1  UNL     1      24.444  -1.500  56.057  1.00  0.00     0.210 C 
ENDBRANCH   1  20
BRANCH  12  22
HETATM   22  C18 UNL     1      27.365   0.448  54.766  1.00  0.00     0.152 C 
BRANCH  22  23
HETATM   23  C19 UNL     1      28.569  -0.016  54.072  1.00  0.00     0.143 C 
HETATM   24  O3  UNL     1      28.584  -1.243  53.716  1.00  0.00    -0.650 OA
BRANCH  23  25
HETATM   25  O4  UNL     1      29.706   0.694  53.744  1.00  0.00    -0.776 OA
HETATM   26  H18 UNL     1      29.771   1.330  52.958  1.00  0.00     0.167 HD
ENDBRANCH  23  25
ENDBRANCH  22  23
ENDBRANCH  12  22
TORSDOF 5
ENDMDL
