MODEL 1
REMARK VINA RESULT:      -6.7      0.000      0.000
REMARK  7 active torsions:
REMARK  status: ('A' for Active; 'I' for Inactive)
REMARK    1  A    between atoms: O1_2  and  C2_3 
REMARK    2  A    between atoms: C2_3  and  C3_5 
REMARK    3  A    between atoms: C3_5  and  C4_6 
REMARK    4  A    between atoms: C4_6  and  C5_7 
REMARK    5  A    between atoms: C5_7  and  C6_8 
REMARK    6  A    between atoms: C6_8  and  C7_9 
REMARK    7  A    between atoms: C7_9  and  O3_11 
ROOT
HETATM    1  C5  UNL     1      25.843   0.765  52.479  1.00  0.00     0.008 C 
HETATM    2  C10 UNL     1      26.452  -0.591  52.512  1.00  0.00     0.134 C 
HETATM    3  N1  UNL     1      26.019  -1.019  53.854  1.00  0.00    -0.388 N 
HETATM    4  C11 UNL     1      24.635  -0.631  53.944  1.00  0.00     0.035 A 
HETATM    5  C12 UNL     1      23.605  -1.180  54.680  1.00  0.00     0.029 A 
HETATM    6  C13 UNL     1      22.352  -0.577  54.559  1.00  0.00     0.002 A 
HETATM    7  C14 UNL     1      22.174   0.519  53.733  1.00  0.00     0.001 A 
HETATM    8  C15 UNL     1      23.243   1.040  53.008  1.00  0.00     0.010 A 
HETATM    9  C16 UNL     1      24.502   0.466  53.104  1.00  0.00    -0.021 A 
HETATM   10  H19 UNL     1      26.580  -1.497  54.590  1.00  0.00     0.159 HD
ENDROOT
BRANCH   1  11
HETATM   11  C4  UNL     1      26.581   1.645  53.460  1.00  0.00     0.026 C 
BRANCH  11  12
HETATM   12  C3  UNL     1      28.034   1.739  53.110  1.00  0.00     0.112 C 
BRANCH  12  13
HETATM   13  C2  UNL     1      28.873   1.395  54.289  1.00  0.00     0.258 C 
HETATM   14  O2  UNL     1      29.457   2.292  54.975  1.00  0.00    -0.265 OA
BRANCH  13  15
HETATM   15  O1  UNL     1      28.957   0.038  54.567  1.00  0.00    -0.326 OA
HETATM   16  C1  UNL     1      29.812  -0.778  53.801  1.00  0.00     0.213 C 
ENDBRANCH  13  15
ENDBRANCH  12  13
ENDBRANCH  11  12
ENDBRANCH   1  11
BRANCH   1  17
HETATM   17  C6  UNL     1      25.673   1.408  51.154  1.00  0.00     0.047 C 
BRANCH  17  18
HETATM   18  C7  UNL     1      25.705   2.898  51.120  1.00  0.00     0.117 C 
HETATM   19  C8  UNL     1      26.609   3.475  50.057  1.00  0.00     0.039 C 
BRANCH  18  20
HETATM   20  O3  UNL     1      24.393   3.271  50.737  1.00  0.00    -0.391 OA
HETATM   21  C9  UNL     1      23.953   4.364  51.474  1.00  0.00     0.202 C 
ENDBRANCH  18  20
ENDBRANCH  17  18
ENDBRANCH   1  17
TORSDOF 7
ENDMDL
MODEL 2
REMARK VINA RESULT:      -6.6      1.958      4.558
REMARK  7 active torsions:
REMARK  status: ('A' for Active; 'I' for Inactive)
REMARK    1  A    between atoms: O1_2  and  C2_3 
REMARK    2  A    between atoms: C2_3  and  C3_5 
REMARK    3  A    between atoms: C3_5  and  C4_6 
REMARK    4  A    between atoms: C4_6  and  C5_7 
REMARK    5  A    between atoms: C5_7  and  C6_8 
REMARK    6  A    between atoms: C6_8  and  C7_9 
REMARK    7  A    between atoms: C7_9  and  O3_11 
ROOT
HETATM    1  C5  UNL     1      25.364   1.395  53.105  1.00  0.00     0.008 C 
HETATM    2  C10 UNL     1      24.904   2.768  53.444  1.00  0.00     0.134 C 
HETATM    3  N1  UNL     1      23.686   2.825  52.614  1.00  0.00    -0.388 N 
HETATM    4  C11 UNL     1      23.031   1.560  52.821  1.00  0.00     0.035 A 
HETATM    5  C12 UNL     1      21.692   1.231  52.750  1.00  0.00     0.029 A 
HETATM    6  C13 UNL     1      21.355  -0.098  53.005  1.00  0.00     0.002 A 
HETATM    7  C14 UNL     1      22.334  -1.028  53.313  1.00  0.00     0.001 A 
HETATM    8  C15 UNL     1      23.673  -0.651  53.373  1.00  0.00     0.010 A 
HETATM    9  C16 UNL     1      24.044   0.662  53.125  1.00  0.00    -0.021 A 
HETATM   10  H19 UNL     1      23.359   3.604  52.006  1.00  0.00     0.159 HD
ENDROOT
BRANCH   1  11
HETATM   11  C4  UNL     1      25.831   1.386  51.669  1.00  0.00     0.026 C 
BRANCH  11  12
HETATM   12  C3  UNL     1      26.746   2.540  51.395  1.00  0.00     0.112 C 
BRANCH  12  13
HETATM   13  C2  UNL     1      26.352   3.221  50.132  1.00  0.00     0.258 C 
HETATM   14  O2  UNL     1      27.206   3.823  49.407  1.00  0.00    -0.265 OA
BRANCH  13  15
HETATM   15  O1  UNL     1      25.002   3.141  49.824  1.00  0.00    -0.326 OA
HETATM   16  C1  UNL     1      24.333   4.275  49.323  1.00  0.00     0.213 C 
ENDBRANCH  13  15
ENDBRANCH  12  13
ENDBRANCH  11  12
ENDBRANCH   1  11
BRANCH   1  17
HETATM   17  C6  UNL     1      26.335   0.752  54.024  1.00  0.00     0.047 C 
BRANCH  17  18
HETATM   18  C7  UNL     1      27.398  -0.088  53.399  1.00  0.00     0.117 C 
HETATM   19  C8  UNL     1      28.757   0.053  54.041  1.00  0.00     0.039 C 
BRANCH  18  20
HETATM   20  O3  UNL     1      26.996  -1.420  53.664  1.00  0.00    -0.391 OA
HETATM   21  C9  UNL     1      26.999  -2.179  52.500  1.00  0.00     0.202 C 
ENDBRANCH  18  20
ENDBRANCH  17  18
ENDBRANCH   1  17
TORSDOF 7
ENDMDL
MODEL 3
REMARK VINA RESULT:      -6.5      1.976      4.357
REMARK  7 active torsions:
REMARK  status: ('A' for Active; 'I' for Inactive)
REMARK    1  A    between atoms: O1_2  and  C2_3 
REMARK    2  A    between atoms: C2_3  and  C3_5 
REMARK    3  A    between atoms: C3_5  and  C4_6 
REMARK    4  A    between atoms: C4_6  and  C5_7 
REMARK    5  A    between atoms: C5_7  and  C6_8 
REMARK    6  A    between atoms: C6_8  and  C7_9 
REMARK    7  A    between atoms: C7_9  and  O3_11 
ROOT
HETATM    1  C5  UNL     1      24.591   1.245  52.799  1.00  0.00     0.008 C 
HETATM    2  C10 UNL     1      25.481   2.139  53.586  1.00  0.00     0.134 C 
HETATM    3  N1  UNL     1      26.421   2.540  52.523  1.00  0.00    -0.388 N 
HETATM    4  C11 UNL     1      25.593   2.839  51.383  1.00  0.00     0.035 A 
HETATM    5  C12 UNL     1      25.810   3.705  50.331  1.00  0.00     0.029 A 
HETATM    6  C13 UNL     1      24.810   3.782  49.360  1.00  0.00     0.002 A 
HETATM    7  C14 UNL     1      23.662   3.016  49.469  1.00  0.00     0.001 A 
HETATM    8  C15 UNL     1      23.485   2.154  50.548  1.00  0.00     0.010 A 
HETATM    9  C16 UNL     1      24.459   2.053  51.531  1.00  0.00    -0.021 A 
HETATM   10  H19 UNL     1      27.459   2.598  52.570  1.00  0.00     0.159 HD
ENDROOT
BRANCH   1  11
HETATM   11  C4  UNL     1      25.365   0.002  52.431  1.00  0.00     0.026 C 
BRANCH  11  12
HETATM   12  C3  UNL     1      26.069  -0.566  53.625  1.00  0.00     0.112 C 
BRANCH  12  13
HETATM   13  C2  UNL     1      27.461  -0.953  53.267  1.00  0.00     0.258 C 
HETATM   14  O2  UNL     1      27.785  -2.167  53.074  1.00  0.00    -0.265 OA
BRANCH  13  15
HETATM   15  O1  UNL     1      28.351   0.106  53.165  1.00  0.00    -0.326 OA
HETATM   16  C1  UNL     1      28.997   0.588  54.320  1.00  0.00     0.213 C 
ENDBRANCH  13  15
ENDBRANCH  12  13
ENDBRANCH  11  12
ENDBRANCH   1  11
BRANCH   1  17
HETATM   17  C6  UNL     1      23.255   0.936  53.366  1.00  0.00     0.047 C 
BRANCH  17  18
HETATM   18  C7  UNL     1      22.704  -0.421  53.090  1.00  0.00     0.117 C 
HETATM   19  C8  UNL     1      22.254  -1.170  54.321  1.00  0.00     0.039 C 
BRANCH  18  20
HETATM   20  O3  UNL     1      21.522  -0.178  52.347  1.00  0.00    -0.391 OA
HETATM   21  C9  UNL     1      20.781   0.851  52.917  1.00  0.00     0.202 C 
ENDBRANCH  18  20
ENDBRANCH  17  18
ENDBRANCH   1  17
TORSDOF 7
ENDMDL
MODEL 4
REMARK VINA RESULT:      -6.5      2.016      4.295
REMARK  7 active torsions:
REMARK  status: ('A' for Active; 'I' for Inactive)
REMARK    1  A    between atoms: O1_2  and  C2_3 
REMARK    2  A    between atoms: C2_3  and  C3_5 
REMARK    3  A    between atoms: C3_5  and  C4_6 
REMARK    4  A    between atoms: C4_6  and  C5_7 
REMARK    5  A    between atoms: C5_7  and  C6_8 
REMARK    6  A    between atoms: C6_8  and  C7_9 
REMARK    7  A    between atoms: C7_9  and  O3_11 
ROOT
HETATM    1  C5  UNL     1      26.803   1.191  52.901  1.00  0.00     0.008 C 
HETATM    2  C10 UNL     1      27.897   2.166  53.153  1.00  0.00     0.134 C 
HETATM    3  N1  UNL     1      28.617   1.450  54.222  1.00  0.00    -0.388 N 
HETATM    4  C11 UNL     1      28.690   0.083  53.776  1.00  0.00     0.035 A 
HETATM    5  C12 UNL     1      29.624  -0.893  54.055  1.00  0.00     0.029 A 
HETATM    6  C13 UNL     1      29.426  -2.143  53.467  1.00  0.00     0.002 A 
HETATM    7  C14 UNL     1      28.335  -2.371  52.645  1.00  0.00     0.001 A 
HETATM    8  C15 UNL     1      27.416  -1.355  52.391  1.00  0.00     0.010 A 
HETATM    9  C16 UNL     1      27.582  -0.101  52.960  1.00  0.00    -0.021 A 
HETATM   10  H19 UNL     1      28.995   1.835  55.112  1.00  0.00     0.159 HD
ENDROOT
BRANCH   1  11
HETATM   11  C4  UNL     1      25.882   1.184  54.098  1.00  0.00     0.026 C 
BRANCH  11  12
HETATM   12  C3  UNL     1      24.777   0.189  53.919  1.00  0.00     0.112 C 
BRANCH  12  13
HETATM   13  C2  UNL     1      24.730  -0.743  55.078  1.00  0.00     0.258 C 
HETATM   14  O2  UNL     1      25.752  -0.952  55.805  1.00  0.00    -0.265 OA
BRANCH  13  15
HETATM   15  O1  UNL     1      23.500  -1.348  55.289  1.00  0.00    -0.326 OA
HETATM   16  C1  UNL     1      22.358  -0.852  54.630  1.00  0.00     0.213 C 
ENDBRANCH  13  15
ENDBRANCH  12  13
ENDBRANCH  11  12
ENDBRANCH   1  11
BRANCH   1  17
HETATM   17  C6  UNL     1      26.068   1.302  51.617  1.00  0.00     0.047 C 
BRANCH  17  18
HETATM   18  C7  UNL     1      25.734   2.678  51.150  1.00  0.00     0.117 C 
HETATM   19  C8  UNL     1      26.427   3.083  49.871  1.00  0.00     0.039 C 
BRANCH  18  20
HETATM   20  O3  UNL     1      24.356   2.616  50.826  1.00  0.00    -0.391 OA
HETATM   21  C9  UNL     1      24.105   3.242  49.611  1.00  0.00     0.202 C 
ENDBRANCH  18  20
ENDBRANCH  17  18
ENDBRANCH   1  17
TORSDOF 7
ENDMDL
MODEL 5
REMARK VINA RESULT:      -6.4      2.466      4.588
REMARK  7 active torsions:
REMARK  status: ('A' for Active; 'I' for Inactive)
REMARK    1  A    between atoms: O1_2  and  C2_3 
REMARK    2  A    between atoms: C2_3  and  C3_5 
REMARK    3  A    between atoms: C3_5  and  C4_6 
REMARK    4  A    between atoms: C4_6  and  C5_7 
REMARK    5  A    between atoms: C5_7  and  C6_8 
REMARK    6  A    between atoms: C6_8  and  C7_9 
REMARK    7  A    between atoms: C7_9  and  O3_11 
ROOT
HETATM    1  C5  UNL     1      23.914   1.523  52.300  1.00  0.00     0.008 C 
HETATM    2  C10 UNL     1      24.002   2.737  53.155  1.00  0.00     0.134 C 
HETATM    3  N1  UNL     1      24.701   3.639  52.222  1.00  0.00    -0.388 N 
HETATM    4  C11 UNL     1      24.041   3.454  50.955  1.00  0.00     0.035 A 
HETATM    5  C12 UNL     1      23.890   4.326  49.897  1.00  0.00     0.029 A 
HETATM    6  C13 UNL     1      23.190   3.855  48.786  1.00  0.00     0.002 A 
HETATM    7  C14 UNL     1      22.680   2.568  48.768  1.00  0.00     0.001 A 
HETATM    8  C15 UNL     1      22.857   1.721  49.859  1.00  0.00     0.010 A 
HETATM    9  C16 UNL     1      23.548   2.157  50.980  1.00  0.00    -0.021 A 
HETATM   10  H19 UNL     1      25.500   4.277  52.420  1.00  0.00     0.159 HD
ENDROOT
BRANCH   1  11
HETATM   11  C4  UNL     1      25.303   0.957  52.127  1.00  0.00     0.026 C 
BRANCH  11  12
HETATM   12  C3  UNL     1      25.550  -0.164  53.089  1.00  0.00     0.112 C 
BRANCH  12  13
HETATM   13  C2  UNL     1      26.661   0.187  54.015  1.00  0.00     0.258 C 
HETATM   14  O2  UNL     1      26.696   1.305  54.618  1.00  0.00    -0.265 OA
BRANCH  13  15
HETATM   15  O1  UNL     1      27.631  -0.795  54.157  1.00  0.00    -0.326 OA
HETATM   16  C1  UNL     1      28.992  -0.454  54.025  1.00  0.00     0.213 C 
ENDBRANCH  13  15
ENDBRANCH  12  13
ENDBRANCH  11  12
ENDBRANCH   1  11
BRANCH   1  17
HETATM   17  C6  UNL     1      22.921   0.489  52.680  1.00  0.00     0.047 C 
BRANCH  17  18
HETATM   18  C7  UNL     1      21.637   0.971  53.265  1.00  0.00     0.117 C 
HETATM   19  C8  UNL     1      20.415   0.628  52.446  1.00  0.00     0.039 C 
BRANCH  18  20
HETATM   20  O3  UNL     1      21.499   0.235  54.468  1.00  0.00    -0.391 OA
HETATM   21  C9  UNL     1      22.087  -1.018  54.352  1.00  0.00     0.202 C 
ENDBRANCH  18  20
ENDBRANCH  17  18
ENDBRANCH   1  17
TORSDOF 7
ENDMDL
MODEL 6
REMARK VINA RESULT:      -6.3      2.673      4.940
REMARK  7 active torsions:
REMARK  status: ('A' for Active; 'I' for Inactive)
REMARK    1  A    between atoms: O1_2  and  C2_3 
REMARK    2  A    between atoms: C2_3  and  C3_5 
REMARK    3  A    between atoms: C3_5  and  C4_6 
REMARK    4  A    between atoms: C4_6  and  C5_7 
REMARK    5  A    between atoms: C5_7  and  C6_8 
REMARK    6  A    between atoms: C6_8  and  C7_9 
REMARK    7  A    between atoms: C7_9  and  O3_11 
ROOT
HETATM    1  C5  UNL     1      25.285   0.657  53.289  1.00  0.00     0.008 C 
HETATM    2  C10 UNL     1      25.846   1.897  53.890  1.00  0.00     0.134 C 
HETATM    3  N1  UNL     1      26.750   1.293  54.885  1.00  0.00    -0.388 N 
HETATM    4  C11 UNL     1      27.420   0.227  54.187  1.00  0.00     0.035 A 
HETATM    5  C12 UNL     1      28.667  -0.326  54.395  1.00  0.00     0.029 A 
HETATM    6  C13 UNL     1      29.048  -1.364  53.544  1.00  0.00     0.002 A 
HETATM    7  C14 UNL     1      28.198  -1.803  52.543  1.00  0.00     0.001 A 
HETATM    8  C15 UNL     1      26.947  -1.215  52.369  1.00  0.00     0.010 A 
HETATM    9  C16 UNL     1      26.536  -0.182  53.198  1.00  0.00    -0.021 A 
HETATM   10  H19 UNL     1      26.886   1.567  55.880  1.00  0.00     0.159 HD
ENDROOT
BRANCH   1  11
HETATM   11  C4  UNL     1      24.399  -0.013  54.312  1.00  0.00     0.026 C 
BRANCH  11  12
HETATM   12  C3  UNL     1      23.210  -0.649  53.659  1.00  0.00     0.112 C 
BRANCH  12  13
HETATM   13  C2  UNL     1      22.328  -1.268  54.686  1.00  0.00     0.258 C 
HETATM   14  O2  UNL     1      22.803  -1.785  55.746  1.00  0.00    -0.265 OA
BRANCH  13  15
HETATM   15  O1  UNL     1      20.974  -1.229  54.388  1.00  0.00    -0.326 OA
HETATM   16  C1  UNL     1      20.406  -0.044  53.881  1.00  0.00     0.213 C 
ENDBRANCH  13  15
ENDBRANCH  12  13
ENDBRANCH  11  12
ENDBRANCH   1  11
BRANCH   1  17
HETATM   17  C6  UNL     1      24.633   0.774  51.961  1.00  0.00     0.047 C 
BRANCH  17  18
HETATM   18  C7  UNL     1      24.179   2.134  51.551  1.00  0.00     0.117 C 
HETATM   19  C8  UNL     1      24.995   2.751  50.440  1.00  0.00     0.039 C 
BRANCH  18  20
HETATM   20  O3  UNL     1      22.892   1.924  50.996  1.00  0.00    -0.391 OA
HETATM   21  C9  UNL     1      21.926   2.621  51.710  1.00  0.00     0.202 C 
ENDBRANCH  18  20
ENDBRANCH  17  18
ENDBRANCH   1  17
TORSDOF 7
ENDMDL
MODEL 7
REMARK VINA RESULT:      -6.0      3.243      5.421
REMARK  7 active torsions:
REMARK  status: ('A' for Active; 'I' for Inactive)
REMARK    1  A    between atoms: O1_2  and  C2_3 
REMARK    2  A    between atoms: C2_3  and  C3_5 
REMARK    3  A    between atoms: C3_5  and  C4_6 
REMARK    4  A    between atoms: C4_6  and  C5_7 
REMARK    5  A    between atoms: C5_7  and  C6_8 
REMARK    6  A    between atoms: C6_8  and  C7_9 
REMARK    7  A    between atoms: C7_9  and  O3_11 
ROOT
HETATM    1  C5  UNL     1      23.660   1.721  52.247  1.00  0.00     0.008 C 
HETATM    2  C10 UNL     1      23.841   3.190  52.392  1.00  0.00     0.134 C 
HETATM    3  N1  UNL     1      24.768   3.207  53.539  1.00  0.00    -0.388 N 
HETATM    4  C11 UNL     1      25.741   2.186  53.250  1.00  0.00     0.035 A 
HETATM    5  C12 UNL     1      27.060   2.080  53.642  1.00  0.00     0.029 A 
HETATM    6  C13 UNL     1      27.762   0.959  53.198  1.00  0.00     0.002 A 
HETATM    7  C14 UNL     1      27.145   0.009  52.403  1.00  0.00     0.001 A 
HETATM    8  C15 UNL     1      25.810   0.156  52.032  1.00  0.00     0.010 A 
HETATM    9  C16 UNL     1      25.082   1.258  52.455  1.00  0.00    -0.021 A 
HETATM   10  H19 UNL     1      24.737   3.818  54.382  1.00  0.00     0.159 HD
ENDROOT
BRANCH   1  11
HETATM   11  C4  UNL     1      22.873   1.216  53.433  1.00  0.00     0.026 C 
BRANCH  11  12
HETATM   12  C3  UNL     1      22.615  -0.255  53.319  1.00  0.00     0.112 C 
BRANCH  12  13
HETATM   13  C2  UNL     1      21.541  -0.665  54.264  1.00  0.00     0.258 C 
HETATM   14  O2  UNL     1      21.731  -1.570  55.135  1.00  0.00    -0.265 OA
BRANCH  13  15
HETATM   15  O1  UNL     1      20.341   0.015  54.111  1.00  0.00    -0.326 OA
HETATM   16  C1  UNL     1      19.413  -0.418  53.144  1.00  0.00     0.213 C 
ENDBRANCH  13  15
ENDBRANCH  12  13
ENDBRANCH  11  12
ENDBRANCH   1  11
BRANCH   1  17
HETATM   17  C6  UNL     1      23.129   1.220  50.956  1.00  0.00     0.047 C 
BRANCH  17  18
HETATM   18  C7  UNL     1      22.202   2.122  50.215  1.00  0.00     0.117 C 
HETATM   19  C8  UNL     1      22.291   2.004  48.712  1.00  0.00     0.039 C 
BRANCH  18  20
HETATM   20  O3  UNL     1      20.908   1.651  50.550  1.00  0.00    -0.391 OA
HETATM   21  C9  UNL     1      20.146   2.661  51.122  1.00  0.00     0.202 C 
ENDBRANCH  18  20
ENDBRANCH  17  18
ENDBRANCH   1  17
TORSDOF 7
ENDMDL
MODEL 8
REMARK VINA RESULT:      -6.0      2.791      5.159
REMARK  7 active torsions:
REMARK  status: ('A' for Active; 'I' for Inactive)
REMARK    1  A    between atoms: O1_2  and  C2_3 
REMARK    2  A    between atoms: C2_3  and  C3_5 
REMARK    3  A    between atoms: C3_5  and  C4_6 
REMARK    4  A    between atoms: C4_6  and  C5_7 
REMARK    5  A    between atoms: C5_7  and  C6_8 
REMARK    6  A    between atoms: C6_8  and  C7_9 
REMARK    7  A    between atoms: C7_9  and  O3_11 
ROOT
HETATM    1  C5  UNL     1      23.636   3.101  51.823  1.00  0.00     0.008 C 
HETATM    2  C10 UNL     1      22.510   4.002  52.187  1.00  0.00     0.134 C 
HETATM    3  N1  UNL     1      23.259   5.258  52.378  1.00  0.00    -0.388 N 
HETATM    4  C11 UNL     1      24.168   5.327  51.263  1.00  0.00     0.035 A 
HETATM    5  C12 UNL     1      24.718   6.424  50.633  1.00  0.00     0.029 A 
HETATM    6  C13 UNL     1      25.577   6.172  49.563  1.00  0.00     0.002 A 
HETATM    7  C14 UNL     1      25.851   4.873  49.169  1.00  0.00     0.001 A 
HETATM    8  C15 UNL     1      25.273   3.795  49.835  1.00  0.00     0.010 A 
HETATM    9  C16 UNL     1      24.415   4.010  50.903  1.00  0.00    -0.021 A 
HETATM   10  H19 UNL     1      23.164   5.953  53.148  1.00  0.00     0.159 HD
ENDROOT
BRANCH   1  11
HETATM   11  C4  UNL     1      24.499   2.895  53.044  1.00  0.00     0.026 C 
BRANCH  11  12
HETATM   12  C3  UNL     1      25.295   1.631  52.933  1.00  0.00     0.112 C 
BRANCH  12  13
HETATM   13  C2  UNL     1      26.743   1.913  53.133  1.00  0.00     0.258 C 
HETATM   14  O2  UNL     1      27.462   2.391  52.200  1.00  0.00    -0.265 OA
BRANCH  13  15
HETATM   15  O1  UNL     1      27.223   1.617  54.400  1.00  0.00    -0.326 OA
HETATM   16  C1  UNL     1      27.583   0.292  54.716  1.00  0.00     0.213 C 
ENDBRANCH  13  15
ENDBRANCH  12  13
ENDBRANCH  11  12
ENDBRANCH   1  11
BRANCH   1  17
HETATM   17  C6  UNL     1      23.300   1.827  51.142  1.00  0.00     0.047 C 
BRANCH  17  18
HETATM   18  C7  UNL     1      21.878   1.633  50.739  1.00  0.00     0.117 C 
HETATM   19  C8  UNL     1      21.691   1.228  49.297  1.00  0.00     0.039 C 
BRANCH  18  20
HETATM   20  O3  UNL     1      21.444   0.518  51.499  1.00  0.00    -0.391 OA
HETATM   21  C9  UNL     1      20.066   0.369  51.418  1.00  0.00     0.202 C 
ENDBRANCH  18  20
ENDBRANCH  17  18
ENDBRANCH   1  17
TORSDOF 7
ENDMDL
MODEL 9
REMARK VINA RESULT:      -5.8      2.486      5.314
REMARK  7 active torsions:
REMARK  status: ('A' for Active; 'I' for Inactive)
REMARK    1  A    between atoms: O1_2  and  C2_3 
REMARK    2  A    between atoms: C2_3  and  C3_5 
REMARK    3  A    between atoms: C3_5  and  C4_6 
REMARK    4  A    between atoms: C4_6  and  C5_7 
REMARK    5  A    between atoms: C5_7  and  C6_8 
REMARK    6  A    between atoms: C6_8  and  C7_9 
REMARK    7  A    between atoms: C7_9  and  O3_11 
ROOT
HETATM    1  C5  UNL     1      23.583   2.109  52.541  1.00  0.00     0.008 C 
HETATM    2  C10 UNL     1      22.439   3.060  52.539  1.00  0.00     0.134 C 
HETATM    3  N1  UNL     1      21.354   2.131  52.175  1.00  0.00    -0.388 N 
HETATM    4  C11 UNL     1      21.574   0.960  52.983  1.00  0.00     0.035 A 
HETATM    5  C12 UNL     1      20.675   0.027  53.458  1.00  0.00     0.029 A 
HETATM    6  C13 UNL     1      21.194  -1.014  54.228  1.00  0.00     0.002 A 
HETATM    7  C14 UNL     1      22.551  -1.088  54.492  1.00  0.00     0.001 A 
HETATM    8  C15 UNL     1      23.422  -0.123  53.992  1.00  0.00     0.010 A 
HETATM    9  C16 UNL     1      22.941   0.925  53.222  1.00  0.00    -0.021 A 
HETATM   10  H19 UNL     1      20.588   2.275  51.484  1.00  0.00     0.159 HD
ENDROOT
BRANCH   1  11
HETATM   11  C4  UNL     1      23.853   1.683  51.118  1.00  0.00     0.026 C 
BRANCH  11  12
HETATM   12  C3  UNL     1      24.075   2.872  50.234  1.00  0.00     0.112 C 
BRANCH  12  13
HETATM   13  C2  UNL     1      23.071   2.893  49.136  1.00  0.00     0.258 C 
HETATM   14  O2  UNL     1      23.056   3.821  48.267  1.00  0.00    -0.265 OA
BRANCH  13  15
HETATM   15  O1  UNL     1      22.175   1.834  49.147  1.00  0.00    -0.326 OA
HETATM   16  C1  UNL     1      21.006   1.903  48.363  1.00  0.00     0.213 C 
ENDBRANCH  13  15
ENDBRANCH  12  13
ENDBRANCH  11  12
ENDBRANCH   1  11
BRANCH   1  17
HETATM   17  C6  UNL     1      24.815   2.521  53.256  1.00  0.00     0.047 C 
BRANCH  17  18
HETATM   18  C7  UNL     1      25.990   1.609  53.153  1.00  0.00     0.117 C 
HETATM   19  C8  UNL     1      27.137   2.163  52.344  1.00  0.00     0.039 C 
BRANCH  18  20
HETATM   20  O3  UNL     1      26.480   1.514  54.479  1.00  0.00    -0.391 OA
HETATM   21  C9  UNL     1      27.116   0.296  54.687  1.00  0.00     0.202 C 
ENDBRANCH  18  20
ENDBRANCH  17  18
ENDBRANCH   1  17
TORSDOF 7
ENDMDL
