MODEL 1
REMARK VINA RESULT:      -8.5      0.000      0.000
REMARK  7 active torsions:
REMARK  status: ('A' for Active; 'I' for Inactive)
REMARK    1  A    between atoms: C3_3  and  C22_28 
REMARK    2  A    between atoms: C4_4  and  C5_5 
REMARK    3  A    between atoms: N3_15  and  C13_16 
REMARK    4  A    between atoms: C13_16  and  C14_17 
REMARK    5  A    between atoms: C14_17  and  C15_18 
REMARK    6  A    between atoms: C15_18  and  N4_19 
REMARK    7  A    between atoms: C22_28  and  C23_29 
ROOT
HETATM    1  C1  UNL     1      19.977   1.139  50.069  1.00  0.00     0.017 C 
HETATM    2  C2  UNL     1      20.390   0.673  51.127  1.00  0.00    -0.082 C 
HETATM    3  C3  UNL     1      20.908   0.115  52.383  1.00  0.00     0.000 C 
HETATM    4  C4  UNL     1      22.240  -0.074  52.496  1.00  0.00     0.049 C 
ENDROOT
BRANCH   3   5
HETATM    5  C22 UNL     1      19.752  -0.125  53.284  1.00  0.00     0.074 C 
BRANCH   5   6
HETATM    6  C23 UNL     1      18.602  -0.777  52.657  1.00  0.00    -0.032 C 
HETATM    7  C24 UNL     1      17.739  -1.523  53.359  1.00  0.00     0.007 C 
ENDBRANCH   5   6
ENDBRANCH   3   5
BRANCH   4   8
HETATM    8  C5  UNL     1      22.915  -0.608  53.654  1.00  0.00     0.071 A 
HETATM    9  N1  UNL     1      22.601  -1.292  54.771  1.00  0.00    -0.241 NA
HETATM   10  C6  UNL     1      23.575  -1.579  55.693  1.00  0.00     0.234 A 
HETATM   11  N2  UNL     1      24.861  -1.242  55.605  1.00  0.00    -0.245 NA
HETATM   12  C7  UNL     1      25.082  -0.569  54.470  1.00  0.00     0.061 A 
HETATM   13  C8  UNL     1      26.344  -0.205  54.362  1.00  0.00     0.059 A 
HETATM   14  C12 UNL     1      24.169  -0.238  53.496  1.00  0.00     0.017 A 
HETATM   15  C9  UNL     1      27.483   0.185  54.156  1.00  0.00     0.059 A 
HETATM   16  O2  UNL     1      27.466   0.310  53.980  1.00  0.00     0.000 OA
HETATM   17  C10 UNL     1      26.460   0.570  53.048  1.00  0.00     0.069 A 
HETATM   18  C20 UNL     1      28.042   1.310  53.036  1.00  0.00     0.084 A 
HETATM   19  N3  UNL     1      27.048   1.348  52.008  1.00  0.00    -0.394 N 
HETATM   20  C21 UNL     1      28.284   2.545  53.797  1.00  0.00     0.032 C 
HETATM   21  C11 UNL     1      25.077   0.438  52.692  1.00  0.00     0.021 A 
BRANCH  19  22
HETATM   22  C13 UNL     1      26.640   1.774  50.730  1.00  0.00     0.120 C 
BRANCH  22  23
HETATM   23  C14 UNL     1      26.222   3.218  50.605  1.00  0.00     0.050 C 
BRANCH  23  24
HETATM   24  C15 UNL     1      25.157   3.457  49.576  1.00  0.00     0.274 C 
BRANCH  24  25
HETATM   25  N4  UNL     1      23.979   4.070  50.134  1.00  0.00     0.092 N 
HETATM   26  C16 UNL     1      24.218   5.235  50.935  1.00  0.00     0.298 C 
HETATM   27  C17 UNL     1      22.859   5.940  51.074  1.00  0.00     0.198 C 
HETATM   28  O1  UNL     1      21.852   5.042  51.397  1.00  0.00    -0.388 OA
HETATM   29  C18 UNL     1      22.387   3.868  51.920  1.00  0.00     0.198 C 
HETATM   30  C19 UNL     1      23.235   3.118  50.923  1.00  0.00     0.298 C 
ENDBRANCH  24  25
ENDBRANCH  23  24
ENDBRANCH  22  23
ENDBRANCH  19  22
ENDBRANCH   4   8
TORSDOF 7
ENDMDL
MODEL 2
REMARK VINA RESULT:      -8.4      2.039      6.708
REMARK  7 active torsions:
REMARK  status: ('A' for Active; 'I' for Inactive)
REMARK    1  A    between atoms: C3_3  and  C22_28 
REMARK    2  A    between atoms: C4_4  and  C5_5 
REMARK    3  A    between atoms: N3_15  and  C13_16 
REMARK    4  A    between atoms: C13_16  and  C14_17 
REMARK    5  A    between atoms: C14_17  and  C15_18 
REMARK    6  A    between atoms: C15_18  and  N4_19 
REMARK    7  A    between atoms: C22_28  and  C23_29 
ROOT
HETATM    1  C1  UNL     1      26.778   4.000  49.376  1.00  0.00     0.017 C 
HETATM    2  C2  UNL     1      25.550   3.995  49.406  1.00  0.00    -0.082 C 
HETATM    3  C3  UNL     1      24.083   3.967  49.429  1.00  0.00     0.000 C 
HETATM    4  C4  UNL     1      23.456   2.901  48.885  1.00  0.00     0.049 C 
ENDROOT
BRANCH   3   5
HETATM    5  C22 UNL     1      23.614   5.212  50.089  1.00  0.00     0.074 C 
BRANCH   5   6
HETATM    6  C23 UNL     1      23.813   5.258  51.539  1.00  0.00    -0.032 C 
HETATM    7  C24 UNL     1      23.102   4.494  52.377  1.00  0.00     0.007 C 
ENDBRANCH   5   6
ENDBRANCH   3   5
BRANCH   4   8
HETATM    8  C5  UNL     1      22.028   2.711  48.824  1.00  0.00     0.071 A 
HETATM    9  N1  UNL     1      20.987   3.153  48.090  1.00  0.00    -0.241 NA
HETATM   10  C6  UNL     1      19.714   2.749  48.397  1.00  0.00     0.234 A 
HETATM   11  N2  UNL     1      19.370   1.927  49.388  1.00  0.00    -0.245 NA
HETATM   12  C7  UNL     1      20.460   1.540  50.061  1.00  0.00     0.061 A 
HETATM   13  C8  UNL     1      20.150   0.739  51.061  1.00  0.00     0.059 A 
HETATM   14  C12 UNL     1      21.767   1.895  49.824  1.00  0.00     0.017 A 
HETATM   15  C9  UNL     1      19.982  -0.007  52.014  1.00  0.00     0.059 A 
HETATM   16  O2  UNL     1      20.178  -0.019  52.107  1.00  0.00     0.000 OA
HETATM   17  C10 UNL     1      21.466   0.391  51.759  1.00  0.00     0.069 A 
HETATM   18  C20 UNL     1      21.048  -0.418  53.251  1.00  0.00     0.084 A 
HETATM   19  N3  UNL     1      22.354  -0.170  52.724  1.00  0.00    -0.394 N 
HETATM   20  C21 UNL     1      20.624   0.366  54.420  1.00  0.00     0.032 C 
HETATM   21  C11 UNL     1      22.293   1.166  50.881  1.00  0.00     0.021 A 
BRANCH  19  22
HETATM   22  C13 UNL     1      23.752  -0.285  52.841  1.00  0.00     0.120 C 
BRANCH  22  23
HETATM   23  C14 UNL     1      24.434   0.710  53.748  1.00  0.00     0.050 C 
BRANCH  23  24
HETATM   24  C15 UNL     1      25.418   1.598  53.046  1.00  0.00     0.274 C 
BRANCH  24  25
HETATM   25  N4  UNL     1      26.677   1.683  53.741  1.00  0.00     0.092 N 
HETATM   26  C16 UNL     1      27.819   1.922  52.909  1.00  0.00     0.298 C 
HETATM   27  C17 UNL     1      28.944   2.376  53.853  1.00  0.00     0.198 C 
HETATM   28  O1  UNL     1      29.030   1.558  54.971  1.00  0.00    -0.388 OA
HETATM   29  C18 UNL     1      28.399   0.339  54.738  1.00  0.00     0.198 C 
HETATM   30  C19 UNL     1      26.916   0.484  54.509  1.00  0.00     0.298 C 
ENDBRANCH  24  25
ENDBRANCH  23  24
ENDBRANCH  22  23
ENDBRANCH  19  22
ENDBRANCH   4   8
TORSDOF 7
ENDMDL
MODEL 3
REMARK VINA RESULT:      -8.3      2.105      7.356
REMARK  7 active torsions:
REMARK  status: ('A' for Active; 'I' for Inactive)
REMARK    1  A    between atoms: C3_3  and  C22_28 
REMARK    2  A    between atoms: C4_4  and  C5_5 
REMARK    3  A    between atoms: N3_15  and  C13_16 
REMARK    4  A    between atoms: C13_16  and  C14_17 
REMARK    5  A    between atoms: C14_17  and  C15_18 
REMARK    6  A    between atoms: C15_18  and  N4_19 
REMARK    7  A    between atoms: C22_28  and  C23_29 
ROOT
HETATM    1  C1  UNL     1      26.788  -1.262  52.619  1.00  0.00     0.017 C 
HETATM    2  C2  UNL     1      26.753  -0.074  52.311  1.00  0.00    -0.082 C 
HETATM    3  C3  UNL     1      26.706   1.340  51.919  1.00  0.00     0.000 C 
HETATM    4  C4  UNL     1      26.413   1.636  50.634  1.00  0.00     0.049 C 
ENDROOT
BRANCH   3   5
HETATM    5  C22 UNL     1      27.019   2.155  53.119  1.00  0.00     0.074 C 
BRANCH   5   6
HETATM    6  C23 UNL     1      28.440   2.450  53.317  1.00  0.00    -0.032 C 
HETATM    7  C24 UNL     1      29.178   1.805  54.228  1.00  0.00     0.007 C 
ENDBRANCH   5   6
ENDBRANCH   3   5
BRANCH   4   8
HETATM    8  C5  UNL     1      26.325   2.966  50.081  1.00  0.00     0.071 A 
HETATM    9  N1  UNL     1      27.153   3.984  49.779  1.00  0.00    -0.241 NA
HETATM   10  C6  UNL     1      26.643   5.158  49.289  1.00  0.00     0.234 A 
HETATM   11  N2  UNL     1      25.355   5.421  49.065  1.00  0.00    -0.245 NA
HETATM   12  C7  UNL     1      24.609   4.359  49.391  1.00  0.00     0.061 A 
HETATM   13  C8  UNL     1      23.326   4.594  49.198  1.00  0.00     0.059 A 
HETATM   14  C12 UNL     1      25.035   3.149  49.888  1.00  0.00     0.017 A 
HETATM   15  C9  UNL     1      22.116   4.698  49.060  1.00  0.00     0.059 A 
HETATM   16  O2  UNL     1      22.037   4.518  49.150  1.00  0.00     0.000 OA
HETATM   17  C10 UNL     1      22.585   3.326  49.627  1.00  0.00     0.069 A 
HETATM   18  C20 UNL     1      20.884   3.722  49.661  1.00  0.00     0.084 A 
HETATM   19  N3  UNL     1      21.495   2.454  49.917  1.00  0.00    -0.394 N 
HETATM   20  C21 UNL     1      20.320   4.451  50.807  1.00  0.00     0.032 C 
HETATM   21  C11 UNL     1      23.765   2.600  49.998  1.00  0.00     0.021 A 
BRANCH  19  22
HETATM   22  C13 UNL     1      21.370   1.091  50.246  1.00  0.00     0.120 C 
BRANCH  22  23
HETATM   23  C14 UNL     1      20.838   0.779  51.623  1.00  0.00     0.050 C 
BRANCH  23  24
HETATM   24  C15 UNL     1      21.650   1.370  52.738  1.00  0.00     0.274 C 
BRANCH  24  25
HETATM   25  N4  UNL     1      21.991   0.399  53.745  1.00  0.00     0.092 N 
HETATM   26  C16 UNL     1      23.170  -0.371  53.476  1.00  0.00     0.298 C 
HETATM   27  C17 UNL     1      23.568  -1.018  54.813  1.00  0.00     0.198 C 
HETATM   28  O1  UNL     1      22.472  -1.583  55.449  1.00  0.00    -0.388 OA
HETATM   29  C18 UNL     1      21.433  -1.794  54.547  1.00  0.00     0.198 C 
HETATM   30  C19 UNL     1      20.893  -0.511  53.968  1.00  0.00     0.298 C 
ENDBRANCH  24  25
ENDBRANCH  23  24
ENDBRANCH  22  23
ENDBRANCH  19  22
ENDBRANCH   4   8
TORSDOF 7
ENDMDL
MODEL 4
REMARK VINA RESULT:      -8.0      2.192      5.960
REMARK  7 active torsions:
REMARK  status: ('A' for Active; 'I' for Inactive)
REMARK    1  A    between atoms: C3_3  and  C22_28 
REMARK    2  A    between atoms: C4_4  and  C5_5 
REMARK    3  A    between atoms: N3_15  and  C13_16 
REMARK    4  A    between atoms: C13_16  and  C14_17 
REMARK    5  A    between atoms: C14_17  and  C15_18 
REMARK    6  A    between atoms: C15_18  and  N4_19 
REMARK    7  A    between atoms: C22_28  and  C23_29 
ROOT
HETATM    1  C1  UNL     1      23.756   5.107  48.668  1.00  0.00     0.017 C 
HETATM    2  C2  UNL     1      24.490   4.300  49.231  1.00  0.00    -0.082 C 
HETATM    3  C3  UNL     1      25.347   3.327  49.921  1.00  0.00     0.000 C 
HETATM    4  C4  UNL     1      24.789   2.543  50.867  1.00  0.00     0.049 C 
ENDROOT
BRANCH   3   5
HETATM    5  C22 UNL     1      26.719   3.460  49.368  1.00  0.00     0.074 C 
BRANCH   5   6
HETATM    6  C23 UNL     1      27.165   4.834  49.137  1.00  0.00    -0.032 C 
HETATM    7  C24 UNL     1      28.250   5.115  48.404  1.00  0.00     0.007 C 
ENDBRANCH   5   6
ENDBRANCH   3   5
BRANCH   4   8
HETATM    8  C5  UNL     1      25.481   1.538  51.637  1.00  0.00     0.071 A 
HETATM    9  N1  UNL     1      26.719   1.011  51.717  1.00  0.00    -0.241 NA
HETATM   10  C6  UNL     1      26.971  -0.013  52.593  1.00  0.00     0.234 A 
HETATM   11  N2  UNL     1      26.086  -0.575  53.417  1.00  0.00    -0.245 NA
HETATM   12  C7  UNL     1      24.890   0.006  53.270  1.00  0.00     0.061 A 
HETATM   13  C8  UNL     1      23.987  -0.541  54.059  1.00  0.00     0.059 A 
HETATM   14  C12 UNL     1      24.550   1.033  52.420  1.00  0.00     0.017 A 
HETATM   15  C9  UNL     1      23.070  -0.970  54.743  1.00  0.00     0.059 A 
HETATM   16  O2  UNL     1      22.895  -0.868  54.667  1.00  0.00     0.000 OA
HETATM   17  C10 UNL     1      22.671   0.188  53.782  1.00  0.00     0.069 A 
HETATM   18  C20 UNL     1      21.413  -0.714  54.591  1.00  0.00     0.084 A 
HETATM   19  N3  UNL     1      21.283   0.507  53.858  1.00  0.00    -0.394 N 
HETATM   20  C21 UNL     1      20.875  -1.939  53.979  1.00  0.00     0.032 C 
HETATM   21  C11 UNL     1      23.214   1.073  52.793  1.00  0.00     0.021 A 
BRANCH  19  22
HETATM   22  C13 UNL     1      20.473   1.551  53.373  1.00  0.00     0.120 C 
BRANCH  22  23
HETATM   23  C14 UNL     1      19.417   1.169  52.367  1.00  0.00     0.050 C 
BRANCH  23  24
HETATM   24  C15 UNL     1      19.960   0.511  51.133  1.00  0.00     0.274 C 
BRANCH  24  25
HETATM   25  N4  UNL     1      20.400   1.465  50.148  1.00  0.00     0.092 N 
HETATM   26  C16 UNL     1      19.415   1.837  49.176  1.00  0.00     0.298 C 
HETATM   27  C17 UNL     1      19.940   3.120  48.510  1.00  0.00     0.198 C 
HETATM   28  O1  UNL     1      21.278   3.001  48.165  1.00  0.00    -0.388 OA
HETATM   29  C18 UNL     1      21.657   1.662  48.111  1.00  0.00     0.198 C 
HETATM   30  C19 UNL     1      21.567   0.977  49.451  1.00  0.00     0.298 C 
ENDBRANCH  24  25
ENDBRANCH  23  24
ENDBRANCH  22  23
ENDBRANCH  19  22
ENDBRANCH   4   8
TORSDOF 7
ENDMDL
MODEL 5
REMARK VINA RESULT:      -8.0      1.531      2.008
REMARK  7 active torsions:
REMARK  status: ('A' for Active; 'I' for Inactive)
REMARK    1  A    between atoms: C3_3  and  C22_28 
REMARK    2  A    between atoms: C4_4  and  C5_5 
REMARK    3  A    between atoms: N3_15  and  C13_16 
REMARK    4  A    between atoms: C13_16  and  C14_17 
REMARK    5  A    between atoms: C14_17  and  C15_18 
REMARK    6  A    between atoms: C15_18  and  N4_19 
REMARK    7  A    between atoms: C22_28  and  C23_29 
ROOT
HETATM    1  C1  UNL     1      18.716   3.622  51.125  1.00  0.00     0.017 C 
HETATM    2  C2  UNL     1      19.235   2.610  51.590  1.00  0.00    -0.082 C 
HETATM    3  C3  UNL     1      19.872   1.416  52.158  1.00  0.00     0.000 C 
HETATM    4  C4  UNL     1      20.883   1.589  53.036  1.00  0.00     0.049 C 
ENDROOT
BRANCH   3   5
HETATM    5  C22 UNL     1      19.201   0.224  51.580  1.00  0.00     0.074 C 
BRANCH   5   6
HETATM    6  C23 UNL     1      18.009  -0.227  52.300  1.00  0.00    -0.032 C 
HETATM    7  C24 UNL     1      17.988  -1.376  52.987  1.00  0.00     0.007 C 
ENDBRANCH   5   6
ENDBRANCH   3   5
BRANCH   4   8
HETATM    8  C5  UNL     1      21.616   0.531  53.688  1.00  0.00     0.071 A 
HETATM    9  N1  UNL     1      21.385  -0.440  54.594  1.00  0.00    -0.241 NA
HETATM   10  C6  UNL     1      22.412  -1.250  55.005  1.00  0.00     0.234 A 
HETATM   11  N2  UNL     1      23.677  -1.183  54.590  1.00  0.00    -0.245 NA
HETATM   12  C7  UNL     1      23.815  -0.196  53.697  1.00  0.00     0.061 A 
HETATM   13  C8  UNL     1      25.061  -0.092  53.281  1.00  0.00     0.059 A 
HETATM   14  C12 UNL     1      22.844   0.660  53.231  1.00  0.00     0.017 A 
HETATM   15  C9  UNL     1      26.179   0.097  52.826  1.00  0.00     0.059 A 
HETATM   16  O2  UNL     1      26.159   0.280  52.711  1.00  0.00     0.000 OA
HETATM   17  C10 UNL     1      25.091   1.076  52.293  1.00  0.00     0.069 A 
HETATM   18  C20 UNL     1      26.773   1.416  51.964  1.00  0.00     0.084 A 
HETATM   19  N3  UNL     1      25.623   2.044  51.391  1.00  0.00    -0.394 N 
HETATM   20  C21 UNL     1      27.569   2.195  52.924  1.00  0.00     0.032 C 
HETATM   21  C11 UNL     1      23.694   1.380  52.403  1.00  0.00     0.021 A 
BRANCH  19  22
HETATM   22  C13 UNL     1      25.070   2.993  50.511  1.00  0.00     0.120 C 
BRANCH  22  23
HETATM   23  C14 UNL     1      26.008   3.585  49.488  1.00  0.00     0.050 C 
BRANCH  23  24
HETATM   24  C15 UNL     1      25.992   5.085  49.444  1.00  0.00     0.274 C 
BRANCH  24  25
HETATM   25  N4  UNL     1      24.762   5.638  49.949  1.00  0.00     0.092 N 
HETATM   26  C16 UNL     1      23.768   5.924  48.957  1.00  0.00     0.298 C 
HETATM   27  C17 UNL     1      22.445   6.101  49.720  1.00  0.00     0.198 C 
HETATM   28  O1  UNL     1      22.605   6.917  50.831  1.00  0.00    -0.388 OA
HETATM   29  C18 UNL     1      23.763   7.682  50.717  1.00  0.00     0.198 C 
HETATM   30  C19 UNL     1      25.016   6.844  50.701  1.00  0.00     0.298 C 
ENDBRANCH  24  25
ENDBRANCH  23  24
ENDBRANCH  22  23
ENDBRANCH  19  22
ENDBRANCH   4   8
TORSDOF 7
ENDMDL
MODEL 6
REMARK VINA RESULT:      -7.9      2.310      6.455
REMARK  7 active torsions:
REMARK  status: ('A' for Active; 'I' for Inactive)
REMARK    1  A    between atoms: C3_3  and  C22_28 
REMARK    2  A    between atoms: C4_4  and  C5_5 
REMARK    3  A    between atoms: N3_15  and  C13_16 
REMARK    4  A    between atoms: C13_16  and  C14_17 
REMARK    5  A    between atoms: C14_17  and  C15_18 
REMARK    6  A    between atoms: C15_18  and  N4_19 
REMARK    7  A    between atoms: C22_28  and  C23_29 
ROOT
HETATM    1  C1  UNL     1      25.908   4.525  49.180  1.00  0.00     0.017 C 
HETATM    2  C2  UNL     1      24.710   4.288  49.307  1.00  0.00    -0.082 C 
HETATM    3  C3  UNL     1      23.280   4.006  49.486  1.00  0.00     0.000 C 
HETATM    4  C4  UNL     1      22.771   4.055  50.735  1.00  0.00     0.049 C 
ENDROOT
BRANCH   3   5
HETATM    5  C22 UNL     1      22.705   3.710  48.149  1.00  0.00     0.074 C 
BRANCH   5   6
HETATM    6  C23 UNL     1      22.665   2.291  47.791  1.00  0.00    -0.032 C 
HETATM    7  C24 UNL     1      21.742   1.459  48.288  1.00  0.00     0.007 C 
ENDBRANCH   5   6
ENDBRANCH   3   5
BRANCH   4   8
HETATM    8  C5  UNL     1      21.394   3.808  51.089  1.00  0.00     0.071 A 
HETATM    9  N1  UNL     1      20.209   4.445  51.015  1.00  0.00    -0.241 NA
HETATM   10  C6  UNL     1      19.084   3.859  51.533  1.00  0.00     0.234 A 
HETATM   11  N2  UNL     1      19.025   2.670  52.133  1.00  0.00    -0.245 NA
HETATM   12  C7  UNL     1      20.241   2.111  52.162  1.00  0.00     0.061 A 
HETATM   13  C8  UNL     1      20.219   0.940  52.767  1.00  0.00     0.059 A 
HETATM   14  C12 UNL     1      21.417   2.627  51.670  1.00  0.00     0.017 A 
HETATM   15  C9  UNL     1      20.319  -0.152  53.306  1.00  0.00     0.059 A 
HETATM   16  O2  UNL     1      20.533  -0.188  53.312  1.00  0.00     0.000 OA
HETATM   17  C10 UNL     1      21.658   0.422  52.757  1.00  0.00     0.069 A 
HETATM   18  C20 UNL     1      21.700  -0.974  53.807  1.00  0.00     0.084 A 
HETATM   19  N3  UNL     1      22.768  -0.432  53.026  1.00  0.00    -0.394 N 
HETATM   20  C21 UNL     1      21.763  -0.797  55.265  1.00  0.00     0.032 C 
HETATM   21  C11 UNL     1      22.204   1.556  52.068  1.00  0.00     0.021 A 
BRANCH  19  22
HETATM   22  C13 UNL     1      24.109  -0.485  52.600  1.00  0.00     0.120 C 
BRANCH  22  23
HETATM   23  C14 UNL     1      25.091   0.364  53.368  1.00  0.00     0.050 C 
BRANCH  23  24
HETATM   24  C15 UNL     1      26.084   1.080  52.500  1.00  0.00     0.274 C 
BRANCH  24  25
HETATM   25  N4  UNL     1      27.446   0.741  52.826  1.00  0.00     0.092 N 
HETATM   26  C16 UNL     1      27.607  -0.442  53.619  1.00  0.00     0.298 C 
HETATM   27  C17 UNL     1      29.088  -0.835  53.498  1.00  0.00     0.198 C 
HETATM   28  O1  UNL     1      29.920   0.262  53.669  1.00  0.00    -0.388 OA
HETATM   29  C18 UNL     1      29.246   1.295  54.315  1.00  0.00     0.198 C 
HETATM   30  C19 UNL     1      28.096   1.837  53.504  1.00  0.00     0.298 C 
ENDBRANCH  24  25
ENDBRANCH  23  24
ENDBRANCH  22  23
ENDBRANCH  19  22
ENDBRANCH   4   8
TORSDOF 7
ENDMDL
MODEL 7
REMARK VINA RESULT:      -7.8      2.278      3.246
REMARK  7 active torsions:
REMARK  status: ('A' for Active; 'I' for Inactive)
REMARK    1  A    between atoms: C3_3  and  C22_28 
REMARK    2  A    between atoms: C4_4  and  C5_5 
REMARK    3  A    between atoms: N3_15  and  C13_16 
REMARK    4  A    between atoms: C13_16  and  C14_17 
REMARK    5  A    between atoms: C14_17  and  C15_18 
REMARK    6  A    between atoms: C15_18  and  N4_19 
REMARK    7  A    between atoms: C22_28  and  C23_29 
ROOT
HETATM    1  C1  UNL     1      18.840   4.223  51.198  1.00  0.00     0.017 C 
HETATM    2  C2  UNL     1      19.315   3.124  51.472  1.00  0.00    -0.082 C 
HETATM    3  C3  UNL     1      19.890   1.820  51.824  1.00  0.00     0.000 C 
HETATM    4  C4  UNL     1      20.444   1.675  53.047  1.00  0.00     0.049 C 
ENDROOT
BRANCH   3   5
HETATM    5  C22 UNL     1      19.712   0.916  50.659  1.00  0.00     0.074 C 
BRANCH   5   6
HETATM    6  C23 UNL     1      20.915   0.694  49.856  1.00  0.00    -0.032 C 
HETATM    7  C24 UNL     1      21.700   1.703  49.458  1.00  0.00     0.007 C 
ENDBRANCH   5   6
ENDBRANCH   3   5
BRANCH   4   8
HETATM    8  C5  UNL     1      21.050   0.469  53.554  1.00  0.00     0.071 A 
HETATM    9  N1  UNL     1      20.673  -0.642  54.217  1.00  0.00    -0.241 NA
HETATM   10  C6  UNL     1      21.609  -1.578  54.572  1.00  0.00     0.234 A 
HETATM   11  N2  UNL     1      22.917  -1.511  54.325  1.00  0.00    -0.245 NA
HETATM   12  C7  UNL     1      23.201  -0.380  53.667  1.00  0.00     0.061 A 
HETATM   13  C8  UNL     1      24.493  -0.276  53.423  1.00  0.00     0.059 A 
HETATM   14  C12 UNL     1      22.329   0.608  53.274  1.00  0.00     0.017 A 
HETATM   15  C9  UNL     1      25.664  -0.072  53.144  1.00  0.00     0.059 A 
HETATM   16  O2  UNL     1      25.666   0.131  53.066  1.00  0.00     0.000 OA
HETATM   17  C10 UNL     1      24.689   1.056  52.697  1.00  0.00     0.069 A 
HETATM   18  C20 UNL     1      26.410   1.349  52.633  1.00  0.00     0.084 A 
HETATM   19  N3  UNL     1      25.363   2.145  52.071  1.00  0.00    -0.394 N 
HETATM   20  C21 UNL     1      27.111   1.878  53.813  1.00  0.00     0.032 C 
HETATM   21  C11 UNL     1      23.301   1.419  52.706  1.00  0.00     0.021 A 
BRANCH  19  22
HETATM   22  C13 UNL     1      24.960   3.279  51.340  1.00  0.00     0.120 C 
BRANCH  22  23
HETATM   23  C14 UNL     1      25.107   3.198  49.841  1.00  0.00     0.050 C 
BRANCH  23  24
HETATM   24  C15 UNL     1      26.486   3.522  49.345  1.00  0.00     0.274 C 
BRANCH  24  25
HETATM   25  N4  UNL     1      26.756   4.937  49.356  1.00  0.00     0.092 N 
HETATM   26  C16 UNL     1      25.671   5.769  48.925  1.00  0.00     0.298 C 
HETATM   27  C17 UNL     1      26.015   7.192  49.395  1.00  0.00     0.198 C 
HETATM   28  O1  UNL     1      27.331   7.519  49.101  1.00  0.00    -0.388 OA
HETATM   29  C18 UNL     1      27.838   6.682  48.111  1.00  0.00     0.198 C 
HETATM   30  C19 UNL     1      27.913   5.241  48.548  1.00  0.00     0.298 C 
ENDBRANCH  24  25
ENDBRANCH  23  24
ENDBRANCH  22  23
ENDBRANCH  19  22
ENDBRANCH   4   8
TORSDOF 7
ENDMDL
MODEL 8
REMARK VINA RESULT:      -7.8      2.478      7.600
REMARK  7 active torsions:
REMARK  status: ('A' for Active; 'I' for Inactive)
REMARK    1  A    between atoms: C3_3  and  C22_28 
REMARK    2  A    between atoms: C4_4  and  C5_5 
REMARK    3  A    between atoms: N3_15  and  C13_16 
REMARK    4  A    between atoms: C13_16  and  C14_17 
REMARK    5  A    between atoms: C14_17  and  C15_18 
REMARK    6  A    between atoms: C15_18  and  N4_19 
REMARK    7  A    between atoms: C22_28  and  C23_29 
ROOT
HETATM    1  C1  UNL     1      26.185   8.392  50.643  1.00  0.00     0.017 C 
HETATM    2  C2  UNL     1      25.743   7.506  49.917  1.00  0.00    -0.082 C 
HETATM    3  C3  UNL     1      25.191   6.449  49.060  1.00  0.00     0.000 C 
HETATM    4  C4  UNL     1      23.877   6.157  49.173  1.00  0.00     0.049 C 
ENDROOT
BRANCH   3   5
HETATM    5  C22 UNL     1      26.297   5.920  48.222  1.00  0.00     0.074 C 
BRANCH   5   6
HETATM    6  C23 UNL     1      27.208   5.001  48.906  1.00  0.00    -0.032 C 
HETATM    7  C24 UNL     1      26.802   3.811  49.368  1.00  0.00     0.007 C 
ENDBRANCH   5   6
ENDBRANCH   3   5
BRANCH   4   8
HETATM    8  C5  UNL     1      23.174   5.154  48.411  1.00  0.00     0.071 A 
HETATM    9  N1  UNL     1      22.620   5.027  47.189  1.00  0.00    -0.241 NA
HETATM   10  C6  UNL     1      21.972   3.868  46.850  1.00  0.00     0.234 A 
HETATM   11  N2  UNL     1      21.818   2.798  47.631  1.00  0.00    -0.245 NA
HETATM   12  C7  UNL     1      22.396   3.011  48.819  1.00  0.00     0.061 A 
HETATM   13  C8  UNL     1      22.245   1.977  49.621  1.00  0.00     0.059 A 
HETATM   14  C12 UNL     1      23.063   4.138  49.241  1.00  0.00     0.017 A 
HETATM   15  C9  UNL     1      22.168   1.081  50.449  1.00  0.00     0.059 A 
HETATM   16  O2  UNL     1      22.248   1.170  50.630  1.00  0.00     0.000 OA
HETATM   17  C10 UNL     1      22.921   2.352  50.941  1.00  0.00     0.069 A 
HETATM   18  C20 UNL     1      22.476   1.126  52.104  1.00  0.00     0.084 A 
HETATM   19  N3  UNL     1      23.350   2.241  52.297  1.00  0.00    -0.394 N 
HETATM   20  C21 UNL     1      21.157   1.171  52.754  1.00  0.00     0.032 C 
HETATM   21  C11 UNL     1      23.339   3.655  50.513  1.00  0.00     0.021 A 
BRANCH  19  22
HETATM   22  C13 UNL     1      24.204   2.983  53.135  1.00  0.00     0.120 C 
BRANCH  22  23
HETATM   23  C14 UNL     1      25.510   2.329  53.511  1.00  0.00     0.050 C 
BRANCH  23  24
HETATM   24  C15 UNL     1      26.322   1.871  52.335  1.00  0.00     0.274 C 
BRANCH  24  25
HETATM   25  N4  UNL     1      27.542   1.216  52.730  1.00  0.00     0.092 N 
HETATM   26  C16 UNL     1      27.371   0.017  53.496  1.00  0.00     0.298 C 
HETATM   27  C17 UNL     1      28.725  -0.712  53.451  1.00  0.00     0.198 C 
HETATM   28  O1  UNL     1      29.777   0.156  53.703  1.00  0.00    -0.388 OA
HETATM   29  C18 UNL     1      29.323   1.309  54.339  1.00  0.00     0.198 C 
HETATM   30  C19 UNL     1      28.386   2.118  53.478  1.00  0.00     0.298 C 
ENDBRANCH  24  25
ENDBRANCH  23  24
ENDBRANCH  22  23
ENDBRANCH  19  22
ENDBRANCH   4   8
TORSDOF 7
ENDMDL
MODEL 9
REMARK VINA RESULT:      -7.7      2.080      5.819
REMARK  7 active torsions:
REMARK  status: ('A' for Active; 'I' for Inactive)
REMARK    1  A    between atoms: C3_3  and  C22_28 
REMARK    2  A    between atoms: C4_4  and  C5_5 
REMARK    3  A    between atoms: N3_15  and  C13_16 
REMARK    4  A    between atoms: C13_16  and  C14_17 
REMARK    5  A    between atoms: C14_17  and  C15_18 
REMARK    6  A    between atoms: C15_18  and  N4_19 
REMARK    7  A    between atoms: C22_28  and  C23_29 
ROOT
HETATM    1  C1  UNL     1      26.656   2.816  50.771  1.00  0.00     0.017 C 
HETATM    2  C2  UNL     1      26.192   1.900  51.444  1.00  0.00    -0.082 C 
HETATM    3  C3  UNL     1      25.617   0.820  52.255  1.00  0.00     0.000 C 
HETATM    4  C4  UNL     1      24.403   1.017  52.812  1.00  0.00     0.049 C 
ENDROOT
BRANCH   3   5
HETATM    5  C22 UNL     1      26.586  -0.306  52.265  1.00  0.00     0.074 C 
BRANCH   5   6
HETATM    6  C23 UNL     1      27.360  -0.446  53.499  1.00  0.00    -0.032 C 
HETATM    7  C24 UNL     1      28.526   0.186  53.682  1.00  0.00     0.007 C 
ENDBRANCH   5   6
ENDBRANCH   3   5
BRANCH   4   8
HETATM    8  C5  UNL     1      23.694   0.066  53.633  1.00  0.00     0.071 A 
HETATM    9  N1  UNL     1      23.983  -0.894  54.534  1.00  0.00    -0.241 NA
HETATM   10  C6  UNL     1      22.974  -1.646  55.078  1.00  0.00     0.234 A 
HETATM   11  N2  UNL     1      21.675  -1.530  54.805  1.00  0.00    -0.245 NA
HETATM   12  C7  UNL     1      21.481  -0.559  53.905  1.00  0.00     0.061 A 
HETATM   13  C8  UNL     1      20.205  -0.431  53.600  1.00  0.00     0.059 A 
HETATM   14  C12 UNL     1      22.430   0.240  53.310  1.00  0.00     0.017 A 
HETATM   15  C9  UNL     1      19.056  -0.224  53.241  1.00  0.00     0.059 A 
HETATM   16  O2  UNL     1      19.076  -0.082  53.078  1.00  0.00     0.000 OA
HETATM   17  C10 UNL     1      20.120   0.683  52.556  1.00  0.00     0.069 A 
HETATM   18  C20 UNL     1      18.491   0.661  51.925  1.00  0.00     0.084 A 
HETATM   19  N3  UNL     1      19.546   1.570  51.598  1.00  0.00    -0.394 N 
HETATM   20  C21 UNL     1      18.107  -0.332  50.911  1.00  0.00     0.032 C 
HETATM   21  C11 UNL     1      21.530   0.946  52.524  1.00  0.00     0.021 A 
BRANCH  19  22
HETATM   22  C13 UNL     1      20.006   2.684  50.870  1.00  0.00     0.120 C 
BRANCH  22  23
HETATM   23  C14 UNL     1      20.424   2.428  49.444  1.00  0.00     0.050 C 
BRANCH  23  24
HETATM   24  C15 UNL     1      21.203   3.552  48.826  1.00  0.00     0.274 C 
BRANCH  24  25
HETATM   25  N4  UNL     1      21.837   4.389  49.812  1.00  0.00     0.092 N 
HETATM   26  C16 UNL     1      21.611   5.796  49.655  1.00  0.00     0.298 C 
HETATM   27  C17 UNL     1      22.009   6.441  50.993  1.00  0.00     0.198 C 
HETATM   28  O1  UNL     1      23.227   5.957  51.447  1.00  0.00    -0.388 OA
HETATM   29  C18 UNL     1      23.945   5.374  50.406  1.00  0.00     0.198 C 
HETATM   30  C19 UNL     1      23.262   4.156  49.837  1.00  0.00     0.298 C 
ENDBRANCH  24  25
ENDBRANCH  23  24
ENDBRANCH  22  23
ENDBRANCH  19  22
ENDBRANCH   4   8
TORSDOF 7
ENDMDL
