MODEL 1
REMARK VINA RESULT:      -8.3      0.000      0.000
REMARK  6 active torsions:
REMARK  status: ('A' for Active; 'I' for Inactive)
REMARK    1  A    between atoms: N1_2  and  C2_3 
REMARK    2  A    between atoms: C4_5  and  N2_6 
REMARK    3  A    between atoms: C5_7  and  C6_8 
REMARK    4  A    between atoms: C7_9  and  N3_10 
REMARK    5  A    between atoms: C7_9  and  N4_11 
REMARK    6  A    between atoms: N4_11  and  C8_12 
ROOT
HETATM    1  C6  UNL     1      25.703   4.178  49.292  1.00  0.00     0.067 C 
HETATM    2  C7  UNL     1      25.759   5.483  49.525  1.00  0.00     0.100 C 
ENDROOT
BRANCH   1   3
HETATM    3  C5  UNL     1      25.212   3.252  50.311  1.00  0.00     0.118 C 
HETATM    4  N2  UNL     1      25.945   2.833  51.288  1.00  0.00    -0.256 NA
BRANCH   4   5
HETATM    5  C4  UNL     1      25.423   1.927  52.265  1.00  0.00     0.219 A 
HETATM    6  C3  UNL     1      25.735   2.288  53.690  1.00  0.00     0.066 A 
HETATM    7  C2  UNL     1      26.415   1.190  53.977  1.00  0.00     0.052 A 
HETATM    8  C21 UNL     1      26.179   0.735  52.614  1.00  0.00     0.281 A 
HETATM    9  N6  UNL     1      25.366  -0.423  52.289  1.00  0.00     0.114 N 
HETATM   10  C20 UNL     1      26.724  -0.360  51.947  1.00  0.00     0.328 A 
HETATM   11  C19 UNL     1      24.772  -0.843  53.496  1.00  0.00     0.276 C 
HETATM   12  C18 UNL     1      23.424  -0.159  53.587  1.00  0.00     0.056 C 
HETATM   13  C17 UNL     1      23.429   1.293  53.256  1.00  0.00     0.173 C 
HETATM   14  O1  UNL     1      24.072   1.638  52.079  1.00  0.00    -0.353 OA
BRANCH   7  15
HETATM   15  N1  UNL     1      27.084   0.711  55.162  1.00  0.00    -0.395 N 
HETATM   16  C1  UNL     1      28.457   0.252  55.059  1.00  0.00     0.146 C 
HETATM   17  H4  UNL     1      26.548   0.715  56.042  1.00  0.00     0.159 HD
ENDBRANCH   7  15
ENDBRANCH   4   5
ENDBRANCH   1   3
BRANCH   2  18
HETATM   18  N3  UNL     1      25.342   5.990  50.767  1.00  0.00    -0.385 N 
HETATM   19  H8  UNL     1      25.101   6.981  51.069  1.00  0.00     0.157 HD
HETATM   20  H9  UNL     1      25.094   5.840  51.777  1.00  0.00     0.157 HD
ENDBRANCH   2  18
BRANCH   2  21
HETATM   21  N4  UNL     1      26.247   6.329  48.490  1.00  0.00    -0.342 N 
HETATM   22  H10 UNL     1      25.581   6.571  47.718  1.00  0.00     0.167 HD
BRANCH  21  23
HETATM   23  C8  UNL     1      27.581   6.823  48.508  1.00  0.00     0.052 A 
HETATM   24  C9  UNL     1      27.944   8.111  48.846  1.00  0.00     0.146 A 
HETATM   25  N5  UNL     1      29.244   8.461  48.825  1.00  0.00    -0.258 NA
HETATM   26  C10 UNL     1      30.224   7.600  48.483  1.00  0.00     0.066 A 
HETATM   27  C11 UNL     1      31.558   7.954  48.460  1.00  0.00     0.032 A 
HETATM   28  C15 UNL     1      29.916   6.285  48.132  1.00  0.00    -0.005 A 
HETATM   29  C12 UNL     1      32.561   7.066  48.109  1.00  0.00     0.002 A 
HETATM   30  C13 UNL     1      32.178   5.769  47.770  1.00  0.00     0.001 A 
HETATM   31  C14 UNL     1      30.868   5.341  47.770  1.00  0.00     0.014 A 
HETATM   32  C16 UNL     1      28.578   5.937  48.158  1.00  0.00     0.044 A 
ENDBRANCH  21  23
ENDBRANCH   2  21
TORSDOF 6
ENDMDL
MODEL 2
REMARK VINA RESULT:      -8.1      3.114      8.791
REMARK  6 active torsions:
REMARK  status: ('A' for Active; 'I' for Inactive)
REMARK    1  A    between atoms: N1_2  and  C2_3 
REMARK    2  A    between atoms: C4_5  and  N2_6 
REMARK    3  A    between atoms: C5_7  and  C6_8 
REMARK    4  A    between atoms: C7_9  and  N3_10 
REMARK    5  A    between atoms: C7_9  and  N4_11 
REMARK    6  A    between atoms: N4_11  and  C8_12 
ROOT
HETATM    1  C6  UNL     1      28.006   5.258  48.317  1.00  0.00     0.067 C 
HETATM    2  C7  UNL     1      27.128   6.077  48.883  1.00  0.00     0.100 C 
ENDROOT
BRANCH   1   3
HETATM    3  C5  UNL     1      29.415   5.631  48.200  1.00  0.00     0.118 C 
HETATM    4  N2  UNL     1      30.332   4.795  47.844  1.00  0.00    -0.256 NA
BRANCH   4   5
HETATM    5  C4  UNL     1      31.701   5.202  47.741  1.00  0.00     0.219 A 
HETATM    6  C3  UNL     1      31.982   6.201  46.654  1.00  0.00     0.066 A 
HETATM    7  C2  UNL     1      32.828   5.445  45.973  1.00  0.00     0.052 A 
HETATM    8  C21 UNL     1      32.631   4.398  46.966  1.00  0.00     0.281 A 
HETATM    9  N6  UNL     1      33.680   3.939  47.860  1.00  0.00     0.114 N 
HETATM   10  C20 UNL     1      33.064   3.074  46.943  1.00  0.00     0.328 A 
HETATM   11  C19 UNL     1      34.775   4.805  47.666  1.00  0.00     0.276 C 
HETATM   12  C18 UNL     1      34.648   5.913  48.690  1.00  0.00     0.056 C 
HETATM   13  C17 UNL     1      33.285   6.497  48.824  1.00  0.00     0.173 C 
HETATM   14  O1  UNL     1      32.252   5.584  48.963  1.00  0.00    -0.353 OA
BRANCH   7  15
HETATM   15  N1  UNL     1      33.588   5.640  44.762  1.00  0.00    -0.395 N 
HETATM   16  C1  UNL     1      33.253   4.856  43.587  1.00  0.00     0.146 C 
HETATM   17  H4  UNL     1      34.347   6.337  44.786  1.00  0.00     0.159 HD
ENDBRANCH   7  15
ENDBRANCH   4   5
ENDBRANCH   1   3
BRANCH   2  18
HETATM   18  N3  UNL     1      27.551   7.321  49.379  1.00  0.00    -0.385 N 
HETATM   19  H8  UNL     1      27.810   7.627  50.363  1.00  0.00     0.157 HD
HETATM   20  H9  UNL     1      27.794   8.332  49.221  1.00  0.00     0.157 HD
ENDBRANCH   2  18
BRANCH   2  21
HETATM   21  N4  UNL     1      25.772   5.653  48.966  1.00  0.00    -0.342 N 
HETATM   22  H10 UNL     1      25.121   5.993  48.219  1.00  0.00     0.167 HD
BRANCH  21  23
HETATM   23  C8  UNL     1      25.327   4.806  50.018  1.00  0.00     0.052 A 
HETATM   24  C9  UNL     1      24.251   5.065  50.842  1.00  0.00     0.146 A 
HETATM   25  N5  UNL     1      23.926   4.183  51.806  1.00  0.00    -0.258 NA
HETATM   26  C10 UNL     1      24.612   3.039  52.008  1.00  0.00     0.066 A 
HETATM   27  C11 UNL     1      24.282   2.132  52.995  1.00  0.00     0.032 A 
HETATM   28  C15 UNL     1      25.709   2.725  51.206  1.00  0.00    -0.005 A 
HETATM   29  C12 UNL     1      24.990   0.960  53.199  1.00  0.00     0.002 A 
HETATM   30  C13 UNL     1      26.075   0.712  52.358  1.00  0.00     0.001 A 
HETATM   31  C14 UNL     1      26.465   1.569  51.351  1.00  0.00     0.014 A 
HETATM   32  C16 UNL     1      26.033   3.639  50.219  1.00  0.00     0.044 A 
ENDBRANCH  21  23
ENDBRANCH   2  21
TORSDOF 6
ENDMDL
MODEL 3
REMARK VINA RESULT:      -8.1      2.731      9.009
REMARK  6 active torsions:
REMARK  status: ('A' for Active; 'I' for Inactive)
REMARK    1  A    between atoms: N1_2  and  C2_3 
REMARK    2  A    between atoms: C4_5  and  N2_6 
REMARK    3  A    between atoms: C5_7  and  C6_8 
REMARK    4  A    between atoms: C7_9  and  N3_10 
REMARK    5  A    between atoms: C7_9  and  N4_11 
REMARK    6  A    between atoms: N4_11  and  C8_12 
ROOT
HETATM    1  C6  UNL     1      27.503   4.690  48.619  1.00  0.00     0.067 C 
HETATM    2  C7  UNL     1      26.464   5.144  49.308  1.00  0.00     0.100 C 
ENDROOT
BRANCH   1   3
HETATM    3  C5  UNL     1      28.690   5.519  48.416  1.00  0.00     0.118 C 
HETATM    4  N2  UNL     1      29.797   5.053  47.942  1.00  0.00    -0.256 NA
BRANCH   4   5
HETATM    5  C4  UNL     1      30.936   5.901  47.758  1.00  0.00     0.219 A 
HETATM    6  C3  UNL     1      32.035   5.308  46.922  1.00  0.00     0.066 A 
HETATM    7  C2  UNL     1      32.969   5.342  47.859  1.00  0.00     0.052 A 
HETATM    8  C21 UNL     1      31.985   5.919  48.764  1.00  0.00     0.281 A 
HETATM    9  N6  UNL     1      32.080   7.270  49.289  1.00  0.00     0.114 N 
HETATM   10  C20 UNL     1      32.082   6.151  50.134  1.00  0.00     0.328 A 
HETATM   11  C19 UNL     1      33.160   7.881  48.621  1.00  0.00     0.276 C 
HETATM   12  C18 UNL     1      32.587   8.593  47.413  1.00  0.00     0.056 C 
HETATM   13  C17 UNL     1      31.606   7.802  46.620  1.00  0.00     0.173 C 
HETATM   14  O1  UNL     1      30.599   7.190  47.348  1.00  0.00    -0.353 OA
BRANCH   7  15
HETATM   15  N1  UNL     1      34.357   4.951  47.899  1.00  0.00    -0.395 N 
HETATM   16  C1  UNL     1      34.692   3.539  47.912  1.00  0.00     0.146 C 
HETATM   17  H4  UNL     1      35.060   5.705  47.917  1.00  0.00     0.159 HD
ENDBRANCH   7  15
ENDBRANCH   4   5
ENDBRANCH   1   3
BRANCH   2  18
HETATM   18  N3  UNL     1      26.497   6.437  49.853  1.00  0.00    -0.385 N 
HETATM   19  H8  UNL     1      26.159   6.806  50.792  1.00  0.00     0.157 HD
HETATM   20  H9  UNL     1      26.747   7.455  49.774  1.00  0.00     0.157 HD
ENDBRANCH   2  18
BRANCH   2  21
HETATM   21  N4  UNL     1      25.340   4.285  49.469  1.00  0.00    -0.342 N 
HETATM   22  H10 UNL     1      24.508   4.471  48.860  1.00  0.00     0.167 HD
BRANCH  21  23
HETATM   23  C8  UNL     1      25.351   3.224  50.416  1.00  0.00     0.052 A 
HETATM   24  C9  UNL     1      26.479   2.732  51.041  1.00  0.00     0.146 A 
HETATM   25  N5  UNL     1      26.361   1.720  51.922  1.00  0.00    -0.258 NA
HETATM   26  C10 UNL     1      25.175   1.155  52.227  1.00  0.00     0.066 A 
HETATM   27  C11 UNL     1      25.050   0.118  53.129  1.00  0.00     0.032 A 
HETATM   28  C15 UNL     1      24.002   1.611  51.626  1.00  0.00    -0.005 A 
HETATM   29  C12 UNL     1      23.830  -0.460  53.439  1.00  0.00     0.002 A 
HETATM   30  C13 UNL     1      22.700   0.048  52.799  1.00  0.00     0.001 A 
HETATM   31  C14 UNL     1      22.745   1.082  51.888  1.00  0.00     0.014 A 
HETATM   32  C16 UNL     1      24.135   2.651  50.723  1.00  0.00     0.044 A 
ENDBRANCH  21  23
ENDBRANCH   2  21
TORSDOF 6
ENDMDL
MODEL 4
REMARK VINA RESULT:      -8.0      2.355      8.682
REMARK  6 active torsions:
REMARK  status: ('A' for Active; 'I' for Inactive)
REMARK    1  A    between atoms: N1_2  and  C2_3 
REMARK    2  A    between atoms: C4_5  and  N2_6 
REMARK    3  A    between atoms: C5_7  and  C6_8 
REMARK    4  A    between atoms: C7_9  and  N3_10 
REMARK    5  A    between atoms: C7_9  and  N4_11 
REMARK    6  A    between atoms: N4_11  and  C8_12 
ROOT
HETATM    1  C6  UNL     1      26.957   4.254  48.975  1.00  0.00     0.067 C 
HETATM    2  C7  UNL     1      25.963   4.329  49.851  1.00  0.00     0.100 C 
ENDROOT
BRANCH   1   3
HETATM    3  C5  UNL     1      27.755   5.433  48.640  1.00  0.00     0.118 C 
HETATM    4  N2  UNL     1      29.044   5.408  48.567  1.00  0.00    -0.256 NA
BRANCH   4   5
HETATM    5  C4  UNL     1      29.787   6.586  48.235  1.00  0.00     0.219 A 
HETATM    6  C3  UNL     1      30.270   6.646  46.814  1.00  0.00     0.066 A 
HETATM    7  C2  UNL     1      31.562   6.694  47.097  1.00  0.00     0.052 A 
HETATM    8  C21 UNL     1      31.213   6.635  48.510  1.00  0.00     0.281 A 
HETATM    9  N6  UNL     1      31.454   7.726  49.437  1.00  0.00     0.114 N 
HETATM   10  C20 UNL     1      32.047   6.468  49.614  1.00  0.00     0.328 A 
HETATM   11  C19 UNL     1      31.897   8.816  48.662  1.00  0.00     0.276 C 
HETATM   12  C18 UNL     1      30.673   9.635  48.311  1.00  0.00     0.056 C 
HETATM   13  C17 UNL     1      29.500   8.848  47.840  1.00  0.00     0.173 C 
HETATM   14  O1  UNL     1      29.151   7.763  48.626  1.00  0.00    -0.353 OA
BRANCH   7  15
HETATM   15  N1  UNL     1      32.758   6.769  46.295  1.00  0.00    -0.395 N 
HETATM   16  C1  UNL     1      33.484   5.547  45.996  1.00  0.00     0.146 C 
HETATM   17  H4  UNL     1      33.049   7.701  45.964  1.00  0.00     0.159 HD
ENDBRANCH   7  15
ENDBRANCH   4   5
ENDBRANCH   1   3
BRANCH   2  18
HETATM   18  N3  UNL     1      25.667   5.555  50.468  1.00  0.00    -0.385 N 
HETATM   19  H8  UNL     1      24.740   6.057  50.610  1.00  0.00     0.157 HD
HETATM   20  H9  UNL     1      25.979   6.420  50.976  1.00  0.00     0.157 HD
ENDBRANCH   2  18
BRANCH   2  21
HETATM   21  N4  UNL     1      25.227   3.145  50.132  1.00  0.00    -0.342 N 
HETATM   22  H10 UNL     1      24.440   2.907  49.482  1.00  0.00     0.167 HD
BRANCH  21  23
HETATM   23  C8  UNL     1      25.549   2.322  51.247  1.00  0.00     0.052 A 
HETATM   24  C9  UNL     1      24.681   1.442  51.859  1.00  0.00     0.146 A 
HETATM   25  N5  UNL     1      25.104   0.715  52.911  1.00  0.00    -0.258 NA
HETATM   26  C10 UNL     1      26.356   0.808  53.403  1.00  0.00     0.066 A 
HETATM   27  C11 UNL     1      26.795   0.066  54.480  1.00  0.00     0.032 A 
HETATM   28  C15 UNL     1      27.278   1.682  52.824  1.00  0.00    -0.005 A 
HETATM   29  C12 UNL     1      28.081   0.165  54.983  1.00  0.00     0.002 A 
HETATM   30  C13 UNL     1      28.947   1.059  54.353  1.00  0.00     0.001 A 
HETATM   31  C14 UNL     1      28.583   1.834  53.273  1.00  0.00     0.014 A 
HETATM   32  C16 UNL     1      26.831   2.423  51.745  1.00  0.00     0.044 A 
ENDBRANCH  21  23
ENDBRANCH   2  21
TORSDOF 6
ENDMDL
MODEL 5
REMARK VINA RESULT:      -7.9      4.971      7.729
REMARK  6 active torsions:
REMARK  status: ('A' for Active; 'I' for Inactive)
REMARK    1  A    between atoms: N1_2  and  C2_3 
REMARK    2  A    between atoms: C4_5  and  N2_6 
REMARK    3  A    between atoms: C5_7  and  C6_8 
REMARK    4  A    between atoms: C7_9  and  N3_10 
REMARK    5  A    between atoms: C7_9  and  N4_11 
REMARK    6  A    between atoms: N4_11  and  C8_12 
ROOT
HETATM    1  C6  UNL     1      23.510   2.269  52.869  1.00  0.00     0.067 C 
HETATM    2  C7  UNL     1      24.638   2.644  52.280  1.00  0.00     0.100 C 
ENDROOT
BRANCH   1   3
HETATM    3  C5  UNL     1      22.311   1.982  52.083  1.00  0.00     0.118 C 
HETATM    4  N2  UNL     1      21.234   1.493  52.602  1.00  0.00    -0.256 NA
BRANCH   4   5
HETATM    5  C4  UNL     1      20.081   1.228  51.796  1.00  0.00     0.219 A 
HETATM    6  C3  UNL     1      20.381   0.722  50.414  1.00  0.00     0.066 A 
HETATM    7  C2  UNL     1      19.809   1.721  49.761  1.00  0.00     0.052 A 
HETATM    8  C21 UNL     1      19.466   2.311  51.048  1.00  0.00     0.281 A 
HETATM    9  N6  UNL     1      18.100   2.461  51.518  1.00  0.00     0.114 N 
HETATM   10  C20 UNL     1      18.935   3.570  51.323  1.00  0.00     0.328 A 
HETATM   11  C19 UNL     1      17.283   1.789  50.587  1.00  0.00     0.276 C 
HETATM   12  C18 UNL     1      17.103   0.375  51.096  1.00  0.00     0.056 C 
HETATM   13  C17 UNL     1      18.348  -0.290  51.570  1.00  0.00     0.173 C 
HETATM   14  O1  UNL     1      19.126   0.449  52.446  1.00  0.00    -0.353 OA
BRANCH   7  15
HETATM   15  N1  UNL     1      19.636   2.032  48.364  1.00  0.00    -0.395 N 
HETATM   16  C1  UNL     1      20.584   2.921  47.717  1.00  0.00     0.146 C 
HETATM   17  H4  UNL     1      18.834   1.603  47.879  1.00  0.00     0.159 HD
ENDBRANCH   7  15
ENDBRANCH   4   5
ENDBRANCH   1   3
BRANCH   2  18
HETATM   18  N3  UNL     1      24.689   2.770  50.883  1.00  0.00    -0.385 N 
HETATM   19  H8  UNL     1      25.312   3.365  50.260  1.00  0.00     0.157 HD
HETATM   20  H9  UNL     1      24.334   2.508  49.929  1.00  0.00     0.157 HD
ENDBRANCH   2  18
BRANCH   2  21
HETATM   21  N4  UNL     1      25.769   2.907  53.103  1.00  0.00    -0.342 N 
HETATM   22  H10 UNL     1      25.786   3.823  53.611  1.00  0.00     0.167 HD
BRANCH  21  23
HETATM   23  C8  UNL     1      26.826   1.964  53.229  1.00  0.00     0.052 A 
HETATM   24  C9  UNL     1      28.121   2.269  53.594  1.00  0.00     0.146 A 
HETATM   25  N5  UNL     1      29.037   1.285  53.678  1.00  0.00    -0.258 NA
HETATM   26  C10 UNL     1      28.744  -0.006  53.419  1.00  0.00     0.066 A 
HETATM   27  C11 UNL     1      29.679  -1.017  53.504  1.00  0.00     0.032 A 
HETATM   28  C15 UNL     1      27.451  -0.374  53.045  1.00  0.00    -0.005 A 
HETATM   29  C12 UNL     1      29.375  -2.341  53.237  1.00  0.00     0.002 A 
HETATM   30  C13 UNL     1      28.061  -2.634  52.869  1.00  0.00     0.001 A 
HETATM   31  C14 UNL     1      27.073  -1.680  52.763  1.00  0.00     0.014 A 
HETATM   32  C16 UNL     1      26.520   0.645  52.962  1.00  0.00     0.044 A 
ENDBRANCH  21  23
ENDBRANCH   2  21
TORSDOF 6
ENDMDL
MODEL 6
REMARK VINA RESULT:      -7.7      2.306      8.682
REMARK  6 active torsions:
REMARK  status: ('A' for Active; 'I' for Inactive)
REMARK    1  A    between atoms: N1_2  and  C2_3 
REMARK    2  A    between atoms: C4_5  and  N2_6 
REMARK    3  A    between atoms: C5_7  and  C6_8 
REMARK    4  A    between atoms: C7_9  and  N3_10 
REMARK    5  A    between atoms: C7_9  and  N4_11 
REMARK    6  A    between atoms: N4_11  and  C8_12 
ROOT
HETATM    1  C6  UNL     1      26.875   4.116  49.026  1.00  0.00     0.067 C 
HETATM    2  C7  UNL     1      25.894   4.200  49.916  1.00  0.00     0.100 C 
ENDROOT
BRANCH   1   3
HETATM    3  C5  UNL     1      27.671   5.290  48.671  1.00  0.00     0.118 C 
HETATM    4  N2  UNL     1      27.144   6.394  48.259  1.00  0.00    -0.256 NA
BRANCH   4   5
HETATM    5  C4  UNL     1      27.961   7.521  47.922  1.00  0.00     0.219 A 
HETATM    6  C3  UNL     1      29.440   7.273  48.002  1.00  0.00     0.066 A 
HETATM    7  C2  UNL     1      29.694   8.183  48.928  1.00  0.00     0.052 A 
HETATM    8  C21 UNL     1      28.274   8.508  48.942  1.00  0.00     0.281 A 
HETATM    9  N6  UNL     1      27.745   9.787  48.505  1.00  0.00     0.114 N 
HETATM   10  C20 UNL     1      27.570   9.330  49.819  1.00  0.00     0.328 A 
HETATM   11  C19 UNL     1      28.828  10.497  47.948  1.00  0.00     0.276 C 
HETATM   12  C18 UNL     1      28.830  10.204  46.462  1.00  0.00     0.056 C 
HETATM   13  C17 UNL     1      28.646   8.772  46.100  1.00  0.00     0.173 C 
HETATM   14  O1  UNL     1      27.591   8.126  46.722  1.00  0.00    -0.353 OA
BRANCH   7  15
HETATM   15  N1  UNL     1      30.896   8.616  49.599  1.00  0.00    -0.395 N 
HETATM   16  C1  UNL     1      32.184   8.292  49.016  1.00  0.00     0.146 C 
HETATM   17  H4  UNL     1      30.783   9.144  50.478  1.00  0.00     0.159 HD
ENDBRANCH   7  15
ENDBRANCH   4   5
ENDBRANCH   1   3
BRANCH   2  18
HETATM   18  N3  UNL     1      25.610   5.431  50.529  1.00  0.00    -0.385 N 
HETATM   19  H8  UNL     1      25.225   6.336  50.127  1.00  0.00     0.157 HD
HETATM   20  H9  UNL     1      25.584   6.040  51.386  1.00  0.00     0.157 HD
ENDBRANCH   2  18
BRANCH   2  21
HETATM   21  N4  UNL     1      25.159   3.019  50.217  1.00  0.00    -0.342 N 
HETATM   22  H10 UNL     1      24.376   2.767  49.568  1.00  0.00     0.167 HD
BRANCH  21  23
HETATM   23  C8  UNL     1      25.477   2.220  51.350  1.00  0.00     0.052 A 
HETATM   24  C9  UNL     1      24.587   1.405  52.019  1.00  0.00     0.146 A 
HETATM   25  N5  UNL     1      25.008   0.695  53.083  1.00  0.00    -0.258 NA
HETATM   26  C10 UNL     1      26.279   0.741  53.532  1.00  0.00     0.066 A 
HETATM   27  C11 UNL     1      26.716   0.015  54.621  1.00  0.00     0.032 A 
HETATM   28  C15 UNL     1      27.223   1.548  52.895  1.00  0.00    -0.005 A 
HETATM   29  C12 UNL     1      28.021   0.066  55.079  1.00  0.00     0.002 A 
HETATM   30  C13 UNL     1      28.909   0.893  54.392  1.00  0.00     0.001 A 
HETATM   31  C14 UNL     1      28.548   1.648  53.297  1.00  0.00     0.014 A 
HETATM   32  C16 UNL     1      26.778   2.272  51.804  1.00  0.00     0.044 A 
ENDBRANCH  21  23
ENDBRANCH   2  21
TORSDOF 6
ENDMDL
MODEL 7
REMARK VINA RESULT:      -7.7      2.676      4.481
REMARK  6 active torsions:
REMARK  status: ('A' for Active; 'I' for Inactive)
REMARK    1  A    between atoms: N1_2  and  C2_3 
REMARK    2  A    between atoms: C4_5  and  N2_6 
REMARK    3  A    between atoms: C5_7  and  C6_8 
REMARK    4  A    between atoms: C7_9  and  N3_10 
REMARK    5  A    between atoms: C7_9  and  N4_11 
REMARK    6  A    between atoms: N4_11  and  C8_12 
ROOT
HETATM    1  C6  UNL     1      27.779   4.762  48.559  1.00  0.00     0.067 C 
HETATM    2  C7  UNL     1      27.997   6.071  48.544  1.00  0.00     0.100 C 
ENDROOT
BRANCH   1   3
HETATM    3  C5  UNL     1      26.734   4.184  49.403  1.00  0.00     0.118 C 
HETATM    4  N2  UNL     1      25.476   4.301  49.138  1.00  0.00    -0.256 NA
BRANCH   4   5
HETATM    5  C4  UNL     1      24.485   3.718  49.991  1.00  0.00     0.219 A 
HETATM    6  C3  UNL     1      23.349   3.049  49.270  1.00  0.00     0.066 A 
HETATM    7  C2  UNL     1      22.389   3.817  49.761  1.00  0.00     0.052 A 
HETATM    8  C21 UNL     1      23.406   4.545  50.506  1.00  0.00     0.281 A 
HETATM    9  N6  UNL     1      23.491   4.539  51.956  1.00  0.00     0.114 N 
HETATM   10  C20 UNL     1      23.284   5.725  51.237  1.00  0.00     0.328 A 
HETATM   11  C19 UNL     1      22.544   3.596  52.405  1.00  0.00     0.276 C 
HETATM   12  C18 UNL     1      23.270   2.275  52.546  1.00  0.00     0.056 C 
HETATM   13  C17 UNL     1      24.157   1.916  51.405  1.00  0.00     0.173 C 
HETATM   14  O1  UNL     1      25.027   2.907  50.986  1.00  0.00    -0.353 OA
BRANCH   7  15
HETATM   15  N1  UNL     1      20.957   3.861  49.586  1.00  0.00    -0.395 N 
HETATM   16  C1  UNL     1      20.358   5.031  48.970  1.00  0.00     0.146 C 
HETATM   17  H4  UNL     1      20.416   3.047  49.912  1.00  0.00     0.159 HD
ENDBRANCH   7  15
ENDBRANCH   4   5
ENDBRANCH   1   3
BRANCH   2  18
HETATM   18  N3  UNL     1      27.218   6.919  49.347  1.00  0.00    -0.385 N 
HETATM   19  H8  UNL     1      27.137   6.996  50.405  1.00  0.00     0.157 HD
HETATM   20  H9  UNL     1      26.513   7.693  49.442  1.00  0.00     0.157 HD
ENDBRANCH   2  18
BRANCH   2  21
HETATM   21  N4  UNL     1      29.029   6.569  47.700  1.00  0.00    -0.342 N 
HETATM   22  H10 UNL     1      28.732   7.069  46.829  1.00  0.00     0.167 HD
BRANCH  21  23
HETATM   23  C8  UNL     1      30.401   6.394  48.030  1.00  0.00     0.052 A 
HETATM   24  C9  UNL     1      31.158   7.280  48.769  1.00  0.00     0.146 A 
HETATM   25  N5  UNL     1      32.452   7.003  49.016  1.00  0.00    -0.258 NA
HETATM   26  C10 UNL     1      33.055   5.882  48.569  1.00  0.00     0.066 A 
HETATM   27  C11 UNL     1      34.381   5.594  48.820  1.00  0.00     0.032 A 
HETATM   28  C15 UNL     1      32.340   4.950  47.817  1.00  0.00    -0.005 A 
HETATM   29  C12 UNL     1      34.996   4.442  48.359  1.00  0.00     0.002 A 
HETATM   30  C13 UNL     1      34.218   3.556  47.614  1.00  0.00     0.001 A 
HETATM   31  C14 UNL     1      32.889   3.774  47.322  1.00  0.00     0.014 A 
HETATM   32  C16 UNL     1      31.011   5.246  47.570  1.00  0.00     0.044 A 
ENDBRANCH  21  23
ENDBRANCH   2  21
TORSDOF 6
ENDMDL
MODEL 8
REMARK VINA RESULT:      -7.6      2.321      9.492
REMARK  6 active torsions:
REMARK  status: ('A' for Active; 'I' for Inactive)
REMARK    1  A    between atoms: N1_2  and  C2_3 
REMARK    2  A    between atoms: C4_5  and  N2_6 
REMARK    3  A    between atoms: C5_7  and  C6_8 
REMARK    4  A    between atoms: C7_9  and  N3_10 
REMARK    5  A    between atoms: C7_9  and  N4_11 
REMARK    6  A    between atoms: N4_11  and  C8_12 
ROOT
HETATM    1  C6  UNL     1      25.464   4.097  49.412  1.00  0.00     0.067 C 
HETATM    2  C7  UNL     1      24.571   4.152  50.392  1.00  0.00     0.100 C 
ENDROOT
BRANCH   1   3
HETATM    3  C5  UNL     1      26.464   5.151  49.246  1.00  0.00     0.118 C 
HETATM    4  N2  UNL     1      26.259   6.203  48.527  1.00  0.00    -0.256 NA
BRANCH   4   5
HETATM    5  C4  UNL     1      27.266   7.212  48.392  1.00  0.00     0.219 A 
HETATM    6  C3  UNL     1      27.116   8.094  47.185  1.00  0.00     0.066 A 
HETATM    7  C2  UNL     1      28.274   7.778  46.626  1.00  0.00     0.052 A 
HETATM    8  C21 UNL     1      28.527   6.884  47.748  1.00  0.00     0.281 A 
HETATM    9  N6  UNL     1      29.592   7.097  48.712  1.00  0.00     0.114 N 
HETATM   10  C20 UNL     1      29.544   5.947  47.911  1.00  0.00     0.328 A 
HETATM   11  C19 UNL     1      30.145   8.360  48.421  1.00  0.00     0.276 C 
HETATM   12  C18 UNL     1      29.419   9.370  49.284  1.00  0.00     0.056 C 
HETATM   13  C17 UNL     1      27.938   9.225  49.316  1.00  0.00     0.173 C 
HETATM   14  O1  UNL     1      27.465   7.947  49.560  1.00  0.00    -0.353 OA
BRANCH   7  15
HETATM   15  N1  UNL     1      28.939   8.184  45.412  1.00  0.00    -0.395 N 
HETATM   16  C1  UNL     1      29.246   9.588  45.212  1.00  0.00     0.146 C 
HETATM   17  H4  UNL     1      29.171   7.446  44.730  1.00  0.00     0.159 HD
ENDBRANCH   7  15
ENDBRANCH   4   5
ENDBRANCH   1   3
BRANCH   2  18
HETATM   18  N3  UNL     1      24.579   5.235  51.285  1.00  0.00    -0.385 N 
HETATM   19  H8  UNL     1      24.313   6.255  51.146  1.00  0.00     0.157 HD
HETATM   20  H9  UNL     1      24.760   5.626  52.244  1.00  0.00     0.157 HD
ENDBRANCH   2  18
BRANCH   2  21
HETATM   21  N4  UNL     1      23.626   3.093  50.497  1.00  0.00    -0.342 N 
HETATM   22  H10 UNL     1      22.831   3.094  49.814  1.00  0.00     0.167 HD
BRANCH  21  23
HETATM   23  C8  UNL     1      23.759   2.081  51.488  1.00  0.00     0.052 A 
HETATM   24  C9  UNL     1      24.942   1.460  51.831  1.00  0.00     0.146 A 
HETATM   25  N5  UNL     1      24.940   0.512  52.788  1.00  0.00    -0.258 NA
HETATM   26  C10 UNL     1      23.820   0.134  53.437  1.00  0.00     0.066 A 
HETATM   27  C11 UNL     1      23.814  -0.836  54.418  1.00  0.00     0.032 A 
HETATM   28  C15 UNL     1      22.595   0.728  53.131  1.00  0.00    -0.005 A 
HETATM   29  C12 UNL     1      22.661  -1.221  55.082  1.00  0.00     0.002 A 
HETATM   30  C13 UNL     1      21.473  -0.583  54.724  1.00  0.00     0.001 A 
HETATM   31  C14 UNL     1      21.400   0.394  53.755  1.00  0.00     0.014 A 
HETATM   32  C16 UNL     1      22.609   1.700  52.147  1.00  0.00     0.044 A 
ENDBRANCH  21  23
ENDBRANCH   2  21
TORSDOF 6
ENDMDL
MODEL 9
REMARK VINA RESULT:      -7.6      3.444      8.202
REMARK  6 active torsions:
REMARK  status: ('A' for Active; 'I' for Inactive)
REMARK    1  A    between atoms: N1_2  and  C2_3 
REMARK    2  A    between atoms: C4_5  and  N2_6 
REMARK    3  A    between atoms: C5_7  and  C6_8 
REMARK    4  A    between atoms: C7_9  and  N3_10 
REMARK    5  A    between atoms: C7_9  and  N4_11 
REMARK    6  A    between atoms: N4_11  and  C8_12 
ROOT
HETATM    1  C6  UNL     1      23.046   3.360  52.510  1.00  0.00     0.067 C 
HETATM    2  C7  UNL     1      23.503   2.195  52.068  1.00  0.00     0.100 C 
ENDROOT
BRANCH   1   3
HETATM    3  C5  UNL     1      22.589   4.391  51.580  1.00  0.00     0.118 C 
HETATM    4  N2  UNL     1      23.394   5.052  50.817  1.00  0.00    -0.256 NA
BRANCH   4   5
HETATM    5  C4  UNL     1      22.904   6.053  49.919  1.00  0.00     0.219 A 
HETATM    6  C3  UNL     1      23.206   5.801  48.469  1.00  0.00     0.066 A 
HETATM    7  C2  UNL     1      23.922   6.897  48.273  1.00  0.00     0.052 A 
HETATM    8  C21 UNL     1      23.700   7.244  49.670  1.00  0.00     0.281 A 
HETATM    9  N6  UNL     1      22.924   8.397  50.091  1.00  0.00     0.114 N 
HETATM   10  C20 UNL     1      24.280   8.261  50.425  1.00  0.00     0.328 A 
HETATM   11  C19 UNL     1      22.347   8.936  48.925  1.00  0.00     0.276 C 
HETATM   12  C18 UNL     1      20.978   8.306  48.778  1.00  0.00     0.056 C 
HETATM   13  C17 UNL     1      20.934   6.833  48.987  1.00  0.00     0.173 C 
HETATM   14  O1  UNL     1      21.563   6.370  50.131  1.00  0.00    -0.353 OA
BRANCH   7  15
HETATM   15  N1  UNL     1      24.609   7.450  47.131  1.00  0.00    -0.395 N 
HETATM   16  C1  UNL     1      26.008   7.813  47.258  1.00  0.00     0.146 C 
HETATM   17  H4  UNL     1      24.065   7.565  46.263  1.00  0.00     0.159 HD
ENDBRANCH   7  15
ENDBRANCH   4   5
ENDBRANCH   1   3
BRANCH   2  18
HETATM   18  N3  UNL     1      23.551   1.942  50.687  1.00  0.00    -0.385 N 
HETATM   19  H8  UNL     1      24.279   2.202  49.957  1.00  0.00     0.157 HD
HETATM   20  H9  UNL     1      23.127   1.528  49.820  1.00  0.00     0.157 HD
ENDBRANCH   2  18
BRANCH   2  21
HETATM   21  N4  UNL     1      23.931   1.235  53.027  1.00  0.00    -0.342 N 
HETATM   22  H10 UNL     1      23.186   0.685  53.516  1.00  0.00     0.167 HD
BRANCH  21  23
HETATM   23  C8  UNL     1      25.311   1.034  53.304  1.00  0.00     0.052 A 
HETATM   24  C9  UNL     1      26.150   1.972  53.872  1.00  0.00     0.146 A 
HETATM   25  N5  UNL     1      27.443   1.663  54.086  1.00  0.00    -0.258 NA
HETATM   26  C10 UNL     1      27.967   0.462  53.767  1.00  0.00     0.066 A 
HETATM   27  C11 UNL     1      29.291   0.141  53.985  1.00  0.00     0.032 A 
HETATM   28  C15 UNL     1      27.167  -0.525  53.191  1.00  0.00    -0.005 A 
HETATM   29  C12 UNL     1      29.825  -1.094  53.656  1.00  0.00     0.002 A 
HETATM   30  C13 UNL     1      28.966  -2.031  53.083  1.00  0.00     0.001 A 
HETATM   31  C14 UNL     1      27.632  -1.784  52.836  1.00  0.00     0.014 A 
HETATM   32  C16 UNL     1      25.841  -0.196  52.976  1.00  0.00     0.044 A 
ENDBRANCH  21  23
ENDBRANCH   2  21
TORSDOF 6
ENDMDL
