MODEL 1
REMARK VINA RESULT:      -7.6      0.000      0.000
REMARK  4 active torsions:
REMARK  status: ('A' for Active; 'I' for Inactive)
REMARK    1  A    between atoms: N1_2  and  C2_3 
REMARK    2  A    between atoms: C5_7  and  N2_12 
REMARK    3  A    between atoms: C7_9  and  O2_10 
REMARK    4  A    between atoms: C14_20  and  C17_23 
ROOT
HETATM    1  C2  UNL     1      21.395   0.254  52.283  1.00  0.00     0.257 C 
HETATM    2  C3  UNL     1      22.567   1.133  52.655  1.00  0.00     0.092 C 
HETATM    3  C4  UNL     1      23.381   1.481  51.408  1.00  0.00     0.226 C 
HETATM    4  O1  UNL     1      22.669   1.272  50.249  1.00  0.00    -0.334 OA
HETATM    5  C5  UNL     1      21.348   1.631  50.272  1.00  0.00     0.161 C 
HETATM    6  C6  UNL     1      20.801   1.009  48.962  1.00  0.00     0.074 C 
HETATM    7  C7  UNL     1      20.531   1.148  51.400  1.00  0.00     0.209 C 
HETATM    8  C17 UNL     1      23.695   4.930  51.198  1.00  0.00     0.069 C 
HETATM    9  C18 UNL     1      24.909   4.695  50.327  1.00  0.00    -0.038 A 
HETATM   10  C19 UNL     1      25.853   4.861  49.408  1.00  0.00     0.006 A 
HETATM   11  C20 UNL     1      26.715   3.684  49.500  1.00  0.00    -0.001 A 
HETATM   12  C21 UNL     1      26.209   2.906  50.449  1.00  0.00     0.011 A 
HETATM   13  C22 UNL     1      25.053   3.392  51.042  1.00  0.00     0.099 A 
HETATM   14  N4  UNL     1      24.106   2.561  51.603  1.00  0.00    -0.356 N 
HETATM   15  C23 UNL     1      24.095   3.784  52.067  1.00  0.00     0.070 A 
HETATM   16  C24 UNL     1      24.408   4.065  53.500  1.00  0.00     0.042 C 
ENDROOT
BRANCH   1  17
HETATM   17  N1  UNL     1      20.628  -0.016  53.471  1.00  0.00     0.086 N 
HETATM   18  C1  UNL     1      21.401  -0.537  54.574  1.00  0.00     0.307 C 
HETATM   19  H4  UNL     1      20.139   0.874  53.713  1.00  0.00     0.316 HD
ENDBRANCH   1  17
BRANCH   7  20
HETATM   20  O2  UNL     1      19.354   0.519  51.044  1.00  0.00    -0.384 OA
HETATM   21  C8  UNL     1      18.193   1.154  51.326  1.00  0.00     0.202 C 
ENDBRANCH   7  20
BRANCH   5  22
HETATM   22  N2  UNL     1      21.247   3.026  50.094  1.00  0.00    -0.355 N 
HETATM   23  C9  UNL     1      20.355   4.043  49.930  1.00  0.00     0.099 A 
HETATM   24  C10 UNL     1      20.202   4.363  51.242  1.00  0.00    -0.011 C 
HETATM   25  C14 UNL     1      20.274   4.623  48.603  1.00  0.00     0.085 C 
HETATM   26  C16 UNL     1      22.089   4.244  50.010  1.00  0.00     0.125 A 
HETATM   27  C11 UNL     1      21.314   5.251  50.860  1.00  0.00    -0.030 C 
HETATM   28  C12 UNL     1      21.555   6.716  50.949  1.00  0.00     0.159 C 
HETATM   29  N3  UNL     1      20.851   7.126  49.629  1.00  0.00    -0.356 N 
HETATM   30  C13 UNL     1      20.187   6.174  48.685  1.00  0.00     0.230 C 
HETATM   31  H18 UNL     1      20.787   8.111  49.297  1.00  0.00     0.162 HD
HETATM   32  O3  UNL     1      19.443   6.742  47.827  1.00  0.00    -0.273 OA
HETATM   33  C15 UNL     1      21.895   4.528  48.478  1.00  0.00     0.053 C 
ENDBRANCH   5  22
TORSDOF 4
ENDMDL
MODEL 2
REMARK VINA RESULT:      -7.3      7.022      9.675
REMARK  4 active torsions:
REMARK  status: ('A' for Active; 'I' for Inactive)
REMARK    1  A    between atoms: N1_2  and  C2_3 
REMARK    2  A    between atoms: C5_7  and  N2_12 
REMARK    3  A    between atoms: C7_9  and  O2_10 
REMARK    4  A    between atoms: C14_20  and  C17_23 
ROOT
HETATM    1  C2  UNL     1      27.817   5.710  48.296  1.00  0.00     0.257 C 
HETATM    2  C3  UNL     1      29.309   5.945  48.240  1.00  0.00     0.092 C 
HETATM    3  C4  UNL     1      29.666   6.770  47.002  1.00  0.00     0.226 C 
HETATM    4  O1  UNL     1      28.572   7.423  46.482  1.00  0.00    -0.334 OA
HETATM    5  C5  UNL     1      27.699   7.968  47.385  1.00  0.00     0.161 C 
HETATM    6  C6  UNL     1      26.484   8.347  46.503  1.00  0.00     0.074 C 
HETATM    7  C7  UNL     1      27.232   7.105  48.486  1.00  0.00     0.209 C 
HETATM    8  C17 UNL     1      31.492   9.549  47.995  1.00  0.00     0.069 C 
HETATM    9  C18 UNL     1      32.025   9.614  46.581  1.00  0.00    -0.038 A 
HETATM   10  C19 UNL     1      32.519  10.079  45.439  1.00  0.00     0.006 A 
HETATM   11  C20 UNL     1      32.676   8.918  44.565  1.00  0.00    -0.001 A 
HETATM   12  C21 UNL     1      32.249   7.861  45.246  1.00  0.00     0.011 A 
HETATM   13  C22 UNL     1      31.779   8.143  46.520  1.00  0.00     0.099 A 
HETATM   14  N4  UNL     1      30.833   7.360  47.147  1.00  0.00    -0.356 N 
HETATM   15  C23 UNL     1      31.581   8.059  47.961  1.00  0.00     0.070 A 
HETATM   16  C24 UNL     1      32.492   7.389  48.935  1.00  0.00     0.042 C 
ENDROOT
BRANCH   1  17
HETATM   17  N1  UNL     1      27.514   4.971  49.494  1.00  0.00     0.086 N 
HETATM   18  C1  UNL     1      26.726   3.780  49.276  1.00  0.00     0.307 C 
HETATM   19  H4  UNL     1      28.429   4.764  49.951  1.00  0.00     0.316 HD
ENDBRANCH   1  17
BRANCH   7  20
HETATM   20  O2  UNL     1      25.862   7.059  48.653  1.00  0.00    -0.384 OA
HETATM   21  C8  UNL     1      25.351   7.574  49.796  1.00  0.00     0.202 C 
ENDBRANCH   7  20
BRANCH   5  22
HETATM   22  N2  UNL     1      28.222   9.193  47.848  1.00  0.00    -0.355 N 
HETATM   23  C9  UNL     1      28.018  10.196  48.748  1.00  0.00     0.099 A 
HETATM   24  C10 UNL     1      28.760   9.682  49.764  1.00  0.00    -0.011 C 
HETATM   25  C14 UNL     1      27.549  11.459  48.212  1.00  0.00     0.085 C 
HETATM   26  C16 UNL     1      29.361  10.119  47.633  1.00  0.00     0.125 A 
HETATM   27  C11 UNL     1      29.767  10.494  49.058  1.00  0.00    -0.030 C 
HETATM   28  C12 UNL     1      30.701  11.578  49.464  1.00  0.00     0.159 C 
HETATM   29  N3  UNL     1      29.721  12.770  49.314  1.00  0.00    -0.356 N 
HETATM   30  C13 UNL     1      28.294  12.651  48.877  1.00  0.00     0.230 C 
HETATM   31  H18 UNL     1      29.986  13.757  49.511  1.00  0.00     0.162 HD
HETATM   32  O3  UNL     1      27.607  13.696  49.092  1.00  0.00    -0.273 OA
HETATM   33  C15 UNL     1      28.559  11.282  46.948  1.00  0.00     0.053 C 
ENDBRANCH   5  22
TORSDOF 4
ENDMDL
MODEL 3
REMARK VINA RESULT:      -7.3      1.046      1.103
REMARK  4 active torsions:
REMARK  status: ('A' for Active; 'I' for Inactive)
REMARK    1  A    between atoms: N1_2  and  C2_3 
REMARK    2  A    between atoms: C5_7  and  N2_12 
REMARK    3  A    between atoms: C7_9  and  O2_10 
REMARK    4  A    between atoms: C14_20  and  C17_23 
ROOT
HETATM    1  C2  UNL     1      21.061   0.653  50.935  1.00  0.00     0.257 C 
HETATM    2  C3  UNL     1      22.260   1.327  51.561  1.00  0.00     0.092 C 
HETATM    3  C4  UNL     1      23.207   1.835  50.474  1.00  0.00     0.226 C 
HETATM    4  O1  UNL     1      22.587   1.927  49.249  1.00  0.00    -0.334 OA
HETATM    5  C5  UNL     1      21.302   2.398  49.249  1.00  0.00     0.161 C 
HETATM    6  C6  UNL     1      20.827   2.101  47.804  1.00  0.00     0.074 C 
HETATM    7  C7  UNL     1      20.351   1.781  50.193  1.00  0.00     0.209 C 
HETATM    8  C17 UNL     1      23.808   5.212  50.996  1.00  0.00     0.069 C 
HETATM    9  C18 UNL     1      25.072   5.039  50.185  1.00  0.00    -0.038 A 
HETATM   10  C19 UNL     1      26.105   5.293  49.389  1.00  0.00     0.006 A 
HETATM   11  C20 UNL     1      26.861   4.045  49.300  1.00  0.00    -0.001 A 
HETATM   12  C21 UNL     1      26.212   3.146  50.032  1.00  0.00     0.011 A 
HETATM   13  C22 UNL     1      25.049   3.613  50.627  1.00  0.00     0.099 A 
HETATM   14  N4  UNL     1      23.994   2.782  50.936  1.00  0.00    -0.356 N 
HETATM   15  C23 UNL     1      24.038   3.885  51.639  1.00  0.00     0.070 A 
HETATM   16  C24 UNL     1      24.242   3.847  53.117  1.00  0.00     0.042 C 
ENDROOT
BRANCH   1  17
HETATM   17  N1  UNL     1      20.172   0.229  51.984  1.00  0.00     0.086 N 
HETATM   18  C1  UNL     1      20.506   0.743  53.292  1.00  0.00     0.307 C 
HETATM   19  H4  UNL     1      19.210   0.502  51.683  1.00  0.00     0.316 HD
ENDBRANCH   1  17
BRANCH   7  20
HETATM   20  O2  UNL     1      19.165   1.350  49.633  1.00  0.00    -0.384 OA
HETATM   21  C8  UNL     1      18.036   2.017  49.962  1.00  0.00     0.202 C 
ENDBRANCH   7  20
BRANCH   5  22
HETATM   22  N2  UNL     1      21.327   3.804  49.353  1.00  0.00    -0.355 N 
HETATM   23  C9  UNL     1      20.538   4.914  49.318  1.00  0.00     0.099 A 
HETATM   24  C10 UNL     1      20.263   4.984  50.647  1.00  0.00    -0.011 C 
HETATM   25  C14 UNL     1      20.650   5.750  48.138  1.00  0.00     0.085 C 
HETATM   26  C16 UNL     1      22.262   4.928  49.601  1.00  0.00     0.125 A 
HETATM   27  C11 UNL     1      21.475   5.818  50.563  1.00  0.00    -0.030 C 
HETATM   28  C12 UNL     1      21.813   7.207  50.974  1.00  0.00     0.159 C 
HETATM   29  N3  UNL     1      21.296   7.934  49.706  1.00  0.00    -0.356 N 
HETATM   30  C13 UNL     1      20.671   7.255  48.528  1.00  0.00     0.230 C 
HETATM   31  H18 UNL     1      21.343   8.967  49.579  1.00  0.00     0.162 HD
HETATM   32  O3  UNL     1      20.074   8.050  47.739  1.00  0.00    -0.273 OA
HETATM   33  C15 UNL     1      22.263   5.525  48.150  1.00  0.00     0.053 C 
ENDBRANCH   5  22
TORSDOF 4
ENDMDL
MODEL 4
REMARK VINA RESULT:      -7.3      2.163      3.856
REMARK  4 active torsions:
REMARK  status: ('A' for Active; 'I' for Inactive)
REMARK    1  A    between atoms: N1_2  and  C2_3 
REMARK    2  A    between atoms: C5_7  and  N2_12 
REMARK    3  A    between atoms: C7_9  and  O2_10 
REMARK    4  A    between atoms: C14_20  and  C17_23 
ROOT
HETATM    1  C2  UNL     1      19.464   1.186  49.269  1.00  0.00     0.257 C 
HETATM    2  C3  UNL     1      19.876   0.868  50.688  1.00  0.00     0.092 C 
HETATM    3  C4  UNL     1      21.351   0.467  50.731  1.00  0.00     0.226 C 
HETATM    4  O1  UNL     1      22.030   0.867  49.603  1.00  0.00    -0.334 OA
HETATM    5  C5  UNL     1      21.716   2.105  49.109  1.00  0.00     0.161 C 
HETATM    6  C6  UNL     1      22.416   2.111  47.727  1.00  0.00     0.074 C 
HETATM    7  C7  UNL     1      20.288   2.419  48.915  1.00  0.00     0.209 C 
HETATM    8  C17 UNL     1      22.990   2.467  53.046  1.00  0.00     0.069 C 
HETATM    9  C18 UNL     1      24.045   1.386  53.125  1.00  0.00    -0.038 A 
HETATM   10  C19 UNL     1      25.210   0.770  53.291  1.00  0.00     0.006 A 
HETATM   11  C20 UNL     1      24.953  -0.649  53.053  1.00  0.00    -0.001 A 
HETATM   12  C21 UNL     1      23.666  -0.764  52.750  1.00  0.00     0.011 A 
HETATM   13  C22 UNL     1      22.966   0.434  52.723  1.00  0.00     0.099 A 
HETATM   14  N4  UNL     1      21.847   0.618  51.940  1.00  0.00    -0.356 N 
HETATM   15  C23 UNL     1      21.925   1.423  52.969  1.00  0.00     0.070 A 
HETATM   16  C24 UNL     1      20.908   1.374  54.061  1.00  0.00     0.042 C 
ENDROOT
BRANCH   1  17
HETATM   17  N1  UNL     1      18.086   1.601  49.273  1.00  0.00     0.086 N 
HETATM   18  C1  UNL     1      17.711   2.413  50.408  1.00  0.00     0.307 C 
HETATM   19  H4  UNL     1      17.922   2.088  48.365  1.00  0.00     0.316 HD
ENDBRANCH   1  17
BRANCH   7  20
HETATM   20  O2  UNL     1      19.960   2.905  47.665  1.00  0.00    -0.384 OA
HETATM   21  C8  UNL     1      19.602   4.206  47.571  1.00  0.00     0.202 C 
ENDBRANCH   7  20
BRANCH   5  22
HETATM   22  N2  UNL     1      22.384   3.087  49.870  1.00  0.00    -0.355 N 
HETATM   23  C9  UNL     1      22.597   4.429  49.974  1.00  0.00     0.099 A 
HETATM   24  C10 UNL     1      21.566   4.713  50.812  1.00  0.00    -0.011 C 
HETATM   25  C14 UNL     1      23.913   4.905  49.591  1.00  0.00     0.085 C 
HETATM   26  C16 UNL     1      23.250   3.231  51.066  1.00  0.00     0.125 A 
HETATM   27  C11 UNL     1      22.651   4.446  51.774  1.00  0.00    -0.030 C 
HETATM   28  C12 UNL     1      23.247   5.204  52.906  1.00  0.00     0.159 C 
HETATM   29  N3  UNL     1      24.260   6.045  52.087  1.00  0.00    -0.356 N 
HETATM   30  C13 UNL     1      24.429   5.968  50.601  1.00  0.00     0.230 C 
HETATM   31  H18 UNL     1      24.907   6.739  52.516  1.00  0.00     0.162 HD
HETATM   32  O3  UNL     1      25.102   6.928  50.115  1.00  0.00    -0.273 OA
HETATM   33  C15 UNL     1      24.577   3.609  50.319  1.00  0.00     0.053 C 
ENDBRANCH   5  22
TORSDOF 4
ENDMDL
MODEL 5
REMARK VINA RESULT:      -7.2      2.523      5.567
REMARK  4 active torsions:
REMARK  status: ('A' for Active; 'I' for Inactive)
REMARK    1  A    between atoms: N1_2  and  C2_3 
REMARK    2  A    between atoms: C5_7  and  N2_12 
REMARK    3  A    between atoms: C7_9  and  O2_10 
REMARK    4  A    between atoms: C14_20  and  C17_23 
ROOT
HETATM    1  C2  UNL     1      24.568   8.051  50.410  1.00  0.00     0.257 C 
HETATM    2  C3  UNL     1      25.187   6.676  50.510  1.00  0.00     0.092 C 
HETATM    3  C4  UNL     1      24.288   5.751  51.331  1.00  0.00     0.226 C 
HETATM    4  O1  UNL     1      23.003   6.233  51.431  1.00  0.00    -0.334 OA
HETATM    5  C5  UNL     1      22.475   6.804  50.304  1.00  0.00     0.161 C 
HETATM    6  C6  UNL     1      21.185   7.479  50.832  1.00  0.00     0.074 C 
HETATM    7  C7  UNL     1      23.289   7.821  49.611  1.00  0.00     0.209 C 
HETATM    8  C17 UNL     1      23.617   2.898  49.472  1.00  0.00     0.069 C 
HETATM    9  C18 UNL     1      23.309   2.205  50.781  1.00  0.00    -0.038 A 
HETATM   10  C19 UNL     1      22.788   1.373  51.675  1.00  0.00     0.006 A 
HETATM   11  C20 UNL     1      23.391   1.731  52.958  1.00  0.00    -0.001 A 
HETATM   12  C21 UNL     1      24.206   2.754  52.730  1.00  0.00     0.011 A 
HETATM   13  C22 UNL     1      24.239   3.187  51.412  1.00  0.00     0.099 A 
HETATM   14  N4  UNL     1      24.546   4.487  51.071  1.00  0.00    -0.356 N 
HETATM   15  C23 UNL     1      24.756   3.614  50.119  1.00  0.00     0.070 A 
HETATM   16  C24 UNL     1      26.132   3.363  49.597  1.00  0.00     0.042 C 
ENDROOT
BRANCH   1  17
HETATM   17  N1  UNL     1      25.417   8.879  49.596  1.00  0.00     0.086 N 
HETATM   18  C1  UNL     1      26.772   9.005  50.082  1.00  0.00     0.307 C 
HETATM   19  H4  UNL     1      25.377   8.483  48.631  1.00  0.00     0.316 HD
ENDBRANCH   1  17
BRANCH   7  20
HETATM   20  O2  UNL     1      22.639   9.010  49.346  1.00  0.00    -0.384 OA
HETATM   21  C8  UNL     1      22.354   9.294  48.054  1.00  0.00     0.202 C 
ENDBRANCH   7  20
BRANCH   5  22
HETATM   22  N2  UNL     1      22.036   5.785  49.434  1.00  0.00    -0.355 N 
HETATM   23  C9  UNL     1      21.413   5.561  48.243  1.00  0.00     0.099 A 
HETATM   24  C10 UNL     1      22.524   5.523  47.461  1.00  0.00    -0.011 C 
HETATM   25  C14 UNL     1      20.055   5.057  48.308  1.00  0.00     0.085 C 
HETATM   26  C16 UNL     1      22.024   4.308  49.296  1.00  0.00     0.125 A 
HETATM   27  C11 UNL     1      22.384   4.102  47.825  1.00  0.00    -0.030 C 
HETATM   28  C12 UNL     1      22.292   2.834  47.053  1.00  0.00     0.159 C 
HETATM   29  N3  UNL     1      20.764   2.857  46.788  1.00  0.00    -0.356 N 
HETATM   30  C13 UNL     1      19.833   3.931  47.258  1.00  0.00     0.230 C 
HETATM   31  H18 UNL     1      20.265   2.116  46.254  1.00  0.00     0.162 HD
HETATM   32  O3  UNL     1      18.694   3.898  46.700  1.00  0.00    -0.273 OA
HETATM   33  C15 UNL     1      20.490   4.086  49.541  1.00  0.00     0.053 C 
ENDBRANCH   5  22
TORSDOF 4
ENDMDL
MODEL 6
REMARK VINA RESULT:      -7.2      8.981     13.245
REMARK  4 active torsions:
REMARK  status: ('A' for Active; 'I' for Inactive)
REMARK    1  A    between atoms: N1_2  and  C2_3 
REMARK    2  A    between atoms: C5_7  and  N2_12 
REMARK    3  A    between atoms: C7_9  and  O2_10 
REMARK    4  A    between atoms: C14_20  and  C17_23 
ROOT
HETATM    1  C2  UNL     1      32.185  10.218  44.485  1.00  0.00     0.257 C 
HETATM    2  C3  UNL     1      31.461  10.101  45.806  1.00  0.00     0.092 C 
HETATM    3  C4  UNL     1      30.573   8.856  45.813  1.00  0.00     0.226 C 
HETATM    4  O1  UNL     1      30.932   7.958  44.834  1.00  0.00    -0.334 OA
HETATM    5  C5  UNL     1      32.275   7.786  44.628  1.00  0.00     0.161 C 
HETATM    6  C6  UNL     1      32.317   6.968  43.312  1.00  0.00     0.074 C 
HETATM    7  C7  UNL     1      33.099   8.997  44.457  1.00  0.00     0.209 C 
HETATM    8  C17 UNL     1      31.361   6.928  48.588  1.00  0.00     0.069 C 
HETATM    9  C18 UNL     1      29.989   6.306  48.456  1.00  0.00    -0.038 A 
HETATM   10  C19 UNL     1      28.986   5.437  48.519  1.00  0.00     0.006 A 
HETATM   11  C20 UNL     1      27.825   6.119  47.951  1.00  0.00    -0.001 A 
HETATM   12  C21 UNL     1      28.230   7.328  47.580  1.00  0.00     0.011 A 
HETATM   13  C22 UNL     1      29.575   7.584  47.804  1.00  0.00     0.099 A 
HETATM   14  N4  UNL     1      30.292   8.481  47.042  1.00  0.00    -0.356 N 
HETATM   15  C23 UNL     1      30.792   8.261  48.231  1.00  0.00     0.070 A 
HETATM   16  C24 UNL     1      30.879   9.355  49.243  1.00  0.00     0.042 C 
ENDROOT
BRANCH   1  17
HETATM   17  N1  UNL     1      33.043  11.372  44.532  1.00  0.00     0.086 N 
HETATM   18  C1  UNL     1      32.777  12.355  43.507  1.00  0.00     0.307 C 
HETATM   19  H4  UNL     1      32.953  11.767  45.494  1.00  0.00     0.316 HD
ENDBRANCH   1  17
BRANCH   7  20
HETATM   20  O2  UNL     1      33.911   9.000  43.341  1.00  0.00    -0.384 OA
HETATM   21  C8  UNL     1      35.246   8.892  43.536  1.00  0.00     0.202 C 
ENDBRANCH   7  20
BRANCH   5  22
HETATM   22  N2  UNL     1      32.786   6.924  45.620  1.00  0.00    -0.355 N 
HETATM   23  C9  UNL     1      33.924   6.314  46.054  1.00  0.00     0.099 A 
HETATM   24  C10 UNL     1      34.332   7.282  46.916  1.00  0.00    -0.011 C 
HETATM   25  C14 UNL     1      34.018   4.884  45.826  1.00  0.00     0.085 C 
HETATM   26  C16 UNL     1      32.366   6.178  46.831  1.00  0.00     0.125 A 
HETATM   27  C11 UNL     1      33.516   6.435  47.804  1.00  0.00    -0.030 C 
HETATM   28  C12 UNL     1      33.761   5.747  49.099  1.00  0.00     0.159 C 
HETATM   29  N3  UNL     1      34.388   4.446  48.532  1.00  0.00    -0.356 N 
HETATM   30  C13 UNL     1      34.597   4.164  47.077  1.00  0.00     0.230 C 
HETATM   31  H18 UNL     1      34.717   3.661  49.132  1.00  0.00     0.162 HD
HETATM   32  O3  UNL     1      35.369   3.181  46.855  1.00  0.00    -0.273 OA
HETATM   33  C15 UNL     1      32.447   4.732  46.227  1.00  0.00     0.053 C 
ENDBRANCH   5  22
TORSDOF 4
ENDMDL
MODEL 7
REMARK VINA RESULT:      -7.0     10.164     12.940
REMARK  4 active torsions:
REMARK  status: ('A' for Active; 'I' for Inactive)
REMARK    1  A    between atoms: N1_2  and  C2_3 
REMARK    2  A    between atoms: C5_7  and  N2_12 
REMARK    3  A    between atoms: C7_9  and  O2_10 
REMARK    4  A    between atoms: C14_20  and  C17_23 
ROOT
HETATM    1  C2  UNL     1      32.789   4.886  48.449  1.00  0.00     0.257 C 
HETATM    2  C3  UNL     1      31.543   5.733  48.332  1.00  0.00     0.092 C 
HETATM    3  C4  UNL     1      31.837   7.167  48.775  1.00  0.00     0.226 C 
HETATM    4  O1  UNL     1      33.185   7.441  48.782  1.00  0.00    -0.334 OA
HETATM    5  C5  UNL     1      33.918   6.929  47.744  1.00  0.00     0.161 C 
HETATM    6  C6  UNL     1      35.378   7.164  48.206  1.00  0.00     0.074 C 
HETATM    7  C7  UNL     1      33.747   5.498  47.432  1.00  0.00     0.209 C 
HETATM    8  C17 UNL     1      30.888   9.342  46.243  1.00  0.00     0.069 C 
HETATM    9  C18 UNL     1      30.807  10.421  47.299  1.00  0.00    -0.038 A 
HETATM   10  C19 UNL     1      30.828  11.610  47.893  1.00  0.00     0.006 A 
HETATM   11  C20 UNL     1      30.520  11.362  49.300  1.00  0.00    -0.001 A 
HETATM   12  C21 UNL     1      30.357  10.051  49.436  1.00  0.00     0.011 A 
HETATM   13  C22 UNL     1      30.538   9.320  48.271  1.00  0.00     0.099 A 
HETATM   14  N4  UNL     1      30.952   8.005  48.282  1.00  0.00    -0.356 N 
HETATM   15  C23 UNL     1      30.302   8.359  47.202  1.00  0.00     0.070 A 
HETATM   16  C24 UNL     1      28.991   7.735  46.855  1.00  0.00     0.042 C 
ENDROOT
BRANCH   1  17
HETATM   17  N1  UNL     1      32.487   3.558  47.982  1.00  0.00     0.086 N 
HETATM   18  C1  UNL     1      31.650   3.516  46.806  1.00  0.00     0.307 C 
HETATM   19  H4  UNL     1      33.405   3.083  47.834  1.00  0.00     0.316 HD
ENDBRANCH   1  17
BRANCH   7  20
HETATM   20  O2  UNL     1      34.919   4.773  47.343  1.00  0.00    -0.384 OA
HETATM   21  C8  UNL     1      35.159   4.106  46.191  1.00  0.00     0.202 C 
ENDBRANCH   7  20
BRANCH   5  22
HETATM   22  N2  UNL     1      33.746   7.750  46.611  1.00  0.00    -0.355 N 
HETATM   23  C9  UNL     1      34.200   7.971  45.345  1.00  0.00     0.099 A 
HETATM   24  C10 UNL     1      33.320   7.167  44.694  1.00  0.00    -0.011 C 
HETATM   25  C14 UNL     1      35.016   9.154  45.149  1.00  0.00     0.085 C 
HETATM   26  C16 UNL     1      32.917   8.875  46.113  1.00  0.00     0.125 A 
HETATM   27  C11 UNL     1      32.597   8.451  44.680  1.00  0.00    -0.030 C 
HETATM   28  C12 UNL     1      31.992   9.294  43.614  1.00  0.00     0.159 C 
HETATM   29  N3  UNL     1      33.270  10.076  43.212  1.00  0.00    -0.356 N 
HETATM   30  C13 UNL     1      34.617   9.887  43.837  1.00  0.00     0.230 C 
HETATM   31  H18 UNL     1      33.286  10.801  42.465  1.00  0.00     0.162 HD
HETATM   32  O3  UNL     1      35.564  10.417  43.177  1.00  0.00    -0.273 OA
HETATM   33  C15 UNL     1      34.027   9.983  46.141  1.00  0.00     0.053 C 
ENDBRANCH   5  22
TORSDOF 4
ENDMDL
MODEL 8
REMARK VINA RESULT:      -6.8      2.157      4.950
REMARK  4 active torsions:
REMARK  status: ('A' for Active; 'I' for Inactive)
REMARK    1  A    between atoms: N1_2  and  C2_3 
REMARK    2  A    between atoms: C5_7  and  N2_12 
REMARK    3  A    between atoms: C7_9  and  O2_10 
REMARK    4  A    between atoms: C14_20  and  C17_23 
ROOT
HETATM    1  C2  UNL     1      22.936   1.490  53.091  1.00  0.00     0.257 C 
HETATM    2  C3  UNL     1      21.602   1.158  52.463  1.00  0.00     0.092 C 
HETATM    3  C4  UNL     1      20.722   2.407  52.404  1.00  0.00     0.226 C 
HETATM    4  O1  UNL     1      21.454   3.563  52.544  1.00  0.00    -0.334 OA
HETATM    5  C5  UNL     1      22.663   3.602  51.904  1.00  0.00     0.161 C 
HETATM    6  C6  UNL     1      23.324   4.873  52.495  1.00  0.00     0.074 C 
HETATM    7  C7  UNL     1      23.576   2.460  52.104  1.00  0.00     0.209 C 
HETATM    8  C17 UNL     1      19.654   2.874  49.135  1.00  0.00     0.069 C 
HETATM    9  C18 UNL     1      18.515   3.693  49.700  1.00  0.00    -0.038 A 
HETATM   10  C19 UNL     1      17.551   4.599  49.820  1.00  0.00     0.006 A 
HETATM   11  C20 UNL     1      16.970   4.395  51.146  1.00  0.00    -0.001 A 
HETATM   12  C21 UNL     1      17.642   3.402  51.715  1.00  0.00     0.011 A 
HETATM   13  C22 UNL     1      18.668   2.877  50.941  1.00  0.00     0.099 A 
HETATM   14  N4  UNL     1      19.778   2.278  51.496  1.00  0.00    -0.356 N 
HETATM   15  C23 UNL     1      19.522   1.909  50.267  1.00  0.00     0.070 A 
HETATM   16  C24 UNL     1      19.166   0.495  49.947  1.00  0.00     0.042 C 
ENDROOT
BRANCH   1  17
HETATM   17  N1  UNL     1      23.752   0.304  53.089  1.00  0.00     0.086 N 
HETATM   18  C1  UNL     1      23.191  -0.807  53.822  1.00  0.00     0.307 C 
HETATM   19  H4  UNL     1      23.929   0.071  52.087  1.00  0.00     0.316 HD
ENDBRANCH   1  17
BRANCH   7  20
HETATM   20  O2  UNL     1      24.859   2.796  52.486  1.00  0.00    -0.384 OA
HETATM   21  C8  UNL     1      25.859   2.557  51.606  1.00  0.00     0.202 C 
ENDBRANCH   7  20
BRANCH   5  22
HETATM   22  N2  UNL     1      22.453   3.889  50.540  1.00  0.00    -0.355 N 
HETATM   23  C9  UNL     1      23.092   4.233  49.386  1.00  0.00     0.099 A 
HETATM   24  C10 UNL     1      23.314   2.976  48.920  1.00  0.00    -0.011 C 
HETATM   25  C14 UNL     1      22.910   5.597  48.929  1.00  0.00     0.085 C 
HETATM   26  C16 UNL     1      21.373   3.955  49.526  1.00  0.00     0.125 A 
HETATM   27  C11 UNL     1      22.007   3.280  48.310  1.00  0.00    -0.030 C 
HETATM   28  C12 UNL     1      21.479   3.266  46.920  1.00  0.00     0.159 C 
HETATM   29  N3  UNL     1      21.937   4.688  46.505  1.00  0.00    -0.356 N 
HETATM   30  C13 UNL     1      22.681   5.637  47.391  1.00  0.00     0.230 C 
HETATM   31  H18 UNL     1      21.760   5.094  45.562  1.00  0.00     0.162 HD
HETATM   32  O3  UNL     1      23.195   6.618  46.770  1.00  0.00    -0.273 OA
HETATM   33  C15 UNL     1      21.340   5.515  49.355  1.00  0.00     0.053 C 
ENDBRANCH   5  22
TORSDOF 4
ENDMDL
MODEL 9
REMARK VINA RESULT:      -6.8      2.481      5.416
REMARK  4 active torsions:
REMARK  status: ('A' for Active; 'I' for Inactive)
REMARK    1  A    between atoms: N1_2  and  C2_3 
REMARK    2  A    between atoms: C5_7  and  N2_12 
REMARK    3  A    between atoms: C7_9  and  O2_10 
REMARK    4  A    between atoms: C14_20  and  C17_23 
ROOT
HETATM    1  C2  UNL     1      22.977   4.716  52.504  1.00  0.00     0.257 C 
HETATM    2  C3  UNL     1      22.233   3.496  52.014  1.00  0.00     0.092 C 
HETATM    3  C4  UNL     1      20.851   3.894  51.494  1.00  0.00     0.226 C 
HETATM    4  O1  UNL     1      20.769   5.240  51.221  1.00  0.00    -0.334 OA
HETATM    5  C5  UNL     1      21.865   5.811  50.631  1.00  0.00     0.161 C 
HETATM    6  C6  UNL     1      21.560   7.327  50.736  1.00  0.00     0.074 C 
HETATM    7  C7  UNL     1      23.181   5.552  51.245  1.00  0.00     0.209 C 
HETATM    8  C17 UNL     1      20.483   2.695  48.258  1.00  0.00     0.069 C 
HETATM    9  C18 UNL     1      18.988   2.791  48.470  1.00  0.00    -0.038 A 
HETATM   10  C19 UNL     1      17.688   2.930  48.239  1.00  0.00     0.006 A 
HETATM   11  C20 UNL     1      17.031   2.801  49.538  1.00  0.00    -0.001 A 
HETATM   12  C21 UNL     1      17.989   2.614  50.439  1.00  0.00     0.011 A 
HETATM   13  C22 UNL     1      19.277   2.614  49.924  1.00  0.00     0.099 A 
HETATM   14  N4  UNL     1      20.372   2.980  50.677  1.00  0.00    -0.356 N 
HETATM   15  C23 UNL     1      20.651   2.207  49.659  1.00  0.00     0.070 A 
HETATM   16  C24 UNL     1      21.217   0.841  49.864  1.00  0.00     0.042 C 
ENDROOT
BRANCH   1  17
HETATM   17  N1  UNL     1      24.286   4.310  52.944  1.00  0.00     0.086 N 
HETATM   18  C1  UNL     1      24.449   2.883  53.093  1.00  0.00     0.307 C 
HETATM   19  H4  UNL     1      24.965   4.719  52.263  1.00  0.00     0.316 HD
ENDBRANCH   1  17
BRANCH   7  20
HETATM   20  O2  UNL     1      23.939   6.677  51.503  1.00  0.00    -0.384 OA
HETATM   21  C8  UNL     1      24.985   6.930  50.684  1.00  0.00     0.202 C 
ENDBRANCH   7  20
BRANCH   5  22
HETATM   22  N2  UNL     1      21.849   5.521  49.251  1.00  0.00    -0.355 N 
HETATM   23  C9  UNL     1      22.527   5.721  48.087  1.00  0.00     0.099 A 
HETATM   24  C10 UNL     1      23.317   4.617  48.144  1.00  0.00    -0.011 C 
HETATM   25  C14 UNL     1      21.923   6.636  47.137  1.00  0.00     0.085 C 
HETATM   26  C16 UNL     1      21.068   4.773  48.237  1.00  0.00     0.125 A 
HETATM   27  C11 UNL     1      22.155   4.097  47.401  1.00  0.00    -0.030 C 
HETATM   28  C12 UNL     1      21.978   3.405  46.097  1.00  0.00     0.159 C 
HETATM   29  N3  UNL     1      21.917   4.666  45.195  1.00  0.00    -0.356 N 
HETATM   30  C13 UNL     1      22.025   6.075  45.690  1.00  0.00     0.230 C 
HETATM   31  H18 UNL     1      21.795   4.625  44.162  1.00  0.00     0.162 HD
HETATM   32  O3  UNL     1      22.229   6.924  44.769  1.00  0.00    -0.273 OA
HETATM   33  C15 UNL     1      20.461   6.009  47.485  1.00  0.00     0.053 C 
ENDBRANCH   5  22
TORSDOF 4
ENDMDL
