MODEL 1
REMARK VINA RESULT:      -8.1      0.000      0.000
REMARK  4 active torsions:
REMARK  status: ('A' for Active; 'I' for Inactive)
REMARK    1  A    between atoms: O1_2  and  C2_3 
REMARK    2  A    between atoms: C6_9  and  P1_10 
REMARK    3  A    between atoms: P1_10  and  C7_11 
REMARK    4  A    between atoms: C15_20  and  O2_21 
ROOT
HETATM    1  C2  UNL     1      19.793  -0.470  52.840  1.00  0.00     0.103 A 
HETATM    2  C3  UNL     1      20.329  -1.092  53.938  1.00  0.00     0.072 A 
HETATM    3  C4  UNL     1      21.668  -1.013  54.246  1.00  0.00     0.073 A 
HETATM    4  N1  UNL     1      22.249  -1.610  55.322  1.00  0.00    -0.241 NA
HETATM    5  C5  UNL     1      23.569  -1.481  55.548  1.00  0.00     0.234 A 
HETATM    6  N2  UNL     1      24.401  -0.763  54.745  1.00  0.00    -0.240 NA
HETATM    7  C6  UNL     1      23.899  -0.137  53.653  1.00  0.00     0.076 A 
HETATM    8  C13 UNL     1      22.537  -0.281  53.433  1.00  0.00     0.025 A 
HETATM    9  C14 UNL     1      21.963   0.330  52.339  1.00  0.00     0.055 A 
HETATM   10  C15 UNL     1      20.617   0.263  52.011  1.00  0.00     0.102 A 
ENDROOT
BRANCH   7  11
HETATM   11  P1  UNL     1      24.950   0.834  52.540  1.00  0.00    -0.039 P 
HETATM   12  H6  UNL     1      24.787   0.372  51.173  1.00  0.00     0.069 HD
BRANCH  11  13
HETATM   13  C7  UNL     1      26.694   0.796  53.014  1.00  0.00    -0.026 A 
HETATM   14  C8  UNL     1      27.337   1.962  53.372  1.00  0.00     0.012 A 
HETATM   15  C9  UNL     1      28.683   1.849  53.725  1.00  0.00     0.003 A 
HETATM   16  C10 UNL     1      29.335   0.635  53.716  1.00  0.00     0.024 A 
HETATM   17  C11 UNL     1      28.664  -0.528  53.351  1.00  0.00     0.034 A 
HETATM   18 CL1  UNL     1      29.523  -2.046  53.352  1.00  0.00    -0.084 Cl
HETATM   19  C12 UNL     1      27.333  -0.415  53.002  1.00  0.00     0.036 A 
ENDBRANCH  11  13
ENDBRANCH   7  11
BRANCH  10  20
HETATM   20  O2  UNL     1      20.057   0.876  50.920  1.00  0.00    -0.353 OA
HETATM   21  C16 UNL     1      20.688   1.136  49.700  1.00  0.00     0.210 C 
ENDBRANCH  10  20
BRANCH   1  22
HETATM   22  O1  UNL     1      18.439  -0.598  52.599  1.00  0.00    -0.353 OA
HETATM   23  C1  UNL     1      17.715  -1.585  53.317  1.00  0.00     0.210 C 
ENDBRANCH   1  22
TORSDOF 4
ENDMDL
MODEL 2
REMARK VINA RESULT:      -7.6      4.628      6.480
REMARK  4 active torsions:
REMARK  status: ('A' for Active; 'I' for Inactive)
REMARK    1  A    between atoms: O1_2  and  C2_3 
REMARK    2  A    between atoms: C6_9  and  P1_10 
REMARK    3  A    between atoms: P1_10  and  C7_11 
REMARK    4  A    between atoms: C15_20  and  O2_21 
ROOT
HETATM    1  C2  UNL     1      26.498   0.242  54.184  1.00  0.00     0.103 A 
HETATM    2  C3  UNL     1      25.391  -0.501  53.865  1.00  0.00     0.072 A 
HETATM    3  C4  UNL     1      24.256   0.063  53.331  1.00  0.00     0.073 A 
HETATM    4  N1  UNL     1      23.133  -0.630  52.997  1.00  0.00    -0.241 NA
HETATM    5  C5  UNL     1      22.065   0.005  52.479  1.00  0.00     0.234 A 
HETATM    6  N2  UNL     1      22.026   1.346  52.254  1.00  0.00    -0.240 NA
HETATM    7  C6  UNL     1      23.105   2.106  52.558  1.00  0.00     0.076 A 
HETATM    8  C13 UNL     1      24.196   1.438  53.093  1.00  0.00     0.025 A 
HETATM    9  C14 UNL     1      25.326   2.154  53.425  1.00  0.00     0.055 A 
HETATM   10  C15 UNL     1      26.480   1.604  53.965  1.00  0.00     0.102 A 
ENDROOT
BRANCH   7  11
HETATM   11  P1  UNL     1      23.120   3.898  52.285  1.00  0.00    -0.039 P 
HETATM   12  H6  UNL     1      21.785   4.362  51.949  1.00  0.00     0.069 HD
BRANCH  11  13
HETATM   13  C7  UNL     1      24.300   4.401  51.010  1.00  0.00    -0.026 A 
HETATM   14  C8  UNL     1      24.815   3.463  50.139  1.00  0.00     0.012 A 
HETATM   15  C9  UNL     1      25.720   3.929  49.184  1.00  0.00     0.003 A 
HETATM   16  C10 UNL     1      26.079   5.258  49.115  1.00  0.00     0.024 A 
HETATM   17  C11 UNL     1      25.546   6.185  50.005  1.00  0.00     0.034 A 
HETATM   18 CL1  UNL     1      26.025   7.857  49.886  1.00  0.00    -0.084 Cl
HETATM   19  C12 UNL     1      24.651   5.722  50.949  1.00  0.00     0.036 A 
ENDBRANCH  11  13
ENDBRANCH   7  11
BRANCH  10  20
HETATM   20  O2  UNL     1      27.599   2.326  54.292  1.00  0.00    -0.353 OA
HETATM   21  C16 UNL     1      28.692   2.583  53.460  1.00  0.00     0.210 C 
ENDBRANCH  10  20
BRANCH   1  22
HETATM   22  O1  UNL     1      27.598  -0.399  54.718  1.00  0.00    -0.353 OA
HETATM   23  C1  UNL     1      28.552  -0.958  53.827  1.00  0.00     0.210 C 
ENDBRANCH   1  22
TORSDOF 4
ENDMDL
MODEL 3
REMARK VINA RESULT:      -7.5      4.581      6.517
REMARK  4 active torsions:
REMARK  status: ('A' for Active; 'I' for Inactive)
REMARK    1  A    between atoms: O1_2  and  C2_3 
REMARK    2  A    between atoms: C6_9  and  P1_10 
REMARK    3  A    between atoms: P1_10  and  C7_11 
REMARK    4  A    between atoms: C15_20  and  O2_21 
ROOT
HETATM    1  C2  UNL     1      26.307   0.247  53.850  1.00  0.00     0.103 A 
HETATM    2  C3  UNL     1      25.142  -0.317  53.399  1.00  0.00     0.072 A 
HETATM    3  C4  UNL     1      24.087   0.440  52.942  1.00  0.00     0.073 A 
HETATM    4  N1  UNL     1      22.912  -0.071  52.484  1.00  0.00    -0.241 NA
HETATM    5  C5  UNL     1      21.931   0.745  52.056  1.00  0.00     0.234 A 
HETATM    6  N2  UNL     1      22.035   2.101  52.045  1.00  0.00    -0.240 NA
HETATM    7  C6  UNL     1      23.175   2.687  52.484  1.00  0.00     0.076 A 
HETATM    8  C13 UNL     1      24.175   1.833  52.924  1.00  0.00     0.025 A 
HETATM    9  C14 UNL     1      25.360   2.366  53.385  1.00  0.00     0.055 A 
HETATM   10  C15 UNL     1      26.434   1.621  53.850  1.00  0.00     0.102 A 
ENDROOT
BRANCH   7  11
HETATM   11  P1  UNL     1      23.380   4.489  52.499  1.00  0.00    -0.039 P 
HETATM   12  H6  UNL     1      22.116   5.131  52.811  1.00  0.00     0.069 HD
BRANCH  11  13
HETATM   13  C7  UNL     1      24.046   5.129  50.944  1.00  0.00    -0.026 A 
HETATM   14  C8  UNL     1      23.334   6.065  50.224  1.00  0.00     0.012 A 
HETATM   15  C9  UNL     1      23.914   6.510  49.035  1.00  0.00     0.003 A 
HETATM   16  C10 UNL     1      25.135   6.038  48.603  1.00  0.00     0.024 A 
HETATM   17  C11 UNL     1      25.834   5.092  49.349  1.00  0.00     0.034 A 
HETATM   18 CL1  UNL     1      27.375   4.519  48.770  1.00  0.00    -0.084 Cl
HETATM   19  C12 UNL     1      25.258   4.654  50.524  1.00  0.00     0.036 A 
ENDBRANCH  11  13
ENDBRANCH   7  11
BRANCH  10  20
HETATM   20  O2  UNL     1      27.609   2.161  54.305  1.00  0.00    -0.353 OA
HETATM   21  C16 UNL     1      28.703   2.545  53.525  1.00  0.00     0.210 C 
ENDBRANCH  10  20
BRANCH   1  22
HETATM   22  O1  UNL     1      27.319  -0.582  54.293  1.00  0.00    -0.353 OA
HETATM   23  C1  UNL     1      28.211  -1.130  53.335  1.00  0.00     0.210 C 
ENDBRANCH   1  22
TORSDOF 4
ENDMDL
MODEL 4
REMARK VINA RESULT:      -7.2      4.117      6.911
REMARK  4 active torsions:
REMARK  status: ('A' for Active; 'I' for Inactive)
REMARK    1  A    between atoms: O1_2  and  C2_3 
REMARK    2  A    between atoms: C6_9  and  P1_10 
REMARK    3  A    between atoms: P1_10  and  C7_11 
REMARK    4  A    between atoms: C15_20  and  O2_21 
ROOT
HETATM    1  C2  UNL     1      26.631  -0.229  53.683  1.00  0.00     0.103 A 
HETATM    2  C3  UNL     1      25.459  -0.857  54.017  1.00  0.00     0.072 A 
HETATM    3  C4  UNL     1      24.228  -0.316  53.727  1.00  0.00     0.073 A 
HETATM    4  N1  UNL     1      23.037  -0.900  54.037  1.00  0.00    -0.241 NA
HETATM    5  C5  UNL     1      21.877  -0.298  53.715  1.00  0.00     0.234 A 
HETATM    6  N2  UNL     1      21.804   0.899  53.075  1.00  0.00    -0.240 NA
HETATM    7  C6  UNL     1      22.945   1.543  52.731  1.00  0.00     0.076 A 
HETATM    8  C13 UNL     1      24.133   0.912  53.070  1.00  0.00     0.025 A 
HETATM    9  C14 UNL     1      25.331   1.515  52.750  1.00  0.00     0.055 A 
HETATM   10  C15 UNL     1      26.582   0.987  53.033  1.00  0.00     0.102 A 
ENDROOT
BRANCH   7  11
HETATM   11  P1  UNL     1      22.922   3.143  51.878  1.00  0.00    -0.039 P 
HETATM   12  H6  UNL     1      21.947   4.023  52.497  1.00  0.00     0.069 HD
BRANCH  11  13
HETATM   13  C7  UNL     1      22.593   2.985  50.106  1.00  0.00    -0.026 A 
HETATM   14  C8  UNL     1      22.292   1.751  49.568  1.00  0.00     0.012 A 
HETATM   15  C9  UNL     1      22.051   1.712  48.194  1.00  0.00     0.003 A 
HETATM   16  C10 UNL     1      22.109   2.848  47.416  1.00  0.00     0.024 A 
HETATM   17  C11 UNL     1      22.415   4.082  47.983  1.00  0.00     0.034 A 
HETATM   18 CL1  UNL     1      22.480   5.496  46.965  1.00  0.00    -0.084 Cl
HETATM   19  C12 UNL     1      22.653   4.118  49.342  1.00  0.00     0.036 A 
ENDBRANCH  11  13
ENDBRANCH   7  11
BRANCH  10  20
HETATM   20  O2  UNL     1      27.767   1.596  52.709  1.00  0.00    -0.353 OA
HETATM   21  C16 UNL     1      28.527   2.427  53.538  1.00  0.00     0.210 C 
ENDBRANCH  10  20
BRANCH   1  22
HETATM   22  O1  UNL     1      27.828  -0.837  54.009  1.00  0.00    -0.353 OA
HETATM   23  C1  UNL     1      28.351  -1.816  53.125  1.00  0.00     0.210 C 
ENDBRANCH   1  22
TORSDOF 4
ENDMDL
MODEL 5
REMARK VINA RESULT:      -7.2      3.903      5.948
REMARK  4 active torsions:
REMARK  status: ('A' for Active; 'I' for Inactive)
REMARK    1  A    between atoms: O1_2  and  C2_3 
REMARK    2  A    between atoms: C6_9  and  P1_10 
REMARK    3  A    between atoms: P1_10  and  C7_11 
REMARK    4  A    between atoms: C15_20  and  O2_21 
ROOT
HETATM    1  C2  UNL     1      26.002  -0.410  53.760  1.00  0.00     0.103 A 
HETATM    2  C3  UNL     1      25.010  -0.896  54.571  1.00  0.00     0.072 A 
HETATM    3  C4  UNL     1      23.675  -0.714  54.290  1.00  0.00     0.073 A 
HETATM    4  N1  UNL     1      22.654  -1.176  55.062  1.00  0.00    -0.241 NA
HETATM    5  C5  UNL     1      21.374  -0.952  54.710  1.00  0.00     0.234 A 
HETATM    6  N2  UNL     1      21.012  -0.270  53.590  1.00  0.00    -0.240 NA
HETATM    7  C6  UNL     1      21.971   0.221  52.768  1.00  0.00     0.076 A 
HETATM    8  C13 UNL     1      23.285  -0.016  53.144  1.00  0.00     0.025 A 
HETATM    9  C14 UNL     1      24.308   0.457  52.352  1.00  0.00     0.055 A 
HETATM   10  C15 UNL     1      25.659   0.285  52.618  1.00  0.00     0.102 A 
ENDROOT
BRANCH   7  11
HETATM   11  P1  UNL     1      21.560   1.140  51.260  1.00  0.00    -0.039 P 
HETATM   12  H6  UNL     1      22.043   0.423  50.093  1.00  0.00     0.069 HD
BRANCH  11  13
HETATM   13  C7  UNL     1      22.206   2.830  51.273  1.00  0.00    -0.026 A 
HETATM   14  C8  UNL     1      21.759   3.731  52.216  1.00  0.00     0.012 A 
HETATM   15  C9  UNL     1      22.304   5.014  52.160  1.00  0.00     0.003 A 
HETATM   16  C10 UNL     1      23.243   5.362  51.212  1.00  0.00     0.024 A 
HETATM   17  C11 UNL     1      23.678   4.433  50.271  1.00  0.00     0.034 A 
HETATM   18 CL1  UNL     1      24.866   4.911  49.087  1.00  0.00    -0.084 Cl
HETATM   19  C12 UNL     1      23.137   3.165  50.328  1.00  0.00     0.036 A 
ENDBRANCH  11  13
ENDBRANCH   7  11
BRANCH  10  20
HETATM   20  O2  UNL     1      26.669   0.761  51.822  1.00  0.00    -0.353 OA
HETATM   21  C16 UNL     1      26.706   2.003  51.183  1.00  0.00     0.210 C 
ENDBRANCH  10  20
BRANCH   1  22
HETATM   22  O1  UNL     1      27.319  -0.634  54.112  1.00  0.00    -0.353 OA
HETATM   23  C1  UNL     1      27.994   0.360  54.867  1.00  0.00     0.210 C 
ENDBRANCH   1  22
TORSDOF 4
ENDMDL
MODEL 6
REMARK VINA RESULT:      -7.1      3.034      3.620
REMARK  4 active torsions:
REMARK  status: ('A' for Active; 'I' for Inactive)
REMARK    1  A    between atoms: O1_2  and  C2_3 
REMARK    2  A    between atoms: C6_9  and  P1_10 
REMARK    3  A    between atoms: P1_10  and  C7_11 
REMARK    4  A    between atoms: C15_20  and  O2_21 
ROOT
HETATM    1  C2  UNL     1      20.037  -0.559  53.194  1.00  0.00     0.103 A 
HETATM    2  C3  UNL     1      20.676  -1.103  54.278  1.00  0.00     0.072 A 
HETATM    3  C4  UNL     1      22.036  -1.005  54.456  1.00  0.00     0.073 A 
HETATM    4  N1  UNL     1      22.717  -1.527  55.513  1.00  0.00    -0.241 NA
HETATM    5  C5  UNL     1      24.051  -1.383  55.607  1.00  0.00     0.234 A 
HETATM    6  N2  UNL     1      24.802  -0.724  54.683  1.00  0.00    -0.240 NA
HETATM    7  C6  UNL     1      24.199  -0.175  53.602  1.00  0.00     0.076 A 
HETATM    8  C13 UNL     1      22.823  -0.332  53.518  1.00  0.00     0.025 A 
HETATM    9  C14 UNL     1      22.148   0.202  52.442  1.00  0.00     0.055 A 
HETATM   10  C15 UNL     1      20.778   0.113  52.244  1.00  0.00     0.102 A 
ENDROOT
BRANCH   7  11
HETATM   11  P1  UNL     1      25.138   0.716  52.332  1.00  0.00    -0.039 P 
HETATM   12  H6  UNL     1      26.546   0.746  52.684  1.00  0.00     0.069 HD
BRANCH  11  13
HETATM   13  C7  UNL     1      24.522   2.394  52.055  1.00  0.00    -0.026 A 
HETATM   14  C8  UNL     1      24.152   3.178  53.127  1.00  0.00     0.012 A 
HETATM   15  C9  UNL     1      23.687   4.460  52.832  1.00  0.00     0.003 A 
HETATM   16  C10 UNL     1      23.602   4.919  51.534  1.00  0.00     0.024 A 
HETATM   17  C11 UNL     1      23.981   4.108  50.469  1.00  0.00     0.034 A 
HETATM   18 CL1  UNL     1      23.858   4.723  48.842  1.00  0.00    -0.084 Cl
HETATM   19  C12 UNL     1      24.441   2.840  50.764  1.00  0.00     0.036 A 
ENDBRANCH  11  13
ENDBRANCH   7  11
BRANCH  10  20
HETATM   20  O2  UNL     1      20.117   0.650  51.169  1.00  0.00    -0.353 OA
HETATM   21  C16 UNL     1      19.670   1.968  51.044  1.00  0.00     0.210 C 
ENDBRANCH  10  20
BRANCH   1  22
HETATM   22  O1  UNL     1      18.668  -0.702  53.088  1.00  0.00    -0.353 OA
HETATM   23  C1  UNL     1      18.075  -1.900  53.566  1.00  0.00     0.210 C 
ENDBRANCH   1  22
TORSDOF 4
ENDMDL
MODEL 7
REMARK VINA RESULT:      -7.1      3.995      7.108
REMARK  4 active torsions:
REMARK  status: ('A' for Active; 'I' for Inactive)
REMARK    1  A    between atoms: O1_2  and  C2_3 
REMARK    2  A    between atoms: C6_9  and  P1_10 
REMARK    3  A    between atoms: P1_10  and  C7_11 
REMARK    4  A    between atoms: C15_20  and  O2_21 
ROOT
HETATM    1  C2  UNL     1      26.101  -0.257  53.021  1.00  0.00     0.103 A 
HETATM    2  C3  UNL     1      26.778   0.570  52.162  1.00  0.00     0.072 A 
HETATM    3  C4  UNL     1      26.211   1.707  51.636  1.00  0.00     0.073 A 
HETATM    4  N1  UNL     1      26.840   2.559  50.781  1.00  0.00    -0.241 NA
HETATM    5  C5  UNL     1      26.208   3.652  50.314  1.00  0.00     0.234 A 
HETATM    6  N2  UNL     1      24.931   3.981  50.651  1.00  0.00    -0.240 NA
HETATM    7  C6  UNL     1      24.238   3.184  51.498  1.00  0.00     0.076 A 
HETATM    8  C13 UNL     1      24.901   2.062  51.970  1.00  0.00     0.025 A 
HETATM    9  C14 UNL     1      24.251   1.209  52.835  1.00  0.00     0.055 A 
HETATM   10  C15 UNL     1      24.805   0.057  53.376  1.00  0.00     0.102 A 
ENDROOT
BRANCH   7  11
HETATM   11  P1  UNL     1      22.533   3.562  51.988  1.00  0.00    -0.039 P 
HETATM   12  H6  UNL     1      22.419   3.558  53.436  1.00  0.00     0.069 HD
BRANCH  11  13
HETATM   13  C7  UNL     1      21.328   2.428  51.258  1.00  0.00    -0.026 A 
HETATM   14  C8  UNL     1      21.141   2.407  49.892  1.00  0.00     0.012 A 
HETATM   15  C9  UNL     1      20.194   1.505  49.406  1.00  0.00     0.003 A 
HETATM   16  C10 UNL     1      19.482   0.678  50.248  1.00  0.00     0.024 A 
HETATM   17  C11 UNL     1      19.689   0.718  51.624  1.00  0.00     0.034 A 
HETATM   18 CL1  UNL     1      18.769  -0.344  52.656  1.00  0.00    -0.084 Cl
HETATM   19  C12 UNL     1      20.626   1.611  52.102  1.00  0.00     0.036 A 
ENDBRANCH  11  13
ENDBRANCH   7  11
BRANCH  10  20
HETATM   20  O2  UNL     1      24.148  -0.784  54.236  1.00  0.00    -0.353 OA
HETATM   21  C16 UNL     1      22.764  -0.909  54.379  1.00  0.00     0.210 C 
ENDBRANCH  10  20
BRANCH   1  22
HETATM   22  O1  UNL     1      26.741  -1.381  53.505  1.00  0.00    -0.353 OA
HETATM   23  C1  UNL     1      27.204  -2.347  52.574  1.00  0.00     0.210 C 
ENDBRANCH   1  22
TORSDOF 4
ENDMDL
MODEL 8
REMARK VINA RESULT:      -6.9      3.873      7.423
REMARK  4 active torsions:
REMARK  status: ('A' for Active; 'I' for Inactive)
REMARK    1  A    between atoms: O1_2  and  C2_3 
REMARK    2  A    between atoms: C6_9  and  P1_10 
REMARK    3  A    between atoms: P1_10  and  C7_11 
REMARK    4  A    between atoms: C15_20  and  O2_21 
ROOT
HETATM    1  C2  UNL     1      27.226   1.517  52.668  1.00  0.00     0.103 A 
HETATM    2  C3  UNL     1      26.662   0.597  53.512  1.00  0.00     0.072 A 
HETATM    3  C4  UNL     1      25.319   0.299  53.483  1.00  0.00     0.073 A 
HETATM    4  N1  UNL     1      24.711  -0.605  54.299  1.00  0.00    -0.241 NA
HETATM    5  C5  UNL     1      23.388  -0.834  54.202  1.00  0.00     0.234 A 
HETATM    6  N2  UNL     1      22.581  -0.203  53.307  1.00  0.00    -0.240 NA
HETATM    7  C6  UNL     1      23.111   0.711  52.459  1.00  0.00     0.076 A 
HETATM    8  C13 UNL     1      24.474   0.938  52.572  1.00  0.00     0.025 A 
HETATM    9  C14 UNL     1      25.075   1.856  51.739  1.00  0.00     0.055 A 
HETATM   10  C15 UNL     1      26.426   2.171  51.753  1.00  0.00     0.102 A 
ENDROOT
BRANCH   7  11
HETATM   11  P1  UNL     1      22.093   1.591  51.244  1.00  0.00    -0.039 P 
HETATM   12  H6  UNL     1      22.064   3.010  51.553  1.00  0.00     0.069 HD
BRANCH  11  13
HETATM   13  C7  UNL     1      20.410   0.936  51.135  1.00  0.00    -0.026 A 
HETATM   14  C8  UNL     1      19.626   1.228  50.040  1.00  0.00     0.012 A 
HETATM   15  C9  UNL     1      18.340   0.686  50.031  1.00  0.00     0.003 A 
HETATM   16  C10 UNL     1      17.879  -0.102  51.063  1.00  0.00     0.024 A 
HETATM   17  C11 UNL     1      18.690  -0.382  52.159  1.00  0.00     0.034 A 
HETATM   18 CL1  UNL     1      18.070  -1.383  53.445  1.00  0.00    -0.084 Cl
HETATM   19  C12 UNL     1      19.961   0.155  52.166  1.00  0.00     0.036 A 
ENDBRANCH  11  13
ENDBRANCH   7  11
BRANCH  10  20
HETATM   20  O2  UNL     1      27.014   3.087  50.918  1.00  0.00    -0.353 OA
HETATM   21  C16 UNL     1      26.570   3.452  49.644  1.00  0.00     0.210 C 
ENDBRANCH  10  20
BRANCH   1  22
HETATM   22  O1  UNL     1      28.582   1.761  52.760  1.00  0.00    -0.353 OA
HETATM   23  C1  UNL     1      29.110   2.176  54.010  1.00  0.00     0.210 C 
ENDBRANCH   1  22
TORSDOF 4
ENDMDL
MODEL 9
REMARK VINA RESULT:      -6.8      4.657      7.796
REMARK  4 active torsions:
REMARK  status: ('A' for Active; 'I' for Inactive)
REMARK    1  A    between atoms: O1_2  and  C2_3 
REMARK    2  A    between atoms: C6_9  and  P1_10 
REMARK    3  A    between atoms: P1_10  and  C7_11 
REMARK    4  A    between atoms: C15_20  and  O2_21 
ROOT
HETATM    1  C2  UNL     1      27.304   0.137  53.756  1.00  0.00     0.103 A 
HETATM    2  C3  UNL     1      27.649   1.123  52.869  1.00  0.00     0.072 A 
HETATM    3  C4  UNL     1      26.721   1.756  52.075  1.00  0.00     0.073 A 
HETATM    4  N1  UNL     1      27.013   2.740  51.180  1.00  0.00    -0.241 NA
HETATM    5  C5  UNL     1      26.039   3.305  50.442  1.00  0.00     0.234 A 
HETATM    6  N2  UNL     1      24.729   2.951  50.532  1.00  0.00    -0.240 NA
HETATM    7  C6  UNL     1      24.357   1.980  51.400  1.00  0.00     0.076 A 
HETATM    8  C13 UNL     1      25.371   1.406  52.152  1.00  0.00     0.025 A 
HETATM    9  C14 UNL     1      25.060   0.412  53.054  1.00  0.00     0.055 A 
HETATM   10  C15 UNL     1      25.981  -0.239  53.863  1.00  0.00     0.102 A 
ENDROOT
BRANCH   7  11
HETATM   11  P1  UNL     1      22.628   1.458  51.570  1.00  0.00    -0.039 P 
HETATM   12  H6  UNL     1      22.456   0.124  51.023  1.00  0.00     0.069 HD
BRANCH  11  13
HETATM   13  C7  UNL     1      21.471   2.611  50.794  1.00  0.00    -0.026 A 
HETATM   14  C8  UNL     1      20.897   3.619  51.541  1.00  0.00     0.012 A 
HETATM   15  C9  UNL     1      20.015   4.467  50.870  1.00  0.00     0.003 A 
HETATM   16  C10 UNL     1      19.732   4.306  49.531  1.00  0.00     0.024 A 
HETATM   17  C11 UNL     1      20.324   3.281  48.799  1.00  0.00     0.034 A 
HETATM   18 CL1  UNL     1      19.940   3.109  47.107  1.00  0.00    -0.084 Cl
HETATM   19  C12 UNL     1      21.196   2.443  49.464  1.00  0.00     0.036 A 
ENDBRANCH  11  13
ENDBRANCH   7  11
BRANCH  10  20
HETATM   20  O2  UNL     1      25.659  -1.227  54.758  1.00  0.00    -0.353 OA
HETATM   21  C16 UNL     1      24.635  -1.184  55.708  1.00  0.00     0.210 C 
ENDBRANCH  10  20
BRANCH   1  22
HETATM   22  O1  UNL     1      28.296  -0.450  54.517  1.00  0.00    -0.353 OA
HETATM   23  C1  UNL     1      29.492  -0.855  53.870  1.00  0.00     0.210 C 
ENDBRANCH   1  22
TORSDOF 4
ENDMDL
