MODEL 1
REMARK VINA RESULT:      -8.4      0.000      0.000
REMARK  5 active torsions:
REMARK  status: ('A' for Active; 'I' for Inactive)
REMARK    1  A    between atoms: C7_7  and  N1_8 
REMARK    2  A    between atoms: N1_8  and  C8_9 
REMARK    3  A    between atoms: C9_11  and  N3_12 
REMARK    4  A    between atoms: C10_14  and  N5_15 
REMARK    5  A    between atoms: N5_15  and  C11_16 
ROOT
HETATM    1  C1  UNL     1      28.414  -0.808  53.329  1.00  0.00     0.018 C 
HETATM    2  C2  UNL     1      27.274  -0.438  53.171  1.00  0.00    -0.078 C 
HETATM    3  C3  UNL     1      25.926   0.015  52.970  1.00  0.00     0.019 A 
HETATM    4  C4  UNL     1      24.935  -0.433  53.813  1.00  0.00     0.021 A 
HETATM    5  C5  UNL     1      23.649   0.017  53.601  1.00  0.00     0.004 A 
HETATM    6  C6  UNL     1      23.414   0.887  52.563  1.00  0.00     0.029 A 
HETATM    7  C7  UNL     1      24.354   1.375  51.684  1.00  0.00     0.035 A 
HETATM    8  C19 UNL     1      25.613   0.886  51.954  1.00  0.00     0.050 A 
ENDROOT
BRANCH   7   9
HETATM    9  N1  UNL     1      24.093   2.276  50.636  1.00  0.00    -0.340 N 
HETATM   10  H5  UNL     1      23.860   1.777  49.754  1.00  0.00     0.167 HD
BRANCH   9  11
HETATM   11  C8  UNL     1      24.120   3.689  50.695  1.00  0.00     0.157 A 
HETATM   12  N2  UNL     1      23.110   4.446  51.076  1.00  0.00    -0.045 NA
HETATM   13  C9  UNL     1      23.039   5.760  51.164  1.00  0.00     0.724 A 
HETATM   14  N4  UNL     1      24.186   6.345  50.801  1.00  0.00    -0.045 NA
HETATM   15  C10 UNL     1      25.286   5.702  50.394  1.00  0.00     0.153 A 
HETATM   16  C17 UNL     1      25.284   4.332  50.329  1.00  0.00     0.031 A 
HETATM   17  C18 UNL     1      26.544   3.711  49.872  1.00  0.00     0.056 C 
BRANCH  13  18
HETATM   18  N3  UNL     1      21.877   6.452  51.594  1.00  0.00    -0.231 N 
HETATM   19  H6  UNL     1      21.066   6.604  50.946  1.00  0.00     0.174 HD
HETATM   20  H7  UNL     1      21.935   6.776  52.593  1.00  0.00     0.174 HD
ENDBRANCH  13  18
BRANCH  15  21
HETATM   21  N5  UNL     1      26.426   6.474  50.041  1.00  0.00    -0.364 N 
HETATM   22  H8  UNL     1      27.258   6.369  50.661  1.00  0.00     0.162 HD
BRANCH  21  23
HETATM   23  C11 UNL     1      26.674   7.404  48.955  1.00  0.00     0.131 A 
HETATM   24  C12 UNL     1      26.338   8.817  49.343  1.00  0.00     0.059 A 
HETATM   25  C13 UNL     1      27.511   9.703  49.254  1.00  0.00    -0.001 A 
HETATM   26  C14 UNL     1      28.804   9.584  48.906  1.00  0.00     0.031 A 
HETATM   27 CL1  UNL     1      29.907  10.921  48.937  1.00  0.00    -0.085 Cl
HETATM   28  C15 UNL     1      29.070   8.189  48.529  1.00  0.00     0.045 A 
HETATM   29  C16 UNL     1      28.097   7.288  48.572  1.00  0.00     0.036 A 
HETATM   30 CL2  UNL     1      28.810   5.758  48.034  1.00  0.00    -0.087 Cl
ENDBRANCH  21  23
ENDBRANCH  15  21
ENDBRANCH   9  11
ENDBRANCH   7   9
TORSDOF 5
ENDMDL
MODEL 2
REMARK VINA RESULT:      -8.2      6.341      8.811
REMARK  5 active torsions:
REMARK  status: ('A' for Active; 'I' for Inactive)
REMARK    1  A    between atoms: C7_7  and  N1_8 
REMARK    2  A    between atoms: N1_8  and  C8_9 
REMARK    3  A    between atoms: C9_11  and  N3_12 
REMARK    4  A    between atoms: C10_14  and  N5_15 
REMARK    5  A    between atoms: N5_15  and  C11_16 
ROOT
HETATM    1  C1  UNL     1      29.412  -2.573  53.320  1.00  0.00     0.018 C 
HETATM    2  C2  UNL     1      28.975  -1.447  53.337  1.00  0.00    -0.078 C 
HETATM    3  C3  UNL     1      28.438  -0.115  53.347  1.00  0.00     0.019 A 
HETATM    4  C4  UNL     1      29.243   0.930  53.740  1.00  0.00     0.021 A 
HETATM    5  C5  UNL     1      28.706   2.199  53.741  1.00  0.00     0.004 A 
HETATM    6  C6  UNL     1      27.397   2.366  53.353  1.00  0.00     0.029 A 
HETATM    7  C7  UNL     1      26.538   1.370  52.948  1.00  0.00     0.035 A 
HETATM    8  C19 UNL     1      27.139   0.131  52.972  1.00  0.00     0.050 A 
ENDROOT
BRANCH   7   9
HETATM    9  N1  UNL     1      25.205   1.566  52.542  1.00  0.00    -0.340 N 
HETATM   10  H5  UNL     1      25.112   2.400  51.929  1.00  0.00     0.167 HD
BRANCH   9  11
HETATM   11  C8  UNL     1      24.084   0.774  52.879  1.00  0.00     0.157 A 
HETATM   12  N2  UNL     1      24.005  -0.009  53.938  1.00  0.00    -0.045 NA
HETATM   13  C9  UNL     1      23.011  -0.780  54.333  1.00  0.00     0.724 A 
HETATM   14  N4  UNL     1      21.967  -0.713  53.500  1.00  0.00    -0.045 NA
HETATM   15  C10 UNL     1      21.910   0.036  52.393  1.00  0.00     0.153 A 
HETATM   16  C17 UNL     1      22.986   0.814  52.046  1.00  0.00     0.031 A 
HETATM   17  C18 UNL     1      22.829   1.607  50.810  1.00  0.00     0.056 C 
BRANCH  13  18
HETATM   18  N3  UNL     1      23.060  -1.579  55.505  1.00  0.00    -0.231 N 
HETATM   19  H6  UNL     1      23.972  -1.786  55.982  1.00  0.00     0.174 HD
HETATM   20  H7  UNL     1      22.114  -1.917  55.816  1.00  0.00     0.174 HD
ENDBRANCH  13  18
BRANCH  15  21
HETATM   21  N5  UNL     1      20.724  -0.005  51.611  1.00  0.00    -0.364 N 
HETATM   22  H8  UNL     1      20.738  -0.655  50.795  1.00  0.00     0.162 HD
BRANCH  21  23
HETATM   23  C11 UNL     1      19.458   0.694  51.725  1.00  0.00     0.131 A 
HETATM   24  C12 UNL     1      19.132   1.467  50.478  1.00  0.00     0.059 A 
HETATM   25  C13 UNL     1      17.870   1.015  49.867  1.00  0.00    -0.001 A 
HETATM   26  C14 UNL     1      16.925   0.098  50.137  1.00  0.00     0.031 A 
HETATM   27 CL1  UNL     1      15.534  -0.135  49.129  1.00  0.00    -0.085 Cl
HETATM   28  C15 UNL     1      17.291  -0.616  51.368  1.00  0.00     0.045 A 
HETATM   29  C16 UNL     1      18.409  -0.308  52.013  1.00  0.00     0.036 A 
HETATM   30 CL2  UNL     1      18.475  -1.367  53.431  1.00  0.00    -0.087 Cl
ENDBRANCH  21  23
ENDBRANCH  15  21
ENDBRANCH   9  11
ENDBRANCH   7   9
TORSDOF 5
ENDMDL
MODEL 3
REMARK VINA RESULT:      -8.1      5.736      8.889
REMARK  5 active torsions:
REMARK  status: ('A' for Active; 'I' for Inactive)
REMARK    1  A    between atoms: C7_7  and  N1_8 
REMARK    2  A    between atoms: N1_8  and  C8_9 
REMARK    3  A    between atoms: C9_11  and  N3_12 
REMARK    4  A    between atoms: C10_14  and  N5_15 
REMARK    5  A    between atoms: N5_15  and  C11_16 
ROOT
HETATM    1  C1  UNL     1      13.720  -1.638  50.770  1.00  0.00     0.018 C 
HETATM    2  C2  UNL     1      14.633  -2.003  51.472  1.00  0.00    -0.078 C 
HETATM    3  C3  UNL     1      15.728  -2.420  52.302  1.00  0.00     0.019 A 
HETATM    4  C4  UNL     1      15.791  -3.728  52.724  1.00  0.00     0.021 A 
HETATM    5  C5  UNL     1      16.852  -4.104  53.519  1.00  0.00     0.004 A 
HETATM    6  C6  UNL     1      17.794  -3.162  53.856  1.00  0.00     0.029 A 
HETATM    7  C7  UNL     1      17.795  -1.841  53.472  1.00  0.00     0.035 A 
HETATM    8  C19 UNL     1      16.709  -1.536  52.681  1.00  0.00     0.050 A 
ENDROOT
BRANCH   7   9
HETATM    9  N1  UNL     1      18.778  -0.896  53.818  1.00  0.00    -0.340 N 
HETATM   10  H5  UNL     1      18.665  -0.571  54.800  1.00  0.00     0.167 HD
BRANCH   9  11
HETATM   11  C8  UNL     1      19.819  -0.405  52.997  1.00  0.00     0.157 A 
HETATM   12  N2  UNL     1      19.641   0.298  51.895  1.00  0.00    -0.045 NA
HETATM   13  C9  UNL     1      20.540   0.796  51.069  1.00  0.00     0.724 A 
HETATM   14  N4  UNL     1      21.787   0.513  51.461  1.00  0.00    -0.045 NA
HETATM   15  C10 UNL     1      22.112  -0.188  52.554  1.00  0.00     0.153 A 
HETATM   16  C17 UNL     1      21.119  -0.674  53.366  1.00  0.00     0.031 A 
HETATM   17  C18 UNL     1      21.576  -1.433  54.548  1.00  0.00     0.056 C 
BRANCH  13  18
HETATM   18  N3  UNL     1      20.206   1.541  49.908  1.00  0.00    -0.231 N 
HETATM   19  H6  UNL     1      19.223   1.867  49.738  1.00  0.00     0.174 HD
HETATM   20  H7  UNL     1      21.028   1.711  49.275  1.00  0.00     0.174 HD
ENDBRANCH  13  18
BRANCH  15  21
HETATM   21  N5  UNL     1      23.489  -0.403  52.830  1.00  0.00    -0.364 N 
HETATM   22  H8  UNL     1      23.888  -1.305  52.490  1.00  0.00     0.162 HD
BRANCH  21  23
HETATM   23  C11 UNL     1      24.484   0.406  53.510  1.00  0.00     0.131 A 
HETATM   24  C12 UNL     1      25.239  -0.386  54.541  1.00  0.00     0.059 A 
HETATM   25  C13 UNL     1      26.683  -0.423  54.254  1.00  0.00    -0.001 A 
HETATM   26  C14 UNL     1      27.508   0.075  53.317  1.00  0.00     0.031 A 
HETATM   27 CL1  UNL     1      29.219  -0.207  53.332  1.00  0.00    -0.085 Cl
HETATM   28  C15 UNL     1      26.718   0.846  52.346  1.00  0.00     0.045 A 
HETATM   29  C16 UNL     1      25.403   0.951  52.488  1.00  0.00     0.036 A 
HETATM   30 CL2  UNL     1      24.836   1.958  51.146  1.00  0.00    -0.087 Cl
ENDBRANCH  21  23
ENDBRANCH  15  21
ENDBRANCH   9  11
ENDBRANCH   7   9
TORSDOF 5
ENDMDL
MODEL 4
REMARK VINA RESULT:      -8.1      4.498      9.317
REMARK  5 active torsions:
REMARK  status: ('A' for Active; 'I' for Inactive)
REMARK    1  A    between atoms: C7_7  and  N1_8 
REMARK    2  A    between atoms: N1_8  and  C8_9 
REMARK    3  A    between atoms: C9_11  and  N3_12 
REMARK    4  A    between atoms: C10_14  and  N5_15 
REMARK    5  A    between atoms: N5_15  and  C11_16 
ROOT
HETATM    1  C1  UNL     1      25.610   9.010  47.059  1.00  0.00     0.018 C 
HETATM    2  C2  UNL     1      25.908   7.941  47.537  1.00  0.00    -0.078 C 
HETATM    3  C3  UNL     1      26.243   6.669  48.112  1.00  0.00     0.019 A 
HETATM    4  C4  UNL     1      27.562   6.279  48.159  1.00  0.00     0.021 A 
HETATM    5  C5  UNL     1      27.859   5.055  48.716  1.00  0.00     0.004 A 
HETATM    6  C6  UNL     1      26.831   4.278  49.197  1.00  0.00     0.029 A 
HETATM    7  C7  UNL     1      25.494   4.603  49.184  1.00  0.00     0.035 A 
HETATM    8  C19 UNL     1      25.271   5.838  48.614  1.00  0.00     0.050 A 
ENDROOT
BRANCH   7   9
HETATM    9  N1  UNL     1      24.459   3.798  49.695  1.00  0.00    -0.340 N 
HETATM   10  H5  UNL     1      23.624   3.813  49.075  1.00  0.00     0.167 HD
BRANCH   9  11
HETATM   11  C8  UNL     1      24.477   3.037  50.886  1.00  0.00     0.157 A 
HETATM   12  N2  UNL     1      25.395   3.134  51.828  1.00  0.00    -0.045 NA
HETATM   13  C9  UNL     1      25.496   2.472  52.964  1.00  0.00     0.724 A 
HETATM   14  N4  UNL     1      24.497   1.597  53.121  1.00  0.00    -0.045 NA
HETATM   15  C10 UNL     1      23.503   1.395  52.249  1.00  0.00     0.153 A 
HETATM   16  C17 UNL     1      23.465   2.123  51.087  1.00  0.00     0.031 A 
HETATM   17  C18 UNL     1      22.329   1.832  50.188  1.00  0.00     0.056 C 
BRANCH  13  18
HETATM   18  N3  UNL     1      26.546   2.678  53.896  1.00  0.00    -0.231 N 
HETATM   19  H6  UNL     1      27.426   2.107  53.857  1.00  0.00     0.174 HD
HETATM   20  H7  UNL     1      26.337   3.437  54.594  1.00  0.00     0.174 HD
ENDBRANCH  13  18
BRANCH  15  21
HETATM   21  N5  UNL     1      22.516   0.423  52.565  1.00  0.00    -0.364 N 
HETATM   22  H8  UNL     1      22.572  -0.474  52.035  1.00  0.00     0.162 HD
BRANCH  21  23
HETATM   23  C11 UNL     1      21.414   0.426  53.510  1.00  0.00     0.131 A 
HETATM   24  C12 UNL     1      20.092   0.634  52.825  1.00  0.00     0.059 A 
HETATM   25  C13 UNL     1      19.177  -0.499  53.043  1.00  0.00    -0.001 A 
HETATM   26  C14 UNL     1      19.209  -1.670  53.705  1.00  0.00     0.031 A 
HETATM   27 CL1  UNL     1      17.871  -2.772  53.718  1.00  0.00    -0.085 Cl
HETATM   28  C15 UNL     1      20.516  -1.813  54.360  1.00  0.00     0.045 A 
HETATM   29  C16 UNL     1      21.434  -0.863  54.236  1.00  0.00     0.036 A 
HETATM   30 CL2  UNL     1      22.837  -1.398  55.174  1.00  0.00    -0.087 Cl
ENDBRANCH  21  23
ENDBRANCH  15  21
ENDBRANCH   9  11
ENDBRANCH   7   9
TORSDOF 5
ENDMDL
MODEL 5
REMARK VINA RESULT:      -8.0      1.736      2.909
REMARK  5 active torsions:
REMARK  status: ('A' for Active; 'I' for Inactive)
REMARK    1  A    between atoms: C7_7  and  N1_8 
REMARK    2  A    between atoms: N1_8  and  C8_9 
REMARK    3  A    between atoms: C9_11  and  N3_12 
REMARK    4  A    between atoms: C10_14  and  N5_15 
REMARK    5  A    between atoms: N5_15  and  C11_16 
ROOT
HETATM    1  C1  UNL     1      21.081  -0.285  54.589  1.00  0.00     0.018 C 
HETATM    2  C2  UNL     1      22.089   0.009  53.991  1.00  0.00    -0.078 C 
HETATM    3  C3  UNL     1      23.275   0.370  53.266  1.00  0.00     0.019 A 
HETATM    4  C4  UNL     1      24.478  -0.194  53.625  1.00  0.00     0.021 A 
HETATM    5  C5  UNL     1      25.602   0.167  52.914  1.00  0.00     0.004 A 
HETATM    6  C6  UNL     1      25.474   1.068  51.884  1.00  0.00     0.029 A 
HETATM    7  C7  UNL     1      24.307   1.669  51.471  1.00  0.00     0.035 A 
HETATM    8  C19 UNL     1      23.227   1.264  52.224  1.00  0.00     0.050 A 
ENDROOT
BRANCH   7   9
HETATM    9  N1  UNL     1      24.198   2.580  50.405  1.00  0.00    -0.340 N 
HETATM   10  H5  UNL     1      24.055   2.090  49.498  1.00  0.00     0.167 HD
BRANCH   9  11
HETATM   11  C8  UNL     1      24.260   3.990  50.475  1.00  0.00     0.157 A 
HETATM   12  N2  UNL     1      23.297   4.765  50.937  1.00  0.00    -0.045 NA
HETATM   13  C9  UNL     1      23.262   6.079  51.041  1.00  0.00     0.724 A 
HETATM   14  N4  UNL     1      24.391   6.644  50.600  1.00  0.00    -0.045 NA
HETATM   15  C10 UNL     1      25.444   5.982  50.107  1.00  0.00     0.153 A 
HETATM   16  C17 UNL     1      25.407   4.613  50.030  1.00  0.00     0.031 A 
HETATM   17  C18 UNL     1      26.616   3.971  49.474  1.00  0.00     0.056 C 
BRANCH  13  18
HETATM   18  N3  UNL     1      22.150   6.791  51.562  1.00  0.00    -0.231 N 
HETATM   19  H6  UNL     1      21.559   7.400  50.945  1.00  0.00     0.174 HD
HETATM   20  H7  UNL     1      22.006   6.636  52.593  1.00  0.00     0.174 HD
ENDBRANCH  13  18
BRANCH  15  21
HETATM   21  N5  UNL     1      26.571   6.733  49.678  1.00  0.00    -0.364 N 
HETATM   22  H8  UNL     1      27.435   6.630  50.253  1.00  0.00     0.162 HD
BRANCH  21  23
HETATM   23  C11 UNL     1      26.769   7.641  48.562  1.00  0.00     0.131 A 
HETATM   24  C12 UNL     1      25.715   7.466  47.506  1.00  0.00     0.059 A 
HETATM   25  C13 UNL     1      24.945   8.702  47.289  1.00  0.00    -0.001 A 
HETATM   26  C14 UNL     1      24.944   9.954  47.781  1.00  0.00     0.031 A 
HETATM   27 CL1  UNL     1      23.832  11.169  47.242  1.00  0.00    -0.085 Cl
HETATM   28  C15 UNL     1      25.998  10.067  48.798  1.00  0.00     0.045 A 
HETATM   29  C16 UNL     1      26.760   9.022  49.092  1.00  0.00     0.036 A 
HETATM   30 CL2  UNL     1      27.900   9.567  50.333  1.00  0.00    -0.087 Cl
ENDBRANCH  21  23
ENDBRANCH  15  21
ENDBRANCH   9  11
ENDBRANCH   7   9
TORSDOF 5
ENDMDL
MODEL 6
REMARK VINA RESULT:      -8.0      2.034      3.262
REMARK  5 active torsions:
REMARK  status: ('A' for Active; 'I' for Inactive)
REMARK    1  A    between atoms: C7_7  and  N1_8 
REMARK    2  A    between atoms: N1_8  and  C8_9 
REMARK    3  A    between atoms: C9_11  and  N3_12 
REMARK    4  A    between atoms: C10_14  and  N5_15 
REMARK    5  A    between atoms: N5_15  and  C11_16 
ROOT
HETATM    1  C1  UNL     1      26.675  -0.936  53.358  1.00  0.00     0.018 C 
HETATM    2  C2  UNL     1      25.502  -0.677  53.490  1.00  0.00    -0.078 C 
HETATM    3  C3  UNL     1      24.110  -0.354  53.633  1.00  0.00     0.019 A 
HETATM    4  C4  UNL     1      23.362  -1.013  54.582  1.00  0.00     0.021 A 
HETATM    5  C5  UNL     1      22.029  -0.685  54.702  1.00  0.00     0.004 A 
HETATM    6  C6  UNL     1      21.507   0.280  53.873  1.00  0.00     0.029 A 
HETATM    7  C7  UNL     1      22.193   0.978  52.906  1.00  0.00     0.035 A 
HETATM    8  C19 UNL     1      23.517   0.600  52.842  1.00  0.00     0.050 A 
ENDROOT
BRANCH   7   9
HETATM    9  N1  UNL     1      21.641   1.971  52.078  1.00  0.00    -0.340 N 
HETATM   10  H5  UNL     1      20.719   2.295  52.434  1.00  0.00     0.167 HD
BRANCH   9  11
HETATM   11  C8  UNL     1      22.205   2.514  50.900  1.00  0.00     0.157 A 
HETATM   12  N2  UNL     1      22.130   1.961  49.705  1.00  0.00    -0.045 NA
HETATM   13  C9  UNL     1      22.619   2.386  48.557  1.00  0.00     0.724 A 
HETATM   14  N4  UNL     1      23.272   3.545  48.693  1.00  0.00    -0.045 NA
HETATM   15  C10 UNL     1      23.426   4.215  49.841  1.00  0.00     0.153 A 
HETATM   16  C17 UNL     1      22.887   3.708  50.997  1.00  0.00     0.031 A 
HETATM   17  C18 UNL     1      23.106   4.517  52.213  1.00  0.00     0.056 C 
BRANCH  13  18
HETATM   18  N3  UNL     1      22.462   1.684  47.333  1.00  0.00    -0.231 N 
HETATM   19  H6  UNL     1      21.608   1.104  47.147  1.00  0.00     0.174 HD
HETATM   20  H7  UNL     1      23.272   1.815  46.674  1.00  0.00     0.174 HD
ENDBRANCH  13  18
BRANCH  15  21
HETATM   21  N5  UNL     1      24.150   5.436  49.818  1.00  0.00    -0.364 N 
HETATM   22  H8  UNL     1      23.610   6.283  49.535  1.00  0.00     0.162 HD
BRANCH  21  23
HETATM   23  C11 UNL     1      25.534   5.754  50.121  1.00  0.00     0.131 A 
HETATM   24  C12 UNL     1      26.485   4.804  49.449  1.00  0.00     0.059 A 
HETATM   25  C13 UNL     1      27.401   5.503  48.532  1.00  0.00    -0.001 A 
HETATM   26  C14 UNL     1      27.619   6.772  48.144  1.00  0.00     0.031 A 
HETATM   27 CL1  UNL     1      28.845   7.202  46.996  1.00  0.00    -0.085 Cl
HETATM   28  C15 UNL     1      26.670   7.653  48.839  1.00  0.00     0.045 A 
HETATM   29  C16 UNL     1      25.786   7.146  49.689  1.00  0.00     0.036 A 
HETATM   30 CL2  UNL     1      24.855   8.515  50.317  1.00  0.00    -0.087 Cl
ENDBRANCH  21  23
ENDBRANCH  15  21
ENDBRANCH   9  11
ENDBRANCH   7   9
TORSDOF 5
ENDMDL
MODEL 7
REMARK VINA RESULT:      -8.0      2.143      2.759
REMARK  5 active torsions:
REMARK  status: ('A' for Active; 'I' for Inactive)
REMARK    1  A    between atoms: C7_7  and  N1_8 
REMARK    2  A    between atoms: N1_8  and  C8_9 
REMARK    3  A    between atoms: C9_11  and  N3_12 
REMARK    4  A    between atoms: C10_14  and  N5_15 
REMARK    5  A    between atoms: N5_15  and  C11_16 
ROOT
HETATM    1  C1  UNL     1      21.110  -0.978  54.211  1.00  0.00     0.018 C 
HETATM    2  C2  UNL     1      21.208  -0.389  53.160  1.00  0.00    -0.078 C 
HETATM    3  C3  UNL     1      21.341   0.321  51.919  1.00  0.00     0.019 A 
HETATM    4  C4  UNL     1      20.331   0.238  50.987  1.00  0.00     0.021 A 
HETATM    5  C5  UNL     1      20.481   0.928  49.804  1.00  0.00     0.004 A 
HETATM    6  C6  UNL     1      21.625   1.665  49.606  1.00  0.00     0.029 A 
HETATM    7  C7  UNL     1      22.671   1.793  50.491  1.00  0.00     0.035 A 
HETATM    8  C19 UNL     1      22.454   1.079  51.649  1.00  0.00     0.050 A 
ENDROOT
BRANCH   7   9
HETATM    9  N1  UNL     1      23.827   2.564  50.273  1.00  0.00    -0.340 N 
HETATM   10  H5  UNL     1      24.628   1.972  49.970  1.00  0.00     0.167 HD
BRANCH   9  11
HETATM   11  C8  UNL     1      23.963   3.963  50.422  1.00  0.00     0.157 A 
HETATM   12  N2  UNL     1      23.001   4.776  50.812  1.00  0.00    -0.045 NA
HETATM   13  C9  UNL     1      23.030   6.084  50.979  1.00  0.00     0.724 A 
HETATM   14  N4  UNL     1      24.233   6.595  50.696  1.00  0.00    -0.045 NA
HETATM   15  C10 UNL     1      25.296   5.890  50.290  1.00  0.00     0.153 A 
HETATM   16  C17 UNL     1      25.188   4.530  50.140  1.00  0.00     0.031 A 
HETATM   17  C18 UNL     1      26.413   3.838  49.691  1.00  0.00     0.056 C 
BRANCH  13  18
HETATM   18  N3  UNL     1      21.909   6.841  51.408  1.00  0.00    -0.231 N 
HETATM   19  H6  UNL     1      21.198   7.194  50.721  1.00  0.00     0.174 HD
HETATM   20  H7  UNL     1      21.888   6.995  52.448  1.00  0.00     0.174 HD
ENDBRANCH  13  18
BRANCH  15  21
HETATM   21  N5  UNL     1      26.506   6.586  50.028  1.00  0.00    -0.364 N 
HETATM   22  H8  UNL     1      27.312   6.350  50.648  1.00  0.00     0.162 HD
BRANCH  21  23
HETATM   23  C11 UNL     1      26.859   7.587  49.039  1.00  0.00     0.131 A 
HETATM   24  C12 UNL     1      26.693   8.982  49.573  1.00  0.00     0.059 A 
HETATM   25  C13 UNL     1      27.961   9.730  49.557  1.00  0.00    -0.001 A 
HETATM   26  C14 UNL     1      29.231   9.497  49.180  1.00  0.00     0.031 A 
HETATM   27 CL1  UNL     1      30.484  10.685  49.330  1.00  0.00    -0.085 Cl
HETATM   28  C15 UNL     1      29.330   8.126  48.660  1.00  0.00     0.045 A 
HETATM   29  C16 UNL     1      28.258   7.345  48.625  1.00  0.00     0.036 A 
HETATM   30 CL2  UNL     1      28.784   5.806  47.924  1.00  0.00    -0.087 Cl
ENDBRANCH  21  23
ENDBRANCH  15  21
ENDBRANCH   9  11
ENDBRANCH   7   9
TORSDOF 5
ENDMDL
MODEL 8
REMARK VINA RESULT:      -7.9      4.568      7.276
REMARK  5 active torsions:
REMARK  status: ('A' for Active; 'I' for Inactive)
REMARK    1  A    between atoms: C7_7  and  N1_8 
REMARK    2  A    between atoms: N1_8  and  C8_9 
REMARK    3  A    between atoms: C9_11  and  N3_12 
REMARK    4  A    between atoms: C10_14  and  N5_15 
REMARK    5  A    between atoms: N5_15  and  C11_16 
ROOT
HETATM    1  C1  UNL     1      16.667  -4.772  53.849  1.00  0.00     0.018 C 
HETATM    2  C2  UNL     1      17.070  -3.687  53.501  1.00  0.00    -0.078 C 
HETATM    3  C3  UNL     1      17.559  -2.396  53.106  1.00  0.00     0.019 A 
HETATM    4  C4  UNL     1      17.026  -1.788  51.993  1.00  0.00     0.021 A 
HETATM    5  C5  UNL     1      17.511  -0.549  51.634  1.00  0.00     0.004 A 
HETATM    6  C6  UNL     1      18.500   0.023  52.398  1.00  0.00     0.029 A 
HETATM    7  C7  UNL     1      19.077  -0.525  53.521  1.00  0.00     0.035 A 
HETATM    8  C19 UNL     1      18.546  -1.760  53.820  1.00  0.00     0.050 A 
ENDROOT
BRANCH   7   9
HETATM    9  N1  UNL     1      20.080   0.085  54.296  1.00  0.00    -0.340 N 
HETATM   10  H5  UNL     1      19.673   0.683  55.043  1.00  0.00     0.167 HD
BRANCH   9  11
HETATM   11  C8  UNL     1      21.479  -0.051  54.144  1.00  0.00     0.157 A 
HETATM   12  N2  UNL     1      22.247  -0.818  54.893  1.00  0.00    -0.045 NA
HETATM   13  C9  UNL     1      23.551  -1.009  54.830  1.00  0.00     0.724 A 
HETATM   14  N4  UNL     1      24.111  -0.294  53.848  1.00  0.00    -0.045 NA
HETATM   15  C10 UNL     1      23.455   0.522  53.016  1.00  0.00     0.153 A 
HETATM   16  C17 UNL     1      22.096   0.669  53.144  1.00  0.00     0.031 A 
HETATM   17  C18 UNL     1      21.460   1.589  52.180  1.00  0.00     0.056 C 
BRANCH  13  18
HETATM   18  N3  UNL     1      24.257  -1.872  55.708  1.00  0.00    -0.231 N 
HETATM   19  H6  UNL     1      24.358  -1.645  56.727  1.00  0.00     0.174 HD
HETATM   20  H7  UNL     1      24.645  -2.723  55.227  1.00  0.00     0.174 HD
ENDBRANCH  13  18
BRANCH  15  21
HETATM   21  N5  UNL     1      24.200   1.213  52.023  1.00  0.00    -0.364 N 
HETATM   22  H8  UNL     1      23.952   0.997  51.033  1.00  0.00     0.162 HD
BRANCH  21  23
HETATM   23  C11 UNL     1      25.267   2.193  52.112  1.00  0.00     0.131 A 
HETATM   24  C12 UNL     1      26.404   1.866  51.186  1.00  0.00     0.059 A 
HETATM   25  C13 UNL     1      26.637   2.938  50.204  1.00  0.00    -0.001 A 
HETATM   26  C14 UNL     1      26.106   4.141  49.924  1.00  0.00     0.031 A 
HETATM   27 CL1  UNL     1      26.687   5.141  48.632  1.00  0.00    -0.085 Cl
HETATM   28  C15 UNL     1      25.010   4.410  50.864  1.00  0.00     0.045 A 
HETATM   29  C16 UNL     1      24.695   3.520  51.796  1.00  0.00     0.036 A 
HETATM   30 CL2  UNL     1      23.356   4.218  52.721  1.00  0.00    -0.087 Cl
ENDBRANCH  21  23
ENDBRANCH  15  21
ENDBRANCH   9  11
ENDBRANCH   7   9
TORSDOF 5
ENDMDL
MODEL 9
REMARK VINA RESULT:      -7.8      5.498      7.951
REMARK  5 active torsions:
REMARK  status: ('A' for Active; 'I' for Inactive)
REMARK    1  A    between atoms: C7_7  and  N1_8 
REMARK    2  A    between atoms: N1_8  and  C8_9 
REMARK    3  A    between atoms: C9_11  and  N3_12 
REMARK    4  A    between atoms: C10_14  and  N5_15 
REMARK    5  A    between atoms: N5_15  and  C11_16 
ROOT
HETATM    1  C1  UNL     1      16.707  -4.523  53.829  1.00  0.00     0.018 C 
HETATM    2  C2  UNL     1      17.116  -3.446  53.466  1.00  0.00    -0.078 C 
HETATM    3  C3  UNL     1      17.615  -2.165  53.051  1.00  0.00     0.019 A 
HETATM    4  C4  UNL     1      16.963  -1.483  52.049  1.00  0.00     0.021 A 
HETATM    5  C5  UNL     1      17.460  -0.256  51.668  1.00  0.00     0.004 A 
HETATM    6  C6  UNL     1      18.579   0.232  52.301  1.00  0.00     0.029 A 
HETATM    7  C7  UNL     1      19.279  -0.392  53.308  1.00  0.00     0.035 A 
HETATM    8  C19 UNL     1      18.728  -1.611  53.637  1.00  0.00     0.050 A 
ENDROOT
BRANCH   7   9
HETATM    9  N1  UNL     1      20.415   0.132  53.951  1.00  0.00    -0.340 N 
HETATM   10  H5  UNL     1      20.329   0.069  54.986  1.00  0.00     0.167 HD
BRANCH   9  11
HETATM   11  C8  UNL     1      21.563   0.687  53.342  1.00  0.00     0.157 A 
HETATM   12  N2  UNL     1      21.552   1.698  52.494  1.00  0.00    -0.045 NA
HETATM   13  C9  UNL     1      22.562   2.280  51.878  1.00  0.00     0.724 A 
HETATM   14  N4  UNL     1      23.732   1.720  52.201  1.00  0.00    -0.045 NA
HETATM   15  C10 UNL     1      23.890   0.692  53.043  1.00  0.00     0.153 A 
HETATM   16  C17 UNL     1      22.790   0.138  53.648  1.00  0.00     0.031 A 
HETATM   17  C18 UNL     1      23.064  -0.990  54.562  1.00  0.00     0.056 C 
BRANCH  13  18
HETATM   18  N3  UNL     1      22.406   3.370  50.983  1.00  0.00    -0.231 N 
HETATM   19  H6  UNL     1      21.640   4.076  51.116  1.00  0.00     0.174 HD
HETATM   20  H7  UNL     1      23.120   3.377  50.210  1.00  0.00     0.174 HD
ENDBRANCH  13  18
BRANCH  15  21
HETATM   21  N5  UNL     1      25.206   0.211  53.280  1.00  0.00    -0.364 N 
HETATM   22  H8  UNL     1      25.345  -0.323  54.166  1.00  0.00     0.162 HD
BRANCH  21  23
HETATM   23  C11 UNL     1      26.433   0.311  52.511  1.00  0.00     0.131 A 
HETATM   24  C12 UNL     1      27.341   1.382  53.047  1.00  0.00     0.059 A 
HETATM   25  C13 UNL     1      28.641   0.836  53.473  1.00  0.00    -0.001 A 
HETATM   26  C14 UNL     1      29.235  -0.370  53.499  1.00  0.00     0.031 A 
HETATM   27 CL1  UNL     1      30.842  -0.607  54.103  1.00  0.00    -0.085 Cl
HETATM   28  C15 UNL     1      28.306  -1.371  52.956  1.00  0.00     0.045 A 
HETATM   29  C16 UNL     1      27.099  -1.009  52.542  1.00  0.00     0.036 A 
HETATM   30 CL2  UNL     1      26.311  -2.481  51.952  1.00  0.00    -0.087 Cl
ENDBRANCH  21  23
ENDBRANCH  15  21
ENDBRANCH   9  11
ENDBRANCH   7   9
TORSDOF 5
ENDMDL
