MODEL 1
REMARK VINA RESULT:      -7.1      0.000      0.000
REMARK  3 active torsions:
REMARK  status: ('A' for Active; 'I' for Inactive)
REMARK    1  A    between atoms: C2_2  and  C3_3 
REMARK    2  A    between atoms: C2_2  and  N1_5 
REMARK    3  A    between atoms: N1_5  and  C4_6 
ROOT
HETATM    1  C4  UNL     1      22.724   1.342  50.805  1.00  0.00     0.105 C 
HETATM    2  C5  UNL     1      23.734   2.429  51.210  1.00  0.00     0.053 C 
HETATM    3  C6  UNL     1      24.926   1.694  51.674  1.00  0.00     0.097 C 
HETATM    4  N2  UNL     1      24.774   0.615  52.378  1.00  0.00    -0.267 NA
HETATM    5  C7  UNL     1      23.493   0.154  52.836  1.00  0.00     0.061 C 
HETATM    6  C8  UNL     1      23.381  -0.519  53.968  1.00  0.00     0.051 C 
HETATM    7  C9  UNL     1      24.499  -0.824  54.788  1.00  0.00     0.097 C 
HETATM    8  N3  UNL     1      25.391  -1.083  55.451  1.00  0.00    -0.192 NA
HETATM    9  C10 UNL     1      21.954  -0.905  54.262  1.00  0.00     0.079 C 
HETATM   10  C11 UNL     1      21.119   0.316  53.973  1.00  0.00    -0.014 C 
HETATM   11  C12 UNL     1      21.272   1.032  52.844  1.00  0.00    -0.050 C 
HETATM   12  C13 UNL     1      20.371   2.206  52.712  1.00  0.00     0.007 C 
HETATM   13  C14 UNL     1      20.500   3.502  52.442  1.00  0.00     0.000 C 
HETATM   14  C15 UNL     1      21.402   4.580  52.133  1.00  0.00    -0.004 C 
HETATM   15  C16 UNL     1      22.742   4.622  52.009  1.00  0.00    -0.026 C 
HETATM   16  C17 UNL     1      23.184   3.267  52.291  1.00  0.00     0.039 C 
HETATM   17  C18 UNL     1      22.338   0.486  51.957  1.00  0.00     0.095 C 
ENDROOT
BRANCH   1  18
HETATM   18  N1  UNL     1      21.571   1.876  50.151  1.00  0.00    -0.385 N 
HETATM   19  H4  UNL     1      20.619   2.207  49.880  1.00  0.00     0.160 HD
BRANCH  18  20
HETATM   20  C2  UNL     1      21.920   2.335  48.826  1.00  0.00     0.029 C 
HETATM   21  C1  UNL     1      22.566   1.962  47.709  1.00  0.00     0.065 C 
BRANCH  20  22
HETATM   22  C3  UNL     1      21.385   3.684  48.607  1.00  0.00     0.403 C 
HETATM   23  O1  UNL     1      21.376   4.951  48.579  1.00  0.00    -0.404 OA
ENDBRANCH  20  22
ENDBRANCH  18  20
ENDBRANCH   1  18
TORSDOF 3
ENDMDL
MODEL 2
REMARK VINA RESULT:      -7.1      1.725      2.102
REMARK  3 active torsions:
REMARK  status: ('A' for Active; 'I' for Inactive)
REMARK    1  A    between atoms: C2_2  and  C3_3 
REMARK    2  A    between atoms: C2_2  and  N1_5 
REMARK    3  A    between atoms: N1_5  and  C4_6 
ROOT
HETATM    1  C4  UNL     1      24.212   1.918  51.227  1.00  0.00     0.105 C 
HETATM    2  C5  UNL     1      24.765   2.687  52.439  1.00  0.00     0.053 C 
HETATM    3  C6  UNL     1      25.268   1.649  53.357  1.00  0.00     0.097 C 
HETATM    4  N2  UNL     1      24.597   0.547  53.503  1.00  0.00    -0.267 NA
HETATM    5  C7  UNL     1      23.312   0.330  52.899  1.00  0.00     0.061 C 
HETATM    6  C8  UNL     1      22.413  -0.444  53.482  1.00  0.00     0.051 C 
HETATM    7  C9  UNL     1      22.656  -1.098  54.719  1.00  0.00     0.097 C 
HETATM    8  N3  UNL     1      22.842  -1.636  55.708  1.00  0.00    -0.192 NA
HETATM    9  C10 UNL     1      21.137  -0.535  52.684  1.00  0.00     0.079 C 
HETATM   10  C11 UNL     1      20.815   0.869  52.242  1.00  0.00    -0.014 C 
HETATM   11  C12 UNL     1      21.746   1.675  51.698  1.00  0.00    -0.050 C 
HETATM   12  C13 UNL     1      21.266   3.028  51.316  1.00  0.00     0.007 C 
HETATM   13  C14 UNL     1      21.644   4.286  51.525  1.00  0.00     0.000 C 
HETATM   14  C15 UNL     1      22.599   5.166  52.147  1.00  0.00    -0.004 C 
HETATM   15  C16 UNL     1      23.669   4.922  52.927  1.00  0.00    -0.026 C 
HETATM   16  C17 UNL     1      23.698   3.477  53.079  1.00  0.00     0.039 C 
HETATM   17  C18 UNL     1      23.084   1.025  51.603  1.00  0.00     0.095 C 
ENDROOT
BRANCH   1  18
HETATM   18  N1  UNL     1      23.849   2.778  50.145  1.00  0.00    -0.385 N 
HETATM   19  H4  UNL     1      23.363   3.321  49.398  1.00  0.00     0.160 HD
BRANCH  18  20
HETATM   20  C2  UNL     1      25.017   3.469  49.647  1.00  0.00     0.029 C 
HETATM   21  C1  UNL     1      26.345   3.336  49.496  1.00  0.00     0.065 C 
BRANCH  20  22
HETATM   22  C3  UNL     1      24.633   4.780  49.113  1.00  0.00     0.403 C 
HETATM   23  O1  UNL     1      23.878   5.666  48.610  1.00  0.00    -0.404 OA
ENDBRANCH  20  22
ENDBRANCH  18  20
ENDBRANCH   1  18
TORSDOF 3
ENDMDL
MODEL 3
REMARK VINA RESULT:      -7.0      2.702      3.406
REMARK  3 active torsions:
REMARK  status: ('A' for Active; 'I' for Inactive)
REMARK    1  A    between atoms: C2_2  and  C3_3 
REMARK    2  A    between atoms: C2_2  and  N1_5 
REMARK    3  A    between atoms: N1_5  and  C4_6 
ROOT
HETATM    1  C4  UNL     1      24.244   3.390  49.441  1.00  0.00     0.105 C 
HETATM    2  C5  UNL     1      25.131   4.640  49.321  1.00  0.00     0.053 C 
HETATM    3  C6  UNL     1      26.516   4.140  49.404  1.00  0.00     0.097 C 
HETATM    4  N2  UNL     1      26.799   3.186  50.237  1.00  0.00    -0.267 NA
HETATM    5  C7  UNL     1      25.850   2.664  51.179  1.00  0.00     0.061 C 
HETATM    6  C8  UNL     1      26.247   2.185  52.345  1.00  0.00     0.051 C 
HETATM    7  C9  UNL     1      27.613   2.157  52.733  1.00  0.00     0.097 C 
HETATM    8  N3  UNL     1      28.707   2.121  53.053  1.00  0.00    -0.192 NA
HETATM    9  C10 UNL     1      25.094   1.691  53.181  1.00  0.00     0.079 C 
HETATM   10  C11 UNL     1      24.016   2.738  53.073  1.00  0.00    -0.014 C 
HETATM   11  C12 UNL     1      23.650   3.264  51.890  1.00  0.00    -0.050 C 
HETATM   12  C13 UNL     1      22.573   4.285  51.957  1.00  0.00     0.007 C 
HETATM   13  C14 UNL     1      22.379   5.522  51.508  1.00  0.00     0.000 C 
HETATM   14  C15 UNL     1      22.924   6.630  50.769  1.00  0.00    -0.004 C 
HETATM   15  C16 UNL     1      24.113   6.807  50.162  1.00  0.00    -0.026 C 
HETATM   16  C17 UNL     1      24.849   5.580  50.421  1.00  0.00     0.039 C 
HETATM   17  C18 UNL     1      24.426   2.703  50.747  1.00  0.00     0.095 C 
ENDROOT
BRANCH   1  18
HETATM   18  N1  UNL     1      22.863   3.666  49.193  1.00  0.00    -0.385 N 
HETATM   19  H4  UNL     1      21.905   4.073  49.128  1.00  0.00     0.160 HD
BRANCH  18  20
HETATM   20  C2  UNL     1      22.259   2.567  48.475  1.00  0.00     0.029 C 
HETATM   21  C1  UNL     1      21.691   1.364  48.658  1.00  0.00     0.065 C 
BRANCH  20  22
HETATM   22  C3  UNL     1      22.257   2.851  47.035  1.00  0.00     0.403 C 
HETATM   23  O1  UNL     1      21.968   3.457  45.960  1.00  0.00    -0.404 OA
ENDBRANCH  20  22
ENDBRANCH  18  20
ENDBRANCH   1  18
TORSDOF 3
ENDMDL
MODEL 4
REMARK VINA RESULT:      -6.8      3.043      5.861
REMARK  3 active torsions:
REMARK  status: ('A' for Active; 'I' for Inactive)
REMARK    1  A    between atoms: C2_2  and  C3_3 
REMARK    2  A    between atoms: C2_2  and  N1_5 
REMARK    3  A    between atoms: N1_5  and  C4_6 
ROOT
HETATM    1  C4  UNL     1      23.589   2.865  51.222  1.00  0.00     0.105 C 
HETATM    2  C5  UNL     1      23.751   3.368  52.666  1.00  0.00     0.053 C 
HETATM    3  C6  UNL     1      23.396   4.798  52.618  1.00  0.00     0.097 C 
HETATM    4  N2  UNL     1      23.776   5.515  51.605  1.00  0.00    -0.267 NA
HETATM    5  C7  UNL     1      24.636   5.012  50.571  1.00  0.00     0.061 C 
HETATM    6  C8  UNL     1      25.466   5.816  49.930  1.00  0.00     0.051 C 
HETATM    7  C9  UNL     1      25.560   7.203  50.220  1.00  0.00     0.097 C 
HETATM    8  N3  UNL     1      25.639   8.320  50.436  1.00  0.00    -0.192 NA
HETATM    9  C10 UNL     1      26.275   5.087  48.888  1.00  0.00     0.079 C 
HETATM   10  C11 UNL     1      26.741   3.808  49.535  1.00  0.00    -0.014 C 
HETATM   11  C12 UNL     1      25.905   3.017  50.232  1.00  0.00    -0.050 C 
HETATM   12  C13 UNL     1      26.522   1.793  50.806  1.00  0.00     0.007 C 
HETATM   13  C14 UNL     1      26.577   1.201  51.995  1.00  0.00     0.000 C 
HETATM   14  C15 UNL     1      26.184   1.247  53.379  1.00  0.00    -0.004 C 
HETATM   15  C16 UNL     1      25.468   2.147  54.079  1.00  0.00    -0.026 C 
HETATM   16  C17 UNL     1      25.142   3.190  53.121  1.00  0.00     0.039 C 
HETATM   17  C18 UNL     1      24.516   3.556  50.286  1.00  0.00     0.095 C 
ENDROOT
BRANCH   1  18
HETATM   18  N1  UNL     1      23.713   1.445  51.114  1.00  0.00    -0.385 N 
HETATM   19  H4  UNL     1      23.999   0.463  50.905  1.00  0.00     0.160 HD
BRANCH  18  20
HETATM   20  C2  UNL     1      22.635   0.797  51.825  1.00  0.00     0.029 C 
HETATM   21  C1  UNL     1      22.369   0.090  52.936  1.00  0.00     0.065 C 
BRANCH  20  22
HETATM   22  C3  UNL     1      21.378   0.962  51.086  1.00  0.00     0.403 C 
HETATM   23  O1  UNL     1      20.179   1.315  50.876  1.00  0.00    -0.404 OA
ENDBRANCH  20  22
ENDBRANCH  18  20
ENDBRANCH   1  18
TORSDOF 3
ENDMDL
MODEL 5
REMARK VINA RESULT:      -6.7      3.337      6.022
REMARK  3 active torsions:
REMARK  status: ('A' for Active; 'I' for Inactive)
REMARK    1  A    between atoms: C2_2  and  C3_3 
REMARK    2  A    between atoms: C2_2  and  N1_5 
REMARK    3  A    between atoms: N1_5  and  C4_6 
ROOT
HETATM    1  C4  UNL     1      23.477   3.663  49.848  1.00  0.00     0.105 C 
HETATM    2  C5  UNL     1      23.173   4.119  51.285  1.00  0.00     0.053 C 
HETATM    3  C6  UNL     1      22.915   5.567  51.184  1.00  0.00     0.097 C 
HETATM    4  N2  UNL     1      23.639   6.288  50.383  1.00  0.00    -0.267 NA
HETATM    5  C7  UNL     1      24.771   5.766  49.670  1.00  0.00     0.061 C 
HETATM    6  C8  UNL     1      25.800   6.540  49.373  1.00  0.00     0.051 C 
HETATM    7  C9  UNL     1      25.852   7.912  49.735  1.00  0.00     0.097 C 
HETATM    8  N3  UNL     1      25.902   9.018  50.013  1.00  0.00    -0.192 NA
HETATM    9  C10 UNL     1      26.876   5.795  48.626  1.00  0.00     0.079 C 
HETATM   10  C11 UNL     1      27.047   4.476  49.335  1.00  0.00    -0.014 C 
HETATM   11  C12 UNL     1      25.994   3.715  49.684  1.00  0.00    -0.050 C 
HETATM   12  C13 UNL     1      26.334   2.445  50.377  1.00  0.00     0.007 C 
HETATM   13  C14 UNL     1      25.967   1.820  51.492  1.00  0.00     0.000 C 
HETATM   14  C15 UNL     1      25.139   1.851  52.669  1.00  0.00    -0.004 C 
HETATM   15  C16 UNL     1      24.271   2.770  53.132  1.00  0.00    -0.026 C 
HETATM   16  C17 UNL     1      24.325   3.854  52.165  1.00  0.00     0.039 C 
HETATM   17  C18 UNL     1      24.690   4.326  49.300  1.00  0.00     0.095 C 
ENDROOT
BRANCH   1  18
HETATM   18  N1  UNL     1      23.569   2.241  49.727  1.00  0.00    -0.385 N 
HETATM   19  H4  UNL     1      23.870   1.250  49.607  1.00  0.00     0.160 HD
BRANCH  18  20
HETATM   20  C2  UNL     1      22.261   1.645  49.877  1.00  0.00     0.029 C 
HETATM   21  C1  UNL     1      21.505   0.947  50.741  1.00  0.00     0.065 C 
BRANCH  20  22
HETATM   22  C3  UNL     1      21.465   1.875  48.667  1.00  0.00     0.403 C 
HETATM   23  O1  UNL     1      20.496   2.288  47.962  1.00  0.00    -0.404 OA
ENDBRANCH  20  22
ENDBRANCH  18  20
ENDBRANCH   1  18
TORSDOF 3
ENDMDL
MODEL 6
REMARK VINA RESULT:      -6.7      1.675      2.465
REMARK  3 active torsions:
REMARK  status: ('A' for Active; 'I' for Inactive)
REMARK    1  A    between atoms: C2_2  and  C3_3 
REMARK    2  A    between atoms: C2_2  and  N1_5 
REMARK    3  A    between atoms: N1_5  and  C4_6 
ROOT
HETATM    1  C4  UNL     1      23.025   1.730  50.551  1.00  0.00     0.105 C 
HETATM    2  C5  UNL     1      22.879   3.203  50.968  1.00  0.00     0.053 C 
HETATM    3  C6  UNL     1      24.258   3.717  51.056  1.00  0.00     0.097 C 
HETATM    4  N2  UNL     1      25.189   2.962  51.554  1.00  0.00    -0.267 NA
HETATM    5  C7  UNL     1      24.923   1.678  52.139  1.00  0.00     0.061 C 
HETATM    6  C8  UNL     1      25.676   1.212  53.121  1.00  0.00     0.051 C 
HETATM    7  C9  UNL     1      26.776   1.939  53.648  1.00  0.00     0.097 C 
HETATM    8  N3  UNL     1      27.667   2.509  54.076  1.00  0.00    -0.192 NA
HETATM    9  C10 UNL     1      25.225  -0.147  53.590  1.00  0.00     0.079 C 
HETATM   10  C11 UNL     1      23.723  -0.078  53.699  1.00  0.00    -0.014 C 
HETATM   11  C12 UNL     1      22.962   0.445  52.721  1.00  0.00    -0.050 C 
HETATM   12  C13 UNL     1      21.500   0.438  52.985  1.00  0.00     0.007 C 
HETATM   13  C14 UNL     1      20.503   1.319  52.952  1.00  0.00     0.000 C 
HETATM   14  C15 UNL     1      20.113   2.681  52.699  1.00  0.00    -0.004 C 
HETATM   15  C16 UNL     1      20.824   3.767  52.343  1.00  0.00    -0.026 C 
HETATM   16  C17 UNL     1      22.200   3.305  52.272  1.00  0.00     0.039 C 
HETATM   17  C18 UNL     1      23.766   0.936  51.567  1.00  0.00     0.095 C 
ENDROOT
BRANCH   1  18
HETATM   18  N1  UNL     1      21.772   1.118  50.234  1.00  0.00    -0.385 N 
HETATM   19  H4  UNL     1      20.919   0.520  50.179  1.00  0.00     0.160 HD
BRANCH  18  20
HETATM   20  C2  UNL     1      21.128   1.836  49.158  1.00  0.00     0.029 C 
HETATM   21  C1  UNL     1      20.043   2.575  48.874  1.00  0.00     0.065 C 
BRANCH  20  22
HETATM   22  C3  UNL     1      21.932   1.730  47.935  1.00  0.00     0.403 C 
HETATM   23  O1  UNL     1      22.916   1.920  47.158  1.00  0.00    -0.404 OA
ENDBRANCH  20  22
ENDBRANCH  18  20
ENDBRANCH   1  18
TORSDOF 3
ENDMDL
MODEL 7
REMARK VINA RESULT:      -6.6      1.612      3.695
REMARK  3 active torsions:
REMARK  status: ('A' for Active; 'I' for Inactive)
REMARK    1  A    between atoms: C2_2  and  C3_3 
REMARK    2  A    between atoms: C2_2  and  N1_5 
REMARK    3  A    between atoms: N1_5  and  C4_6 
ROOT
HETATM    1  C4  UNL     1      22.397   2.725  51.998  1.00  0.00     0.105 C 
HETATM    2  C5  UNL     1      21.748   1.403  51.553  1.00  0.00     0.053 C 
HETATM    3  C6  UNL     1      22.137   0.418  52.578  1.00  0.00     0.097 C 
HETATM    4  N2  UNL     1      23.338   0.451  53.069  1.00  0.00    -0.267 NA
HETATM    5  C7  UNL     1      24.360   1.333  52.577  1.00  0.00     0.061 C 
HETATM    6  C8  UNL     1      25.634   0.985  52.622  1.00  0.00     0.051 C 
HETATM    7  C9  UNL     1      26.066  -0.261  53.150  1.00  0.00     0.097 C 
HETATM    8  N3  UNL     1      26.426  -1.254  53.580  1.00  0.00    -0.192 NA
HETATM    9  C10 UNL     1      26.536   2.050  52.055  1.00  0.00     0.079 C 
HETATM   10  C11 UNL     1      25.882   2.523  50.782  1.00  0.00    -0.014 C 
HETATM   11  C12 UNL     1      24.573   2.826  50.725  1.00  0.00    -0.050 C 
HETATM   12  C13 UNL     1      24.084   3.276  49.396  1.00  0.00     0.007 C 
HETATM   13  C14 UNL     1      23.092   2.961  48.569  1.00  0.00     0.000 C 
HETATM   14  C15 UNL     1      21.947   2.121  48.332  1.00  0.00    -0.004 C 
HETATM   15  C16 UNL     1      21.398   1.126  49.055  1.00  0.00    -0.026 C 
HETATM   16  C17 UNL     1      22.251   1.003  50.226  1.00  0.00     0.039 C 
HETATM   17  C18 UNL     1      23.880   2.632  52.031  1.00  0.00     0.095 C 
ENDROOT
BRANCH   1  18
HETATM   18  N1  UNL     1      21.968   3.842  51.215  1.00  0.00    -0.385 N 
HETATM   19  H4  UNL     1      21.891   4.681  50.600  1.00  0.00     0.160 HD
BRANCH  18  20
HETATM   20  C2  UNL     1      20.531   3.970  51.278  1.00  0.00     0.029 C 
HETATM   21  C1  UNL     1      19.453   3.528  51.948  1.00  0.00     0.065 C 
BRANCH  20  22
HETATM   22  C3  UNL     1      20.067   4.913  50.254  1.00  0.00     0.403 C 
HETATM   23  O1  UNL     1      19.388   5.858  49.752  1.00  0.00    -0.404 OA
ENDBRANCH  20  22
ENDBRANCH  18  20
ENDBRANCH   1  18
TORSDOF 3
ENDMDL
MODEL 8
REMARK VINA RESULT:      -6.4      3.157      5.986
REMARK  3 active torsions:
REMARK  status: ('A' for Active; 'I' for Inactive)
REMARK    1  A    between atoms: C2_2  and  C3_3 
REMARK    2  A    between atoms: C2_2  and  N1_5 
REMARK    3  A    between atoms: N1_5  and  C4_6 
ROOT
HETATM    1  C4  UNL     1      24.189   3.618  51.660  1.00  0.00     0.105 C 
HETATM    2  C5  UNL     1      24.188   2.785  50.366  1.00  0.00     0.053 C 
HETATM    3  C6  UNL     1      25.031   3.539  49.421  1.00  0.00     0.097 C 
HETATM    4  N2  UNL     1      24.953   4.835  49.392  1.00  0.00    -0.267 NA
HETATM    5  C7  UNL     1      23.993   5.577  50.160  1.00  0.00     0.061 C 
HETATM    6  C8  UNL     1      23.517   6.728  49.718  1.00  0.00     0.051 C 
HETATM    7  C9  UNL     1      23.919   7.294  48.479  1.00  0.00     0.097 C 
HETATM    8  N3  UNL     1      24.240   7.763  47.489  1.00  0.00    -0.192 NA
HETATM    9  C10 UNL     1      22.524   7.339  50.673  1.00  0.00     0.079 C 
HETATM   10  C11 UNL     1      21.618   6.217  51.113  1.00  0.00    -0.014 C 
HETATM   11  C12 UNL     1      22.102   5.027  51.512  1.00  0.00    -0.050 C 
HETATM   12  C13 UNL     1      21.077   4.029  51.913  1.00  0.00     0.007 C 
HETATM   13  C14 UNL     1      20.789   2.764  51.624  1.00  0.00     0.000 C 
HETATM   14  C15 UNL     1      21.144   1.596  50.861  1.00  0.00    -0.004 C 
HETATM   15  C16 UNL     1      22.119   1.374  49.959  1.00  0.00    -0.026 C 
HETATM   16  C17 UNL     1      22.816   2.645  49.845  1.00  0.00     0.039 C 
HETATM   17  C18 UNL     1      23.590   4.963  51.454  1.00  0.00     0.095 C 
ENDROOT
BRANCH   1  18
HETATM   18  N1  UNL     1      23.569   2.939  52.754  1.00  0.00    -0.385 N 
HETATM   19  H4  UNL     1      22.957   2.624  53.538  1.00  0.00     0.160 HD
BRANCH  18  20
HETATM   20  C2  UNL     1      24.328   1.759  53.101  1.00  0.00     0.029 C 
HETATM   21  C1  UNL     1      24.239   0.420  53.163  1.00  0.00     0.065 C 
BRANCH  20  22
HETATM   22  C3  UNL     1      25.673   2.142  53.544  1.00  0.00     0.403 C 
HETATM   23  O1  UNL     1      26.690   2.188  54.299  1.00  0.00    -0.404 OA
ENDBRANCH  20  22
ENDBRANCH  18  20
ENDBRANCH   1  18
TORSDOF 3
ENDMDL
MODEL 9
REMARK VINA RESULT:      -6.2      9.327     11.304
REMARK  3 active torsions:
REMARK  status: ('A' for Active; 'I' for Inactive)
REMARK    1  A    between atoms: C2_2  and  C3_3 
REMARK    2  A    between atoms: C2_2  and  N1_5 
REMARK    3  A    between atoms: N1_5  and  C4_6 
ROOT
HETATM    1  C4  UNL     1      29.786   7.873  49.014  1.00  0.00     0.105 C 
HETATM    2  C5  UNL     1      28.960   7.259  47.871  1.00  0.00     0.053 C 
HETATM    3  C6  UNL     1      29.065   5.801  48.059  1.00  0.00     0.097 C 
HETATM    4  N2  UNL     1      30.198   5.286  48.427  1.00  0.00    -0.267 NA
HETATM    5  C7  UNL     1      31.404   6.058  48.549  1.00  0.00     0.061 C 
HETATM    6  C8  UNL     1      32.585   5.507  48.329  1.00  0.00     0.051 C 
HETATM    7  C9  UNL     1      32.734   4.143  47.965  1.00  0.00     0.097 C 
HETATM    8  N3  UNL     1      32.868   3.046  47.680  1.00  0.00    -0.192 NA
HETATM    9  C10 UNL     1      33.714   6.489  48.510  1.00  0.00     0.079 C 
HETATM   10  C11 UNL     1      33.283   7.758  47.820  1.00  0.00    -0.014 C 
HETATM   11  C12 UNL     1      32.060   8.288  48.004  1.00  0.00    -0.050 C 
HETATM   12  C13 UNL     1      31.794   9.541  47.250  1.00  0.00     0.007 C 
HETATM   13  C14 UNL     1      30.847  10.001  46.437  1.00  0.00     0.000 C 
HETATM   14  C15 UNL     1      29.601   9.730  45.770  1.00  0.00    -0.004 C 
HETATM   15  C16 UNL     1      28.816   8.636  45.745  1.00  0.00    -0.026 C 
HETATM   16  C17 UNL     1      29.513   7.658  46.563  1.00  0.00     0.039 C 
HETATM   17  C18 UNL     1      31.219   7.484  48.935  1.00  0.00     0.095 C 
ENDROOT
BRANCH   1  18
HETATM   18  N1  UNL     1      29.642   9.293  49.099  1.00  0.00    -0.385 N 
HETATM   19  H4  UNL     1      29.768  10.329  49.091  1.00  0.00     0.160 HD
BRANCH  18  20
HETATM   20  C2  UNL     1      28.302   9.632  49.519  1.00  0.00     0.029 C 
HETATM   21  C1  UNL     1      27.272   9.177  50.252  1.00  0.00     0.065 C 
BRANCH  20  22
HETATM   22  C3  UNL     1      27.913  10.929  48.954  1.00  0.00     0.403 C 
HETATM   23  O1  UNL     1      27.695  12.177  48.925  1.00  0.00    -0.404 OA
ENDBRANCH  20  22
ENDBRANCH  18  20
ENDBRANCH   1  18
TORSDOF 3
ENDMDL
