MODEL 1
REMARK VINA RESULT:      -7.1      0.000      0.000
REMARK  10 active torsions:
REMARK  status: ('A' for Active; 'I' for Inactive)
REMARK    1  A    between atoms: O1_1  and  C1_2 
REMARK    2  A    between atoms: C1_2  and  C2_3 
REMARK    3  A    between atoms: C3_4  and  C4_5 
REMARK    4  A    between atoms: C4_5  and  C5_6 
REMARK    5  A    between atoms: C5_6  and  N1_7 
REMARK    6  A    between atoms: N1_7  and  C6_8 
REMARK    7  A    between atoms: N1_7  and  C13_16 
REMARK    8  A    between atoms: C6_8  and  C7_9 
REMARK    9  A    between atoms: C13_16  and  N2_18 
REMARK   10  A    between atoms: N2_18  and  C14_19 
ROOT
HETATM    1  N1  UNL     1      24.682   4.297  50.907  1.00  0.00    -0.354 N 
ENDROOT
BRANCH   1   2
HETATM    2  C5  UNL     1      23.931   5.264  50.188  1.00  0.00     0.129 C 
BRANCH   2   3
HETATM    3  C4  UNL     1      24.086   6.691  50.617  1.00  0.00     0.047 C 
BRANCH   3   4
HETATM    4  C3  UNL     1      25.469   7.216  50.500  1.00  0.00    -0.027 C 
HETATM    5  C2  UNL     1      25.779   8.481  50.150  1.00  0.00    -0.005 C 
BRANCH   5   6
HETATM    6  C1  UNL     1      26.958   9.363  49.926  1.00  0.00     0.191 C 
BRANCH   6   7
HETATM    7  O1  UNL     1      27.599   9.468  51.175  1.00  0.00    -0.397 OA
HETATM    8  H1  UNL     1      27.087   8.895  51.791  1.00  0.00     0.209 HD
ENDBRANCH   6   7
ENDBRANCH   5   6
ENDBRANCH   3   4
ENDBRANCH   2   3
ENDBRANCH   1   2
BRANCH   1   9
HETATM    9  C6  UNL     1      23.862   3.930  52.051  1.00  0.00     0.164 C 
BRANCH   9  10
HETATM   10  C7  UNL     1      23.174   2.628  51.884  1.00  0.00    -0.039 A 
HETATM   11  C8  UNL     1      22.559   2.263  50.683  1.00  0.00     0.009 A 
HETATM   12  C9  UNL     1      21.915   1.030  50.563  1.00  0.00     0.002 A 
HETATM   13  C10 UNL     1      21.857   0.133  51.607  1.00  0.00     0.019 A 
HETATM   14  C11 UNL     1      22.453   0.458  52.809  1.00  0.00     0.011 A 
HETATM   15 BR1  UNL     1      22.419  -0.725  54.307  1.00  0.00    -0.051 Br
HETATM   16  C12 UNL     1      23.081   1.681  52.898  1.00  0.00     0.027 A 
ENDBRANCH   9  10
ENDBRANCH   1   9
BRANCH   1  17
HETATM   17  C13 UNL     1      25.957   3.679  50.780  1.00  0.00     0.174 C 
HETATM   18  S1  UNL     1      26.738   3.822  49.327  1.00  0.00    -0.041 SA
BRANCH  17  19
HETATM   19  N2  UNL     1      26.823   2.916  51.604  1.00  0.00    -0.333 N 
HETATM   20  H16 UNL     1      27.836   2.973  51.901  1.00  0.00     0.168 HD
BRANCH  19  21
HETATM   21  C14 UNL     1      26.633   1.723  52.385  1.00  0.00     0.034 A 
HETATM   22  C15 UNL     1      26.657   1.798  53.779  1.00  0.00     0.029 A 
HETATM   23  C16 UNL     1      26.486   0.672  54.593  1.00  0.00     0.002 A 
HETATM   24  C17 UNL     1      26.300  -0.480  53.871  1.00  0.00     0.000 A 
HETATM   25  C18 UNL     1      26.256  -0.681  52.509  1.00  0.00     0.002 A 
HETATM   26  C19 UNL     1      26.434   0.484  51.766  1.00  0.00     0.029 A 
ENDBRANCH  19  21
ENDBRANCH  17  19
ENDBRANCH   1  17
TORSDOF 10
ENDMDL
MODEL 2
REMARK VINA RESULT:      -7.0      1.889      2.803
REMARK  10 active torsions:
REMARK  status: ('A' for Active; 'I' for Inactive)
REMARK    1  A    between atoms: O1_1  and  C1_2 
REMARK    2  A    between atoms: C1_2  and  C2_3 
REMARK    3  A    between atoms: C3_4  and  C4_5 
REMARK    4  A    between atoms: C4_5  and  C5_6 
REMARK    5  A    between atoms: C5_6  and  N1_7 
REMARK    6  A    between atoms: N1_7  and  C6_8 
REMARK    7  A    between atoms: N1_7  and  C13_16 
REMARK    8  A    between atoms: C6_8  and  C7_9 
REMARK    9  A    between atoms: C13_16  and  N2_18 
REMARK   10  A    between atoms: N2_18  and  C14_19 
ROOT
HETATM    1  N1  UNL     1      24.356   2.598  51.991  1.00  0.00    -0.354 N 
ENDROOT
BRANCH   1   2
HETATM    2  C5  UNL     1      23.386   3.427  52.613  1.00  0.00     0.129 C 
BRANCH   2   3
HETATM    3  C4  UNL     1      22.454   4.171  51.707  1.00  0.00     0.047 C 
BRANCH   3   4
HETATM    4  C3  UNL     1      23.122   5.159  50.824  1.00  0.00    -0.027 C 
HETATM    5  C2  UNL     1      23.964   6.121  51.252  1.00  0.00    -0.005 C 
BRANCH   5   6
HETATM    6  C1  UNL     1      24.796   7.244  50.738  1.00  0.00     0.191 C 
BRANCH   6   7
HETATM    7  O1  UNL     1      26.065   6.692  50.477  1.00  0.00    -0.397 OA
HETATM    8  H1  UNL     1      26.160   5.931  51.094  1.00  0.00     0.209 HD
ENDBRANCH   6   7
ENDBRANCH   5   6
ENDBRANCH   3   4
ENDBRANCH   2   3
ENDBRANCH   1   2
BRANCH   1   9
HETATM    9  C6  UNL     1      23.614   1.498  51.395  1.00  0.00     0.164 C 
BRANCH   9  10
HETATM   10  C7  UNL     1      22.944   0.635  52.397  1.00  0.00    -0.039 A 
HETATM   11  C8  UNL     1      23.651   0.008  53.426  1.00  0.00     0.009 A 
HETATM   12  C9  UNL     1      22.988  -0.804  54.349  1.00  0.00     0.002 A 
HETATM   13  C10 UNL     1      21.628  -1.017  54.287  1.00  0.00     0.019 A 
HETATM   14  C11 UNL     1      20.896  -0.414  53.284  1.00  0.00     0.011 A 
HETATM   15 BR1  UNL     1      19.009  -0.657  53.123  1.00  0.00    -0.051 Br
HETATM   16  C12 UNL     1      21.578   0.381  52.388  1.00  0.00     0.027 A 
ENDBRANCH   9  10
ENDBRANCH   1   9
BRANCH   1  17
HETATM   17  C13 UNL     1      25.772   2.594  51.854  1.00  0.00     0.174 C 
HETATM   18  S1  UNL     1      26.404   3.043  50.391  1.00  0.00    -0.041 SA
BRANCH  17  19
HETATM   19  N2  UNL     1      26.890   2.292  52.674  1.00  0.00    -0.333 N 
HETATM   20  H16 UNL     1      27.513   2.828  53.338  1.00  0.00     0.168 HD
BRANCH  19  21
HETATM   21  C14 UNL     1      27.622   1.079  52.924  1.00  0.00     0.034 A 
HETATM   22  C15 UNL     1      27.039  -0.155  52.630  1.00  0.00     0.029 A 
HETATM   23  C16 UNL     1      27.696  -1.368  52.858  1.00  0.00     0.002 A 
HETATM   24  C17 UNL     1      28.950  -1.199  53.392  1.00  0.00     0.000 A 
HETATM   25  C18 UNL     1      29.630  -0.049  53.722  1.00  0.00     0.002 A 
HETATM   26  C19 UNL     1      28.912   1.117  53.467  1.00  0.00     0.029 A 
ENDBRANCH  19  21
ENDBRANCH  17  19
ENDBRANCH   1  17
TORSDOF 10
ENDMDL
MODEL 3
REMARK VINA RESULT:      -6.9      2.550      4.751
REMARK  10 active torsions:
REMARK  status: ('A' for Active; 'I' for Inactive)
REMARK    1  A    between atoms: O1_1  and  C1_2 
REMARK    2  A    between atoms: C1_2  and  C2_3 
REMARK    3  A    between atoms: C3_4  and  C4_5 
REMARK    4  A    between atoms: C4_5  and  C5_6 
REMARK    5  A    between atoms: C5_6  and  N1_7 
REMARK    6  A    between atoms: N1_7  and  C6_8 
REMARK    7  A    between atoms: N1_7  and  C13_16 
REMARK    8  A    between atoms: C6_8  and  C7_9 
REMARK    9  A    between atoms: C13_16  and  N2_18 
REMARK   10  A    between atoms: N2_18  and  C14_19 
ROOT
HETATM    1  N1  UNL     1      25.547   2.618  51.844  1.00  0.00    -0.354 N 
ENDROOT
BRANCH   1   2
HETATM    2  C5  UNL     1      26.635   2.969  51.001  1.00  0.00     0.129 C 
BRANCH   2   3
HETATM    3  C4  UNL     1      26.324   3.169  49.549  1.00  0.00     0.047 C 
BRANCH   3   4
HETATM    4  C3  UNL     1      26.434   4.576  49.090  1.00  0.00    -0.027 C 
HETATM    5  C2  UNL     1      27.555   5.129  48.584  1.00  0.00    -0.005 C 
BRANCH   5   6
HETATM    6  C1  UNL     1      28.065   6.418  48.041  1.00  0.00     0.191 C 
BRANCH   6   7
HETATM    7  O1  UNL     1      28.718   7.054  49.114  1.00  0.00    -0.397 OA
HETATM    8  H1  UNL     1      28.843   6.362  49.803  1.00  0.00     0.209 HD
ENDBRANCH   6   7
ENDBRANCH   5   6
ENDBRANCH   3   4
ENDBRANCH   2   3
ENDBRANCH   1   2
BRANCH   1   9
HETATM    9  C6  UNL     1      26.090   2.577  53.193  1.00  0.00     0.164 C 
BRANCH   9  10
HETATM   10  C7  UNL     1      27.195   1.602  53.349  1.00  0.00    -0.039 A 
HETATM   11  C8  UNL     1      28.463   1.983  53.795  1.00  0.00     0.009 A 
HETATM   12  C9  UNL     1      29.482   1.037  53.925  1.00  0.00     0.002 A 
HETATM   13  C10 UNL     1      29.285  -0.293  53.623  1.00  0.00     0.019 A 
HETATM   14  C11 UNL     1      28.046  -0.707  53.179  1.00  0.00     0.011 A 
HETATM   15 BR1  UNL     1      27.687  -2.529  52.737  1.00  0.00    -0.051 Br
HETATM   16  C12 UNL     1      27.059   0.248  53.061  1.00  0.00     0.027 A 
ENDBRANCH   9  10
ENDBRANCH   1   9
BRANCH   1  17
HETATM   17  C13 UNL     1      24.171   2.302  51.673  1.00  0.00     0.174 C 
HETATM   18  S1  UNL     1      23.112   3.559  51.477  1.00  0.00    -0.041 SA
BRANCH  17  19
HETATM   19  N2  UNL     1      23.380   1.126  51.615  1.00  0.00    -0.333 N 
HETATM   20  H16 UNL     1      23.043   0.472  50.856  1.00  0.00     0.168 HD
BRANCH  19  21
HETATM   21  C14 UNL     1      22.713   0.344  52.622  1.00  0.00     0.034 A 
HETATM   22  C15 UNL     1      23.458  -0.257  53.638  1.00  0.00     0.029 A 
HETATM   23  C16 UNL     1      22.868  -1.035  54.640  1.00  0.00     0.002 A 
HETATM   24  C17 UNL     1      21.506  -1.131  54.503  1.00  0.00     0.000 A 
HETATM   25  C18 UNL     1      20.665  -0.592  53.556  1.00  0.00     0.002 A 
HETATM   26  C19 UNL     1      21.324   0.169  52.593  1.00  0.00     0.029 A 
ENDBRANCH  19  21
ENDBRANCH  17  19
ENDBRANCH   1  17
TORSDOF 10
ENDMDL
MODEL 4
REMARK VINA RESULT:      -6.9      3.127      3.983
REMARK  10 active torsions:
REMARK  status: ('A' for Active; 'I' for Inactive)
REMARK    1  A    between atoms: O1_1  and  C1_2 
REMARK    2  A    between atoms: C1_2  and  C2_3 
REMARK    3  A    between atoms: C3_4  and  C4_5 
REMARK    4  A    between atoms: C4_5  and  C5_6 
REMARK    5  A    between atoms: C5_6  and  N1_7 
REMARK    6  A    between atoms: N1_7  and  C6_8 
REMARK    7  A    between atoms: N1_7  and  C13_16 
REMARK    8  A    between atoms: C6_8  and  C7_9 
REMARK    9  A    between atoms: C13_16  and  N2_18 
REMARK   10  A    between atoms: N2_18  and  C14_19 
ROOT
HETATM    1  N1  UNL     1      24.371   2.987  51.610  1.00  0.00    -0.354 N 
ENDROOT
BRANCH   1   2
HETATM    2  C5  UNL     1      23.466   3.746  52.399  1.00  0.00     0.129 C 
BRANCH   2   3
HETATM    3  C4  UNL     1      23.129   5.118  51.903  1.00  0.00     0.047 C 
BRANCH   3   4
HETATM    4  C3  UNL     1      21.759   5.246  51.348  1.00  0.00    -0.027 C 
HETATM    5  C2  UNL     1      20.788   4.320  51.486  1.00  0.00    -0.005 C 
BRANCH   5   6
HETATM    6  C1  UNL     1      19.369   4.067  51.113  1.00  0.00     0.191 C 
BRANCH   6   7
HETATM    7  O1  UNL     1      18.840   3.267  52.144  1.00  0.00    -0.397 OA
HETATM    8  H1  UNL     1      19.453   3.370  52.907  1.00  0.00     0.209 HD
ENDBRANCH   6   7
ENDBRANCH   5   6
ENDBRANCH   3   4
ENDBRANCH   2   3
ENDBRANCH   1   2
BRANCH   1   9
HETATM    9  C6  UNL     1      23.572   1.942  50.988  1.00  0.00     0.164 C 
BRANCH   9  10
HETATM   10  C7  UNL     1      22.943   1.026  51.968  1.00  0.00    -0.039 A 
HETATM   11  C8  UNL     1      23.685   0.374  52.956  1.00  0.00     0.009 A 
HETATM   12  C9  UNL     1      23.059  -0.488  53.860  1.00  0.00     0.002 A 
HETATM   13  C10 UNL     1      21.703  -0.730  53.817  1.00  0.00     0.019 A 
HETATM   14  C11 UNL     1      20.937  -0.103  52.855  1.00  0.00     0.011 A 
HETATM   15 BR1  UNL     1      19.053  -0.382  52.723  1.00  0.00    -0.051 Br
HETATM   16  C12 UNL     1      21.582   0.741  51.977  1.00  0.00     0.027 A 
ENDBRANCH   9  10
ENDBRANCH   1   9
BRANCH   1  17
HETATM   17  C13 UNL     1      25.767   3.005  51.338  1.00  0.00     0.174 C 
HETATM   18  S1  UNL     1      26.242   3.324  49.785  1.00  0.00    -0.041 SA
BRANCH  17  19
HETATM   19  N2  UNL     1      26.966   2.816  52.072  1.00  0.00    -0.333 N 
HETATM   20  H16 UNL     1      27.756   3.431  52.410  1.00  0.00     0.168 HD
BRANCH  19  21
HETATM   21  C14 UNL     1      27.579   1.657  52.663  1.00  0.00     0.034 A 
HETATM   22  C15 UNL     1      27.073   0.386  52.382  1.00  0.00     0.029 A 
HETATM   23  C16 UNL     1      27.620  -0.778  52.932  1.00  0.00     0.002 A 
HETATM   24  C17 UNL     1      28.685  -0.522  53.760  1.00  0.00     0.000 A 
HETATM   25  C18 UNL     1      29.273   0.672  54.113  1.00  0.00     0.002 A 
HETATM   26  C19 UNL     1      28.674   1.784  53.526  1.00  0.00     0.029 A 
ENDBRANCH  19  21
ENDBRANCH  17  19
ENDBRANCH   1  17
TORSDOF 10
ENDMDL
MODEL 5
REMARK VINA RESULT:      -6.9      3.137      6.016
REMARK  10 active torsions:
REMARK  status: ('A' for Active; 'I' for Inactive)
REMARK    1  A    between atoms: O1_1  and  C1_2 
REMARK    2  A    between atoms: C1_2  and  C2_3 
REMARK    3  A    between atoms: C3_4  and  C4_5 
REMARK    4  A    between atoms: C4_5  and  C5_6 
REMARK    5  A    between atoms: C5_6  and  N1_7 
REMARK    6  A    between atoms: N1_7  and  C6_8 
REMARK    7  A    between atoms: N1_7  and  C13_16 
REMARK    8  A    between atoms: C6_8  and  C7_9 
REMARK    9  A    between atoms: C13_16  and  N2_18 
REMARK   10  A    between atoms: N2_18  and  C14_19 
ROOT
HETATM    1  N1  UNL     1      25.233   3.297  51.244  1.00  0.00    -0.354 N 
ENDROOT
BRANCH   1   2
HETATM    2  C5  UNL     1      26.153   2.216  51.202  1.00  0.00     0.129 C 
BRANCH   2   3
HETATM    3  C4  UNL     1      27.080   2.075  52.369  1.00  0.00     0.047 C 
BRANCH   3   4
HETATM    4  C3  UNL     1      27.429   0.673  52.705  1.00  0.00    -0.027 C 
HETATM    5  C2  UNL     1      26.703  -0.404  52.340  1.00  0.00    -0.005 C 
BRANCH   5   6
HETATM    6  C1  UNL     1      26.695  -1.888  52.460  1.00  0.00     0.191 C 
BRANCH   6   7
HETATM    7  O1  UNL     1      27.848  -2.219  53.197  1.00  0.00    -0.397 OA
HETATM    8  H1  UNL     1      27.910  -1.548  53.916  1.00  0.00     0.209 HD
ENDBRANCH   6   7
ENDBRANCH   5   6
ENDBRANCH   3   4
ENDBRANCH   2   3
ENDBRANCH   1   2
BRANCH   1   9
HETATM    9  C6  UNL     1      24.402   3.064  52.415  1.00  0.00     0.164 C 
BRANCH   9  10
HETATM   10  C7  UNL     1      23.406   1.985  52.220  1.00  0.00    -0.039 A 
HETATM   11  C8  UNL     1      22.643   1.882  51.053  1.00  0.00     0.009 A 
HETATM   12  C9  UNL     1      21.709   0.854  50.906  1.00  0.00     0.002 A 
HETATM   13  C10 UNL     1      21.501  -0.089  51.889  1.00  0.00     0.019 A 
HETATM   14  C11 UNL     1      22.236  -0.019  53.056  1.00  0.00     0.011 A 
HETATM   15 BR1  UNL     1      22.011  -1.283  54.469  1.00  0.00    -0.051 Br
HETATM   16  C12 UNL     1      23.150   1.005  53.173  1.00  0.00     0.027 A 
ENDBRANCH   9  10
ENDBRANCH   1   9
BRANCH   1  17
HETATM   17  C13 UNL     1      24.953   4.444  50.450  1.00  0.00     0.174 C 
HETATM   18  S1  UNL     1      23.946   5.593  51.088  1.00  0.00    -0.041 SA
BRANCH  17  19
HETATM   19  N2  UNL     1      25.316   4.927  49.167  1.00  0.00    -0.333 N 
HETATM   20  H16 UNL     1      24.863   4.970  48.214  1.00  0.00     0.168 HD
BRANCH  19  21
HETATM   21  C14 UNL     1      26.497   5.576  48.664  1.00  0.00     0.034 A 
HETATM   22  C15 UNL     1      27.723   4.909  48.702  1.00  0.00     0.029 A 
HETATM   23  C16 UNL     1      28.908   5.490  48.236  1.00  0.00     0.002 A 
HETATM   24  C17 UNL     1      28.719   6.760  47.751  1.00  0.00     0.000 A 
HETATM   25  C18 UNL     1      27.574   7.518  47.659  1.00  0.00     0.002 A 
HETATM   26  C19 UNL     1      26.437   6.874  48.142  1.00  0.00     0.029 A 
ENDBRANCH  19  21
ENDBRANCH  17  19
ENDBRANCH   1  17
TORSDOF 10
ENDMDL
MODEL 6
REMARK VINA RESULT:      -6.8      3.977      6.152
REMARK  10 active torsions:
REMARK  status: ('A' for Active; 'I' for Inactive)
REMARK    1  A    between atoms: O1_1  and  C1_2 
REMARK    2  A    between atoms: C1_2  and  C2_3 
REMARK    3  A    between atoms: C3_4  and  C4_5 
REMARK    4  A    between atoms: C4_5  and  C5_6 
REMARK    5  A    between atoms: C5_6  and  N1_7 
REMARK    6  A    between atoms: N1_7  and  C6_8 
REMARK    7  A    between atoms: N1_7  and  C13_16 
REMARK    8  A    between atoms: C6_8  and  C7_9 
REMARK    9  A    between atoms: C13_16  and  N2_18 
REMARK   10  A    between atoms: N2_18  and  C14_19 
ROOT
HETATM    1  N1  UNL     1      23.092   2.701  51.330  1.00  0.00    -0.354 N 
ENDROOT
BRANCH   1   2
HETATM    2  C5  UNL     1      21.745   2.289  51.147  1.00  0.00     0.129 C 
BRANCH   2   3
HETATM    3  C4  UNL     1      21.506   0.820  50.981  1.00  0.00     0.047 C 
BRANCH   3   4
HETATM    4  C3  UNL     1      21.881   0.005  52.162  1.00  0.00    -0.027 C 
HETATM    5  C2  UNL     1      21.428   0.219  53.415  1.00  0.00    -0.005 C 
BRANCH   5   6
HETATM    6  C1  UNL     1      21.544  -0.325  54.796  1.00  0.00     0.191 C 
BRANCH   6   7
HETATM    7  O1  UNL     1      20.815  -1.530  54.795  1.00  0.00    -0.397 OA
HETATM    8  H1  UNL     1      19.873  -1.275  54.661  1.00  0.00     0.209 HD
ENDBRANCH   6   7
ENDBRANCH   5   6
ENDBRANCH   3   4
ENDBRANCH   2   3
ENDBRANCH   1   2
BRANCH   1   9
HETATM    9  C6  UNL     1      23.779   2.368  50.093  1.00  0.00     0.164 C 
BRANCH   9  10
HETATM   10  C7  UNL     1      24.733   3.415  49.654  1.00  0.00    -0.039 A 
HETATM   11  C8  UNL     1      26.115   3.211  49.671  1.00  0.00     0.009 A 
HETATM   12  C9  UNL     1      26.985   4.223  49.255  1.00  0.00     0.002 A 
HETATM   13  C10 UNL     1      26.524   5.446  48.817  1.00  0.00     0.019 A 
HETATM   14  C11 UNL     1      25.165   5.683  48.787  1.00  0.00     0.011 A 
HETATM   15 BR1  UNL     1      24.441   7.348  48.197  1.00  0.00    -0.051 Br
HETATM   16  C12 UNL     1      24.332   4.667  49.203  1.00  0.00     0.027 A 
ENDBRANCH   9  10
ENDBRANCH   1   9
BRANCH   1  17
HETATM   17  C13 UNL     1      23.856   3.291  52.375  1.00  0.00     0.174 C 
HETATM   18  S1  UNL     1      23.446   4.821  52.856  1.00  0.00    -0.041 SA
BRANCH  17  19
HETATM   19  N2  UNL     1      24.955   2.918  53.191  1.00  0.00    -0.333 N 
HETATM   20  H16 UNL     1      25.407   3.286  54.072  1.00  0.00     0.168 HD
BRANCH  19  21
HETATM   21  C14 UNL     1      25.907   1.842  53.119  1.00  0.00     0.034 A 
HETATM   22  C15 UNL     1      27.261   2.100  53.339  1.00  0.00     0.029 A 
HETATM   23  C16 UNL     1      28.235   1.098  53.275  1.00  0.00     0.002 A 
HETATM   24  C17 UNL     1      27.709  -0.134  52.977  1.00  0.00     0.000 A 
HETATM   25  C18 UNL     1      26.406  -0.513  52.741  1.00  0.00     0.002 A 
HETATM   26  C19 UNL     1      25.495   0.537  52.822  1.00  0.00     0.029 A 
ENDBRANCH  19  21
ENDBRANCH  17  19
ENDBRANCH   1  17
TORSDOF 10
ENDMDL
MODEL 7
REMARK VINA RESULT:      -6.8      3.570      5.753
REMARK  10 active torsions:
REMARK  status: ('A' for Active; 'I' for Inactive)
REMARK    1  A    between atoms: O1_1  and  C1_2 
REMARK    2  A    between atoms: C1_2  and  C2_3 
REMARK    3  A    between atoms: C3_4  and  C4_5 
REMARK    4  A    between atoms: C4_5  and  C5_6 
REMARK    5  A    between atoms: C5_6  and  N1_7 
REMARK    6  A    between atoms: N1_7  and  C6_8 
REMARK    7  A    between atoms: N1_7  and  C13_16 
REMARK    8  A    between atoms: C6_8  and  C7_9 
REMARK    9  A    between atoms: C13_16  and  N2_18 
REMARK   10  A    between atoms: N2_18  and  C14_19 
ROOT
HETATM    1  N1  UNL     1      22.566   3.299  50.435  1.00  0.00    -0.354 N 
ENDROOT
BRANCH   1   2
HETATM    2  C5  UNL     1      22.672   4.124  51.586  1.00  0.00     0.129 C 
BRANCH   2   3
HETATM    3  C4  UNL     1      23.232   3.487  52.821  1.00  0.00     0.047 C 
BRANCH   3   4
HETATM    4  C3  UNL     1      24.652   3.073  52.703  1.00  0.00    -0.027 C 
HETATM    5  C2  UNL     1      25.291   2.275  53.583  1.00  0.00    -0.005 C 
BRANCH   5   6
HETATM    6  C1  UNL     1      26.623   1.655  53.827  1.00  0.00     0.191 C 
BRANCH   6   7
HETATM    7  O1  UNL     1      27.512   2.727  54.031  1.00  0.00    -0.397 OA
HETATM    8  H1  UNL     1      27.902   2.589  54.924  1.00  0.00     0.209 HD
ENDBRANCH   6   7
ENDBRANCH   5   6
ENDBRANCH   3   4
ENDBRANCH   2   3
ENDBRANCH   1   2
BRANCH   1   9
HETATM    9  C6  UNL     1      22.971   4.132  49.313  1.00  0.00     0.164 C 
BRANCH   9  10
HETATM   10  C7  UNL     1      24.439   4.305  49.213  1.00  0.00    -0.039 A 
HETATM   11  C8  UNL     1      25.327   3.252  49.449  1.00  0.00     0.009 A 
HETATM   12  C9  UNL     1      26.706   3.453  49.351  1.00  0.00     0.002 A 
HETATM   13  C10 UNL     1      27.243   4.679  49.023  1.00  0.00     0.019 A 
HETATM   14  C11 UNL     1      26.396   5.743  48.783  1.00  0.00     0.011 A 
HETATM   15 BR1  UNL     1      27.054   7.475  48.324  1.00  0.00    -0.051 Br
HETATM   16  C12 UNL     1      25.041   5.514  48.887  1.00  0.00     0.027 A 
ENDBRANCH   9  10
ENDBRANCH   1   9
BRANCH   1  17
HETATM   17  C13 UNL     1      22.163   1.963  50.158  1.00  0.00     0.174 C 
HETATM   18  S1  UNL     1      21.511   1.651  48.669  1.00  0.00    -0.041 SA
BRANCH  17  19
HETATM   19  N2  UNL     1      22.159   0.721  50.843  1.00  0.00    -0.333 N 
HETATM   20  H16 UNL     1      22.312  -0.292  50.582  1.00  0.00     0.168 HD
BRANCH  19  21
HETATM   21  C14 UNL     1      21.939   0.362  52.218  1.00  0.00     0.034 A 
HETATM   22  C15 UNL     1      22.896  -0.395  52.897  1.00  0.00     0.029 A 
HETATM   23  C16 UNL     1      22.736  -0.782  54.232  1.00  0.00     0.002 A 
HETATM   24  C17 UNL     1      21.556  -0.339  54.775  1.00  0.00     0.000 A 
HETATM   25  C18 UNL     1      20.542   0.407  54.215  1.00  0.00     0.002 A 
HETATM   26  C19 UNL     1      20.773   0.754  52.886  1.00  0.00     0.029 A 
ENDBRANCH  19  21
ENDBRANCH  17  19
ENDBRANCH   1  17
TORSDOF 10
ENDMDL
MODEL 8
REMARK VINA RESULT:      -6.7      3.492      6.337
REMARK  10 active torsions:
REMARK  status: ('A' for Active; 'I' for Inactive)
REMARK    1  A    between atoms: O1_1  and  C1_2 
REMARK    2  A    between atoms: C1_2  and  C2_3 
REMARK    3  A    between atoms: C3_4  and  C4_5 
REMARK    4  A    between atoms: C4_5  and  C5_6 
REMARK    5  A    between atoms: C5_6  and  N1_7 
REMARK    6  A    between atoms: N1_7  and  C6_8 
REMARK    7  A    between atoms: N1_7  and  C13_16 
REMARK    8  A    between atoms: C6_8  and  C7_9 
REMARK    9  A    between atoms: C13_16  and  N2_18 
REMARK   10  A    between atoms: N2_18  and  C14_19 
ROOT
HETATM    1  N1  UNL     1      24.291   1.642  52.059  1.00  0.00    -0.354 N 
ENDROOT
BRANCH   1   2
HETATM    2  C5  UNL     1      25.160   0.519  52.061  1.00  0.00     0.129 C 
BRANCH   2   3
HETATM    3  C4  UNL     1      26.308   0.558  53.022  1.00  0.00     0.047 C 
BRANCH   3   4
HETATM    4  C3  UNL     1      26.915  -0.766  53.301  1.00  0.00    -0.027 C 
HETATM    5  C2  UNL     1      28.215  -1.068  53.108  1.00  0.00    -0.005 C 
BRANCH   5   6
HETATM    6  C1  UNL     1      29.175  -2.198  53.248  1.00  0.00     0.191 C 
BRANCH   6   7
HETATM    7  O1  UNL     1      28.448  -3.359  52.923  1.00  0.00    -0.397 OA
HETATM    8  H1  UNL     1      28.659  -4.016  53.625  1.00  0.00     0.209 HD
ENDBRANCH   6   7
ENDBRANCH   5   6
ENDBRANCH   3   4
ENDBRANCH   2   3
ENDBRANCH   1   2
BRANCH   1   9
HETATM    9  C6  UNL     1      23.678   1.671  53.378  1.00  0.00     0.164 C 
BRANCH   9  10
HETATM   10  C7  UNL     1      22.694   0.583  53.589  1.00  0.00    -0.039 A 
HETATM   11  C8  UNL     1      22.989  -0.544  54.361  1.00  0.00     0.009 A 
HETATM   12  C9  UNL     1      22.038  -1.553  54.534  1.00  0.00     0.002 A 
HETATM   13  C10 UNL     1      20.787  -1.482  53.960  1.00  0.00     0.019 A 
HETATM   14  C11 UNL     1      20.460  -0.384  53.190  1.00  0.00     0.011 A 
HETATM   15 BR1  UNL     1      18.751  -0.206  52.358  1.00  0.00    -0.051 Br
HETATM   16  C12 UNL     1      21.418   0.595  53.038  1.00  0.00     0.027 A 
ENDBRANCH   9  10
ENDBRANCH   1   9
BRANCH   1  17
HETATM   17  C13 UNL     1      23.902   2.642  51.125  1.00  0.00     0.174 C 
HETATM   18  S1  UNL     1      22.641   3.631  51.539  1.00  0.00    -0.041 SA
BRANCH  17  19
HETATM   19  N2  UNL     1      24.317   3.073  49.839  1.00  0.00    -0.333 N 
HETATM   20  H16 UNL     1      24.062   2.840  48.840  1.00  0.00     0.168 HD
BRANCH  19  21
HETATM   21  C14 UNL     1      25.284   4.041  49.395  1.00  0.00     0.034 A 
HETATM   22  C15 UNL     1      24.865   5.325  49.042  1.00  0.00     0.029 A 
HETATM   23  C16 UNL     1      25.755   6.308  48.595  1.00  0.00     0.002 A 
HETATM   24  C17 UNL     1      27.054   5.864  48.549  1.00  0.00     0.000 A 
HETATM   25  C18 UNL     1      27.587   4.636  48.867  1.00  0.00     0.002 A 
HETATM   26  C19 UNL     1      26.641   3.712  49.303  1.00  0.00     0.029 A 
ENDBRANCH  19  21
ENDBRANCH  17  19
ENDBRANCH   1  17
TORSDOF 10
ENDMDL
MODEL 9
REMARK VINA RESULT:      -6.6      3.701      6.423
REMARK  10 active torsions:
REMARK  status: ('A' for Active; 'I' for Inactive)
REMARK    1  A    between atoms: O1_1  and  C1_2 
REMARK    2  A    between atoms: C1_2  and  C2_3 
REMARK    3  A    between atoms: C3_4  and  C4_5 
REMARK    4  A    between atoms: C4_5  and  C5_6 
REMARK    5  A    between atoms: C5_6  and  N1_7 
REMARK    6  A    between atoms: N1_7  and  C6_8 
REMARK    7  A    between atoms: N1_7  and  C13_16 
REMARK    8  A    between atoms: C6_8  and  C7_9 
REMARK    9  A    between atoms: C13_16  and  N2_18 
REMARK   10  A    between atoms: N2_18  and  C14_19 
ROOT
HETATM    1  N1  UNL     1      24.750   3.079  51.163  1.00  0.00    -0.354 N 
ENDROOT
BRANCH   1   2
HETATM    2  C5  UNL     1      26.059   2.809  51.643  1.00  0.00     0.129 C 
BRANCH   2   3
HETATM    3  C4  UNL     1      26.675   1.510  51.226  1.00  0.00     0.047 C 
BRANCH   3   4
HETATM    4  C3  UNL     1      26.842   0.531  52.328  1.00  0.00    -0.027 C 
HETATM    5  C2  UNL     1      26.642   0.808  53.633  1.00  0.00    -0.005 C 
BRANCH   5   6
HETATM    6  C1  UNL     1      26.695   0.163  54.974  1.00  0.00     0.191 C 
BRANCH   6   7
HETATM    7  O1  UNL     1      28.000  -0.349  55.101  1.00  0.00    -0.397 OA
HETATM    8  H1  UNL     1      28.399   0.116  55.872  1.00  0.00     0.209 HD
ENDBRANCH   6   7
ENDBRANCH   5   6
ENDBRANCH   3   4
ENDBRANCH   2   3
ENDBRANCH   1   2
BRANCH   1   9
HETATM    9  C6  UNL     1      24.867   3.143  49.714  1.00  0.00     0.164 C 
BRANCH   9  10
HETATM   10  C7  UNL     1      25.478   4.404  49.232  1.00  0.00    -0.039 A 
HETATM   11  C8  UNL     1      24.718   5.552  48.991  1.00  0.00     0.009 A 
HETATM   12  C9  UNL     1      25.328   6.722  48.532  1.00  0.00     0.002 A 
HETATM   13  C10 UNL     1      26.684   6.794  48.299  1.00  0.00     0.019 A 
HETATM   14  C11 UNL     1      27.467   5.680  48.526  1.00  0.00     0.011 A 
HETATM   15 BR1  UNL     1      29.353   5.692  48.228  1.00  0.00    -0.051 Br
HETATM   16  C12 UNL     1      26.838   4.540  48.979  1.00  0.00     0.027 A 
ENDBRANCH   9  10
ENDBRANCH   1   9
BRANCH   1  17
HETATM   17  C13 UNL     1      23.468   3.305  51.736  1.00  0.00     0.174 C 
HETATM   18  S1  UNL     1      23.136   4.825  52.299  1.00  0.00    -0.041 SA
BRANCH  17  19
HETATM   19  N2  UNL     1      22.297   2.543  51.983  1.00  0.00    -0.333 N 
HETATM   20  H16 UNL     1      21.286   2.583  51.679  1.00  0.00     0.168 HD
BRANCH  19  21
HETATM   21  C14 UNL     1      22.041   1.370  52.775  1.00  0.00     0.034 A 
HETATM   22  C15 UNL     1      23.078   0.473  53.039  1.00  0.00     0.029 A 
HETATM   23  C16 UNL     1      22.890  -0.689  53.796  1.00  0.00     0.002 A 
HETATM   24  C17 UNL     1      21.597  -0.833  54.232  1.00  0.00     0.000 A 
HETATM   25  C18 UNL     1      20.497  -0.028  54.040  1.00  0.00     0.002 A 
HETATM   26  C19 UNL     1      20.762   1.108  53.279  1.00  0.00     0.029 A 
ENDBRANCH  19  21
ENDBRANCH  17  19
ENDBRANCH   1  17
TORSDOF 10
ENDMDL
