MODEL 1
REMARK VINA RESULT:      -7.2      0.000      0.000
REMARK  3 active torsions:
REMARK  status: ('A' for Active; 'I' for Inactive)
REMARK    1  A    between atoms: C7_7  and  O1_8 
REMARK    2  A    between atoms: C8_9  and  N1_10 
REMARK    3  A    between atoms: C15_17  and  N2_18 
ROOT
HETATM    1  C1  UNL     1      29.071   1.587  53.817  1.00  0.00     0.034 C 
HETATM    2  C2  UNL     1      27.618   1.270  53.552  1.00  0.00     0.106 C 
HETATM    3  C3  UNL     1      27.360  -0.112  54.126  1.00  0.00     0.054 C 
HETATM    4  C4  UNL     1      26.279  -0.708  53.301  1.00  0.00    -0.024 C 
HETATM    5  C5  UNL     1      25.161  -0.310  52.756  1.00  0.00     0.007 C 
HETATM    6  C6  UNL     1      24.436   0.957  52.708  1.00  0.00    -0.009 C 
HETATM    7  C7  UNL     1      23.181   0.699  52.341  1.00  0.00     0.140 C 
HETATM    8  C8  UNL     1      24.617   2.371  52.934  1.00  0.00     0.165 C 
HETATM    9  C16 UNL     1      25.654   2.731  53.932  1.00  0.00     0.114 C 
HETATM   10  N3  UNL     1      26.838   2.270  54.148  1.00  0.00    -0.298 NA
ENDROOT
BRANCH   8  11
HETATM   11  N1  UNL     1      24.712   3.151  51.730  1.00  0.00    -0.333 N 
HETATM   12  C9  UNL     1      25.624   2.465  50.830  1.00  0.00     0.106 C 
HETATM   13  C10 UNL     1      26.368   2.836  49.795  1.00  0.00     0.004 C 
HETATM   14  C11 UNL     1      26.754   4.033  49.676  1.00  0.00    -0.001 C 
HETATM   15  C12 UNL     1      26.158   5.013  49.165  1.00  0.00    -0.013 C 
HETATM   16  C13 UNL     1      25.301   5.783  49.815  1.00  0.00     0.016 C 
HETATM   17  C14 UNL     1      24.221   5.434  50.755  1.00  0.00     0.043 C 
HETATM   18  C15 UNL     1      24.014   4.368  51.508  1.00  0.00     0.080 C 
BRANCH  18  19
HETATM   19  N2  UNL     1      22.852   4.330  52.315  1.00  0.00    -0.288 NA
HETATM   20  H15 UNL     1      22.147   3.567  52.340  1.00  0.00     0.125 HD
HETATM   21  H16 UNL     1      22.259   3.473  52.200  1.00  0.00     0.125 HD
ENDBRANCH  18  19
ENDBRANCH   8  11
BRANCH   7  22
HETATM   22  O1  UNL     1      22.084   1.521  52.143  1.00  0.00    -0.372 OA
HETATM   23  H10 UNL     1      21.326   1.674  52.767  1.00  0.00     0.216 HD
ENDBRANCH   7  22
TORSDOF 3
ENDMDL
MODEL 2
REMARK VINA RESULT:      -7.0      2.373      5.744
REMARK  3 active torsions:
REMARK  status: ('A' for Active; 'I' for Inactive)
REMARK    1  A    between atoms: C7_7  and  O1_8 
REMARK    2  A    between atoms: C8_9  and  N1_10 
REMARK    3  A    between atoms: C15_17  and  N2_18 
ROOT
HETATM    1  C1  UNL     1      22.328   4.772  52.319  1.00  0.00     0.034 C 
HETATM    2  C2  UNL     1      23.495   3.843  52.084  1.00  0.00     0.106 C 
HETATM    3  C3  UNL     1      24.362   4.490  51.017  1.00  0.00     0.054 C 
HETATM    4  C4  UNL     1      25.024   3.377  50.291  1.00  0.00    -0.024 C 
HETATM    5  C5  UNL     1      25.584   2.236  50.592  1.00  0.00     0.007 C 
HETATM    6  C6  UNL     1      25.822   1.506  51.834  1.00  0.00    -0.009 C 
HETATM    7  C7  UNL     1      26.759   0.588  51.598  1.00  0.00     0.140 C 
HETATM    8  C8  UNL     1      25.398   1.454  53.213  1.00  0.00     0.165 C 
HETATM    9  C16 UNL     1      24.920   2.737  53.783  1.00  0.00     0.114 C 
HETATM   10  N3  UNL     1      24.163   3.663  53.304  1.00  0.00    -0.298 NA
ENDROOT
BRANCH   8  11
HETATM   11  N1  UNL     1      24.526   0.352  53.519  1.00  0.00    -0.333 N 
HETATM   12  C9  UNL     1      23.467   0.337  52.522  1.00  0.00     0.106 C 
HETATM   13  C10 UNL     1      22.237  -0.161  52.476  1.00  0.00     0.004 C 
HETATM   14  C11 UNL     1      21.583  -0.358  53.538  1.00  0.00    -0.001 C 
HETATM   15  C12 UNL     1      21.591  -1.354  54.303  1.00  0.00    -0.013 C 
HETATM   16  C13 UNL     1      22.457  -1.527  55.288  1.00  0.00     0.016 C 
HETATM   17  C14 UNL     1      23.912  -1.297  55.337  1.00  0.00     0.043 C 
HETATM   18  C15 UNL     1      24.713  -0.536  54.611  1.00  0.00     0.080 C 
BRANCH  18  19
HETATM   19  N2  UNL     1      26.096  -0.540  54.909  1.00  0.00    -0.288 NA
HETATM   20  H15 UNL     1      26.826  -1.100  54.424  1.00  0.00     0.125 HD
HETATM   21  H16 UNL     1      26.677  -1.174  54.308  1.00  0.00     0.125 HD
ENDBRANCH  18  19
ENDBRANCH   8  11
BRANCH   7  22
HETATM   22  O1  UNL     1      27.354  -0.361  52.412  1.00  0.00    -0.372 OA
HETATM   23  H10 UNL     1      26.930  -0.872  53.151  1.00  0.00     0.216 HD
ENDBRANCH   7  22
TORSDOF 3
ENDMDL
MODEL 3
REMARK VINA RESULT:      -6.9      1.469      2.101
REMARK  3 active torsions:
REMARK  status: ('A' for Active; 'I' for Inactive)
REMARK    1  A    between atoms: C7_7  and  O1_8 
REMARK    2  A    between atoms: C8_9  and  N1_10 
REMARK    3  A    between atoms: C15_17  and  N2_18 
ROOT
HETATM    1  C1  UNL     1      26.744   0.356  53.180  1.00  0.00     0.034 C 
HETATM    2  C2  UNL     1      25.371   0.932  52.922  1.00  0.00     0.106 C 
HETATM    3  C3  UNL     1      24.366  -0.106  53.390  1.00  0.00     0.054 C 
HETATM    4  C4  UNL     1      23.160   0.074  52.542  1.00  0.00    -0.024 C 
HETATM    5  C5  UNL     1      22.474   1.073  52.055  1.00  0.00     0.007 C 
HETATM    6  C6  UNL     1      22.587   2.527  52.122  1.00  0.00    -0.009 C 
HETATM    7  C7  UNL     1      21.415   3.048  51.763  1.00  0.00     0.140 C 
HETATM    8  C8  UNL     1      23.525   3.573  52.456  1.00  0.00     0.165 C 
HETATM    9  C16 UNL     1      24.557   3.209  53.458  1.00  0.00     0.114 C 
HETATM   10  N3  UNL     1      25.271   2.148  53.611  1.00  0.00    -0.298 NA
ENDROOT
BRANCH   8  11
HETATM   11  N1  UNL     1      24.074   4.255  51.316  1.00  0.00    -0.333 N 
HETATM   12  C9  UNL     1      24.546   3.246  50.382  1.00  0.00     0.106 C 
HETATM   13  C10 UNL     1      25.429   3.232  49.391  1.00  0.00     0.004 C 
HETATM   14  C11 UNL     1      26.384   4.058  49.369  1.00  0.00    -0.001 C 
HETATM   15  C12 UNL     1      26.411   5.232  48.924  1.00  0.00    -0.013 C 
HETATM   16  C13 UNL     1      26.043   6.298  49.615  1.00  0.00     0.016 C 
HETATM   17  C14 UNL     1      24.890   6.510  50.508  1.00  0.00     0.043 C 
HETATM   18  C15 UNL     1      24.120   5.668  51.176  1.00  0.00     0.080 C 
BRANCH  18  19
HETATM   19  N2  UNL     1      23.066   6.196  51.957  1.00  0.00    -0.288 NA
HETATM   20  H15 UNL     1      23.063   6.303  52.992  1.00  0.00     0.125 HD
HETATM   21  H16 UNL     1      23.250   6.223  52.990  1.00  0.00     0.125 HD
ENDBRANCH  18  19
ENDBRANCH   8  11
BRANCH   7  22
HETATM   22  O1  UNL     1      20.975   4.357  51.654  1.00  0.00    -0.372 OA
HETATM   23  H10 UNL     1      21.216   5.124  52.238  1.00  0.00     0.216 HD
ENDBRANCH   7  22
TORSDOF 3
ENDMDL
MODEL 4
REMARK VINA RESULT:      -6.8      1.815      5.190
REMARK  3 active torsions:
REMARK  status: ('A' for Active; 'I' for Inactive)
REMARK    1  A    between atoms: C7_7  and  O1_8 
REMARK    2  A    between atoms: C8_9  and  N1_10 
REMARK    3  A    between atoms: C15_17  and  N2_18 
ROOT
HETATM    1  C1  UNL     1      26.822   4.237  49.209  1.00  0.00     0.034 C 
HETATM    2  C2  UNL     1      25.475   4.391  49.875  1.00  0.00     0.106 C 
HETATM    3  C3  UNL     1      24.972   5.782  49.529  1.00  0.00     0.054 C 
HETATM    4  C4  UNL     1      24.113   6.205  50.664  1.00  0.00    -0.024 C 
HETATM    5  C5  UNL     1      23.215   5.660  51.440  1.00  0.00     0.007 C 
HETATM    6  C6  UNL     1      22.624   4.330  51.550  1.00  0.00    -0.009 C 
HETATM    7  C7  UNL     1      21.499   4.436  52.255  1.00  0.00     0.140 C 
HETATM    8  C8  UNL     1      22.840   2.961  51.144  1.00  0.00     0.165 C 
HETATM    9  C16 UNL     1      23.592   2.780  49.879  1.00  0.00     0.114 C 
HETATM   10  N3  UNL     1      24.638   3.369  49.408  1.00  0.00    -0.298 NA
ENDROOT
BRANCH   8  11
HETATM   11  N1  UNL     1      23.312   2.104  52.198  1.00  0.00    -0.333 N 
HETATM   12  C9  UNL     1      24.406   2.788  52.867  1.00  0.00     0.106 C 
HETATM   13  C10 UNL     1      25.431   2.398  53.616  1.00  0.00     0.004 C 
HETATM   14  C11 UNL     1      25.895   1.228  53.512  1.00  0.00    -0.001 C 
HETATM   15  C12 UNL     1      25.519   0.172  54.077  1.00  0.00    -0.013 C 
HETATM   16  C13 UNL     1      24.553  -0.610  53.624  1.00  0.00     0.016 C 
HETATM   17  C14 UNL     1      23.234  -0.275  53.058  1.00  0.00     0.043 C 
HETATM   18  C15 UNL     1      22.768   0.825  52.492  1.00  0.00     0.080 C 
BRANCH  18  19
HETATM   19  N2  UNL     1      21.424   0.835  52.048  1.00  0.00    -0.288 NA
HETATM   20  H15 UNL     1      21.089   0.566  51.101  1.00  0.00     0.125 HD
HETATM   21  H16 UNL     1      21.283   0.529  51.055  1.00  0.00     0.125 HD
ENDBRANCH  18  19
ENDBRANCH   8  11
BRANCH   7  22
HETATM   22  O1  UNL     1      20.558   3.499  52.651  1.00  0.00    -0.372 OA
HETATM   23  H10 UNL     1      19.623   3.669  52.939  1.00  0.00     0.216 HD
ENDBRANCH   7  22
TORSDOF 3
ENDMDL
MODEL 5
REMARK VINA RESULT:      -6.7      2.356      5.989
REMARK  3 active torsions:
REMARK  status: ('A' for Active; 'I' for Inactive)
REMARK    1  A    between atoms: C7_7  and  O1_8 
REMARK    2  A    between atoms: C8_9  and  N1_10 
REMARK    3  A    between atoms: C15_17  and  N2_18 
ROOT
HETATM    1  C1  UNL     1      20.520   6.045  50.160  1.00  0.00     0.034 C 
HETATM    2  C2  UNL     1      21.979   5.658  50.098  1.00  0.00     0.106 C 
HETATM    3  C3  UNL     1      22.658   6.658  49.178  1.00  0.00     0.054 C 
HETATM    4  C4  UNL     1      23.796   5.938  48.553  1.00  0.00    -0.024 C 
HETATM    5  C5  UNL     1      24.712   5.087  48.929  1.00  0.00     0.007 C 
HETATM    6  C6  UNL     1      25.047   4.427  50.187  1.00  0.00    -0.009 C 
HETATM    7  C7  UNL     1      26.291   3.962  50.091  1.00  0.00     0.140 C 
HETATM    8  C8  UNL     1      24.493   4.125  51.487  1.00  0.00     0.165 C 
HETATM    9  C16 UNL     1      23.477   5.083  51.986  1.00  0.00     0.114 C 
HETATM   10  N3  UNL     1      22.490   5.673  51.403  1.00  0.00    -0.298 NA
ENDROOT
BRANCH   8  11
HETATM   11  N1  UNL     1      24.091   2.755  51.650  1.00  0.00    -0.333 N 
HETATM   12  C9  UNL     1      23.313   2.379  50.481  1.00  0.00     0.106 C 
HETATM   13  C10 UNL     1      22.409   1.442  50.224  1.00  0.00     0.004 C 
HETATM   14  C11 UNL     1      21.715   0.945  51.155  1.00  0.00    -0.001 C 
HETATM   15  C12 UNL     1      21.987  -0.008  51.927  1.00  0.00    -0.013 C 
HETATM   16  C13 UNL     1      22.668   0.119  53.054  1.00  0.00     0.016 C 
HETATM   17  C14 UNL     1      23.881   0.899  53.358  1.00  0.00     0.043 C 
HETATM   18  C15 UNL     1      24.426   1.952  52.774  1.00  0.00     0.080 C 
BRANCH  18  19
HETATM   19  N2  UNL     1      25.624   2.476  53.314  1.00  0.00    -0.288 NA
HETATM   20  H15 UNL     1      26.430   1.923  53.668  1.00  0.00     0.125 HD
HETATM   21  H16 UNL     1      26.324   1.757  53.620  1.00  0.00     0.125 HD
ENDBRANCH  18  19
ENDBRANCH   8  11
BRANCH   7  22
HETATM   22  O1  UNL     1      27.095   3.266  50.979  1.00  0.00    -0.372 OA
HETATM   23  H10 UNL     1      27.759   3.645  51.613  1.00  0.00     0.216 HD
ENDBRANCH   7  22
TORSDOF 3
ENDMDL
MODEL 6
REMARK VINA RESULT:      -6.5      8.363     11.093
REMARK  3 active torsions:
REMARK  status: ('A' for Active; 'I' for Inactive)
REMARK    1  A    between atoms: C7_7  and  O1_8 
REMARK    2  A    between atoms: C8_9  and  N1_10 
REMARK    3  A    between atoms: C15_17  and  N2_18 
ROOT
HETATM    1  C1  UNL     1      28.743   7.080  48.183  1.00  0.00     0.034 C 
HETATM    2  C2  UNL     1      30.077   7.705  47.850  1.00  0.00     0.106 C 
HETATM    3  C3  UNL     1      29.802   9.151  47.476  1.00  0.00     0.054 C 
HETATM    4  C4  UNL     1      30.862   9.539  46.512  1.00  0.00    -0.024 C 
HETATM    5  C5  UNL     1      32.147   9.351  46.377  1.00  0.00     0.007 C 
HETATM    6  C6  UNL     1      33.169   8.644  47.145  1.00  0.00    -0.009 C 
HETATM    7  C7  UNL     1      34.361   9.096  46.758  1.00  0.00     0.140 C 
HETATM    8  C8  UNL     1      33.316   7.645  48.176  1.00  0.00     0.165 C 
HETATM    9  C16 UNL     1      32.189   7.546  49.136  1.00  0.00     0.114 C 
HETATM   10  N3  UNL     1      30.912   7.574  48.969  1.00  0.00    -0.298 NA
ENDROOT
BRANCH   8  11
HETATM   11  N1  UNL     1      33.748   6.361  47.693  1.00  0.00    -0.333 N 
HETATM   12  C9  UNL     1      32.955   6.042  46.518  1.00  0.00     0.106 C 
HETATM   13  C10 UNL     1      32.631   4.919  45.887  1.00  0.00     0.004 C 
HETATM   14  C11 UNL     1      32.619   3.817  46.503  1.00  0.00    -0.001 C 
HETATM   15  C12 UNL     1      33.565   3.020  46.725  1.00  0.00    -0.013 C 
HETATM   16  C13 UNL     1      34.394   3.118  47.750  1.00  0.00     0.016 C 
HETATM   17  C14 UNL     1      35.060   4.296  48.336  1.00  0.00     0.043 C 
HETATM   18  C15 UNL     1      34.775   5.585  48.294  1.00  0.00     0.080 C 
BRANCH  18  19
HETATM   19  N2  UNL     1      35.634   6.486  48.967  1.00  0.00    -0.288 NA
HETATM   20  H15 UNL     1      36.386   6.231  49.638  1.00  0.00     0.125 HD
HETATM   21  H16 UNL     1      36.333   6.038  49.607  1.00  0.00     0.125 HD
ENDBRANCH  18  19
ENDBRANCH   8  11
BRANCH   7  22
HETATM   22  O1  UNL     1      35.649   8.776  47.155  1.00  0.00    -0.372 OA
HETATM   23  H10 UNL     1      36.482   8.860  46.620  1.00  0.00     0.216 HD
ENDBRANCH   7  22
TORSDOF 3
ENDMDL
MODEL 7
REMARK VINA RESULT:      -6.5      2.915      3.986
REMARK  3 active torsions:
REMARK  status: ('A' for Active; 'I' for Inactive)
REMARK    1  A    between atoms: C7_7  and  O1_8 
REMARK    2  A    between atoms: C8_9  and  N1_10 
REMARK    3  A    between atoms: C15_17  and  N2_18 
ROOT
HETATM    1  C1  UNL     1      26.265   3.773  49.707  1.00  0.00     0.034 C 
HETATM    2  C2  UNL     1      25.463   2.960  50.697  1.00  0.00     0.106 C 
HETATM    3  C3  UNL     1      26.464   2.234  51.579  1.00  0.00     0.054 C 
HETATM    4  C4  UNL     1      25.803   0.976  52.009  1.00  0.00    -0.024 C 
HETATM    5  C5  UNL     1      24.613   0.607  52.402  1.00  0.00     0.007 C 
HETATM    6  C6  UNL     1      23.340   1.292  52.606  1.00  0.00    -0.009 C 
HETATM    7  C7  UNL     1      22.573   0.515  53.370  1.00  0.00     0.140 C 
HETATM    8  C8  UNL     1      22.649   2.515  52.273  1.00  0.00     0.165 C 
HETATM    9  C16 UNL     1      23.517   3.695  52.042  1.00  0.00     0.114 C 
HETATM   10  N3  UNL     1      24.631   3.834  51.409  1.00  0.00    -0.298 NA
ENDROOT
BRANCH   8  11
HETATM   11  N1  UNL     1      21.639   2.363  51.262  1.00  0.00    -0.333 N 
HETATM   12  C9  UNL     1      22.193   1.535  50.204  1.00  0.00     0.106 C 
HETATM   13  C10 UNL     1      21.918   1.357  48.917  1.00  0.00     0.004 C 
HETATM   14  C11 UNL     1      21.348   2.266  48.250  1.00  0.00    -0.001 C 
HETATM   15  C12 UNL     1      20.122   2.513  48.129  1.00  0.00    -0.013 C 
HETATM   16  C13 UNL     1      19.428   3.260  48.971  1.00  0.00     0.016 C 
HETATM   17  C14 UNL     1      19.438   3.307  50.444  1.00  0.00     0.043 C 
HETATM   18  C15 UNL     1      20.342   2.938  51.335  1.00  0.00     0.080 C 
BRANCH  18  19
HETATM   19  N2  UNL     1      20.043   3.110  52.707  1.00  0.00    -0.288 NA
HETATM   20  H15 UNL     1      20.690   2.936  53.503  1.00  0.00     0.125 HD
HETATM   21  H16 UNL     1      20.828   2.883  53.365  1.00  0.00     0.125 HD
ENDBRANCH  18  19
ENDBRANCH   8  11
BRANCH   7  22
HETATM   22  O1  UNL     1      21.288   0.676  53.863  1.00  0.00    -0.372 OA
HETATM   23  H10 UNL     1      20.986   0.569  54.803  1.00  0.00     0.216 HD
ENDBRANCH   7  22
TORSDOF 3
ENDMDL
MODEL 8
REMARK VINA RESULT:      -6.4      2.149      5.300
REMARK  3 active torsions:
REMARK  status: ('A' for Active; 'I' for Inactive)
REMARK    1  A    between atoms: C7_7  and  O1_8 
REMARK    2  A    between atoms: C8_9  and  N1_10 
REMARK    3  A    between atoms: C15_17  and  N2_18 
ROOT
HETATM    1  C1  UNL     1      22.887   6.373  50.273  1.00  0.00     0.034 C 
HETATM    2  C2  UNL     1      23.880   5.262  50.525  1.00  0.00     0.106 C 
HETATM    3  C3  UNL     1      25.241   5.788  50.101  1.00  0.00     0.054 C 
HETATM    4  C4  UNL     1      26.022   4.606  49.660  1.00  0.00    -0.024 C 
HETATM    5  C5  UNL     1      26.199   3.373  50.055  1.00  0.00     0.007 C 
HETATM    6  C6  UNL     1      25.685   2.564  51.156  1.00  0.00    -0.009 C 
HETATM    7  C7  UNL     1      26.483   1.506  51.297  1.00  0.00     0.140 C 
HETATM    8  C8  UNL     1      24.626   2.534  52.137  1.00  0.00     0.165 C 
HETATM    9  C16 UNL     1      24.103   3.857  52.553  1.00  0.00     0.114 C 
HETATM   10  N3  UNL     1      23.818   4.921  51.883  1.00  0.00    -0.298 NA
ENDROOT
BRANCH   8  11
HETATM   11  N1  UNL     1      23.580   1.592  51.844  1.00  0.00    -0.333 N 
HETATM   12  C9  UNL     1      23.169   1.802  50.465  1.00  0.00     0.106 C 
HETATM   13  C10 UNL     1      22.073   1.531  49.767  1.00  0.00     0.004 C 
HETATM   14  C11 UNL     1      20.956   1.410  50.344  1.00  0.00    -0.001 C 
HETATM   15  C12 UNL     1      20.449   0.399  50.889  1.00  0.00    -0.013 C 
HETATM   16  C13 UNL     1      20.676   0.037  52.141  1.00  0.00     0.016 C 
HETATM   17  C14 UNL     1      21.928   0.005  52.918  1.00  0.00     0.043 C 
HETATM   18  C15 UNL     1      23.077   0.641  52.772  1.00  0.00     0.080 C 
BRANCH  18  19
HETATM   19  N2  UNL     1      24.113   0.382  53.700  1.00  0.00    -0.288 NA
HETATM   20  H15 UNL     1      25.125   0.294  53.481  1.00  0.00     0.125 HD
HETATM   21  H16 UNL     1      25.076   0.328  53.288  1.00  0.00     0.125 HD
ENDBRANCH  18  19
ENDBRANCH   8  11
BRANCH   7  22
HETATM   22  O1  UNL     1      26.459   0.436  52.175  1.00  0.00    -0.372 OA
HETATM   23  H10 UNL     1      26.467   0.472  53.168  1.00  0.00     0.216 HD
ENDBRANCH   7  22
TORSDOF 3
ENDMDL
MODEL 9
REMARK VINA RESULT:      -6.4      7.193      8.961
REMARK  3 active torsions:
REMARK  status: ('A' for Active; 'I' for Inactive)
REMARK    1  A    between atoms: C7_7  and  O1_8 
REMARK    2  A    between atoms: C8_9  and  N1_10 
REMARK    3  A    between atoms: C15_17  and  N2_18 
ROOT
HETATM    1  C1  UNL     1      34.955   5.797  47.895  1.00  0.00     0.034 C 
HETATM    2  C2  UNL     1      33.451   5.787  48.036  1.00  0.00     0.106 C 
HETATM    3  C3  UNL     1      33.010   4.339  47.917  1.00  0.00     0.054 C 
HETATM    4  C4  UNL     1      31.641   4.369  47.344  1.00  0.00    -0.024 C 
HETATM    5  C5  UNL     1      30.558   5.084  47.490  1.00  0.00     0.007 C 
HETATM    6  C6  UNL     1      30.186   6.227  48.318  1.00  0.00    -0.009 C 
HETATM    7  C7  UNL     1      28.856   6.307  48.337  1.00  0.00     0.140 C 
HETATM    8  C8  UNL     1      30.767   7.277  49.122  1.00  0.00     0.165 C 
HETATM    9  C16 UNL     1      32.079   6.959  49.735  1.00  0.00     0.114 C 
HETATM   10  N3  UNL     1      33.125   6.364  49.272  1.00  0.00    -0.298 NA
ENDROOT
BRANCH   8  11
HETATM   11  N1  UNL     1      30.744   8.573  48.501  1.00  0.00    -0.333 N 
HETATM   12  C9  UNL     1      31.262   8.426  47.150  1.00  0.00     0.106 C 
HETATM   13  C10 UNL     1      31.810   9.251  46.266  1.00  0.00     0.004 C 
HETATM   14  C11 UNL     1      32.400  10.301  46.646  1.00  0.00    -0.001 C 
HETATM   15  C12 UNL     1      31.921  11.434  46.898  1.00  0.00    -0.013 C 
HETATM   16  C13 UNL     1      31.415  11.783  48.070  1.00  0.00     0.016 C 
HETATM   17  C14 UNL     1      30.531  11.046  48.990  1.00  0.00     0.043 C 
HETATM   18  C15 UNL     1      30.283   9.756  49.137  1.00  0.00     0.080 C 
BRANCH  18  19
HETATM   19  N2  UNL     1      29.356   9.358  50.128  1.00  0.00    -0.288 NA
HETATM   20  H15 UNL     1      29.485   8.588  50.816  1.00  0.00     0.125 HD
HETATM   21  H16 UNL     1      29.666   8.557  50.731  1.00  0.00     0.125 HD
ENDBRANCH  18  19
ENDBRANCH   8  11
BRANCH   7  22
HETATM   22  O1  UNL     1      27.987   7.188  48.959  1.00  0.00    -0.372 OA
HETATM   23  H10 UNL     1      27.188   7.627  48.563  1.00  0.00     0.216 HD
ENDBRANCH   7  22
TORSDOF 3
ENDMDL
