MODEL 1
REMARK VINA RESULT:      -6.7      0.000      0.000
REMARK  4 active torsions:
REMARK  status: ('A' for Active; 'I' for Inactive)
REMARK    1  A    between atoms: C2_2  and  C3_3 
REMARK       I    between atoms: C3_3  and  N1_5 
REMARK    2  A    between atoms: N1_5  and  C4_6 
REMARK    3  A    between atoms: C4_6  and  C5_7 
REMARK    4  A    between atoms: C10_14  and  N3_16 
ROOT
HETATM    1  C4  UNL     1      24.611   2.704  51.059  1.00  0.00     0.085 C 
HETATM    2  P1  UNL     1      25.956   1.491  51.457  1.00  0.00    -0.051 P 
HETATM    3  C7  UNL     1      26.028   1.841  53.247  1.00  0.00     0.047 C 
HETATM    4  C8  UNL     1      27.015   1.396  54.181  1.00  0.00     0.100 C 
HETATM    5  N2  UNL     1      27.820   1.055  54.936  1.00  0.00    -0.191 NA
HETATM    6  C9  UNL     1      24.980   2.580  53.457  1.00  0.00     0.030 C 
HETATM    7  C10 UNL     1      24.047   2.962  52.409  1.00  0.00     0.078 C 
HETATM    8  C11 UNL     1      23.838   4.474  52.549  1.00  0.00     0.046 C 
HETATM    9  H12 UNL     1      25.625   0.129  51.233  1.00  0.00     0.065 HD
ENDROOT
BRANCH   1  10
HETATM   10  N1  UNL     1      23.634   2.133  50.145  1.00  0.00    -0.345 N 
HETATM   11  C3  UNL     1      22.934   2.867  49.158  1.00  0.00     0.218 C 
HETATM   12  O1  UNL     1      23.080   4.095  48.961  1.00  0.00    -0.274 OA
HETATM   13  H6  UNL     1      23.337   1.112  50.118  1.00  0.00     0.163 HD
BRANCH  11  14
HETATM   14  C2  UNL     1      21.939   2.307  48.226  1.00  0.00     0.098 C 
HETATM   15  C1  UNL     1      21.192   1.143  48.782  1.00  0.00     0.014 C 
ENDBRANCH  11  14
ENDBRANCH   1  10
BRANCH   1  16
HETATM   16  C5  UNL     1      25.291   3.863  50.379  1.00  0.00     0.034 C 
HETATM   17  C6  UNL     1      26.553   3.523  49.660  1.00  0.00     0.008 C 
ENDBRANCH   1  16
BRANCH   7  18
HETATM   18  N3  UNL     1      22.728   2.365  52.582  1.00  0.00    -0.370 N 
HETATM   19  C12 UNL     1      22.733   1.049  53.174  1.00  0.00     0.106 A 
HETATM   20  C13 UNL     1      21.677   0.267  53.337  1.00  0.00     0.025 A 
HETATM   21 BR1  UNL     1      21.724  -1.470  54.120  1.00  0.00    -0.050 Br
HETATM   22  C14 UNL     1      20.363   0.757  52.937  1.00  0.00     0.018 A 
HETATM   23  C15 UNL     1      20.348   1.976  52.438  1.00  0.00    -0.006 A 
HETATM   24  C16 UNL     1      21.447   2.941  52.218  1.00  0.00     0.151 A 
ENDBRANCH   7  18
TORSDOF 4
ENDMDL
MODEL 2
REMARK VINA RESULT:      -6.6      1.317      1.665
REMARK  4 active torsions:
REMARK  status: ('A' for Active; 'I' for Inactive)
REMARK    1  A    between atoms: C2_2  and  C3_3 
REMARK       I    between atoms: C3_3  and  N1_5 
REMARK    2  A    between atoms: N1_5  and  C4_6 
REMARK    3  A    between atoms: C4_6  and  C5_7 
REMARK    4  A    between atoms: C10_14  and  N3_16 
ROOT
HETATM    1  C4  UNL     1      24.809   2.925  50.934  1.00  0.00     0.085 C 
HETATM    2  P1  UNL     1      26.385   1.995  51.230  1.00  0.00    -0.051 P 
HETATM    3  C7  UNL     1      26.347   2.096  53.052  1.00  0.00     0.047 C 
HETATM    4  C8  UNL     1      27.393   1.754  53.964  1.00  0.00     0.100 C 
HETATM    5  N2  UNL     1      28.242   1.496  54.704  1.00  0.00    -0.191 NA
HETATM    6  C9  UNL     1      25.156   2.548  53.309  1.00  0.00     0.030 C 
HETATM    7  C10 UNL     1      24.178   2.859  52.278  1.00  0.00     0.078 C 
HETATM    8  C11 UNL     1      23.631   4.252  52.608  1.00  0.00     0.046 C 
HETATM    9  H12 UNL     1      26.373   0.639  50.810  1.00  0.00     0.065 HD
ENDROOT
BRANCH   1  10
HETATM   10  N1  UNL     1      24.000   2.287  49.906  1.00  0.00    -0.345 N 
HETATM   11  C3  UNL     1      23.107   2.971  49.048  1.00  0.00     0.218 C 
HETATM   12  O1  UNL     1      22.914   4.208  49.077  1.00  0.00    -0.274 OA
HETATM   13  H6  UNL     1      23.988   1.245  49.689  1.00  0.00     0.163 HD
BRANCH  11  14
HETATM   14  C2  UNL     1      22.279   2.342  48.003  1.00  0.00     0.098 C 
HETATM   15  C1  UNL     1      21.429   1.227  48.510  1.00  0.00     0.014 C 
ENDBRANCH  11  14
ENDBRANCH   1  10
BRANCH   1  16
HETATM   16  C5  UNL     1      25.220   4.289  50.448  1.00  0.00     0.034 C 
HETATM   17  C6  UNL     1      26.446   4.315  49.598  1.00  0.00     0.008 C 
ENDBRANCH   1  16
BRANCH   7  18
HETATM   18  N3  UNL     1      23.025   1.967  52.306  1.00  0.00    -0.370 N 
HETATM   19  C12 UNL     1      21.760   2.606  52.034  1.00  0.00     0.106 A 
HETATM   20  C13 UNL     1      20.569   2.030  52.103  1.00  0.00     0.025 A 
HETATM   21 BR1  UNL     1      18.917   2.910  51.742  1.00  0.00    -0.050 Br
HETATM   22  C14 UNL     1      20.484   0.613  52.436  1.00  0.00     0.018 A 
HETATM   23  C15 UNL     1      21.640   0.016  52.639  1.00  0.00    -0.006 A 
HETATM   24  C16 UNL     1      23.021   0.542  52.583  1.00  0.00     0.151 A 
ENDBRANCH   7  18
TORSDOF 4
ENDMDL
MODEL 3
REMARK VINA RESULT:      -6.2      2.645      4.509
REMARK  4 active torsions:
REMARK  status: ('A' for Active; 'I' for Inactive)
REMARK    1  A    between atoms: C2_2  and  C3_3 
REMARK       I    between atoms: C3_3  and  N1_5 
REMARK    2  A    between atoms: N1_5  and  C4_6 
REMARK    3  A    between atoms: C4_6  and  C5_7 
REMARK    4  A    between atoms: C10_14  and  N3_16 
ROOT
HETATM    1  C4  UNL     1      24.125   1.958  52.245  1.00  0.00     0.085 C 
HETATM    2  P1  UNL     1      24.107   0.247  52.961  1.00  0.00    -0.051 P 
HETATM    3  C7  UNL     1      22.329   0.213  53.370  1.00  0.00     0.047 C 
HETATM    4  C8  UNL     1      21.637  -0.759  54.159  1.00  0.00     0.100 C 
HETATM    5  N2  UNL     1      21.077  -1.531  54.811  1.00  0.00    -0.191 NA
HETATM    6  C9  UNL     1      21.857   1.269  52.779  1.00  0.00     0.030 C 
HETATM    7  C10 UNL     1      22.677   2.183  52.000  1.00  0.00     0.078 C 
HETATM    8  C11 UNL     1      22.332   3.595  52.486  1.00  0.00     0.046 C 
HETATM    9  H12 UNL     1      24.424  -0.792  52.047  1.00  0.00     0.065 HD
ENDROOT
BRANCH   1  10
HETATM   10  N1  UNL     1      24.914   2.015  51.025  1.00  0.00    -0.345 N 
HETATM   11  C3  UNL     1      25.534   3.184  50.524  1.00  0.00     0.218 C 
HETATM   12  O1  UNL     1      25.472   4.305  51.080  1.00  0.00    -0.274 OA
HETATM   13  H6  UNL     1      25.110   1.194  50.377  1.00  0.00     0.163 HD
BRANCH  11  14
HETATM   14  C2  UNL     1      26.335   3.263  49.289  1.00  0.00     0.098 C 
HETATM   15  C1  UNL     1      26.915   4.614  49.041  1.00  0.00     0.014 C 
ENDBRANCH  11  14
ENDBRANCH   1  10
BRANCH   1  16
HETATM   16  C5  UNL     1      24.777   2.832  53.284  1.00  0.00     0.034 C 
HETATM   17  C6  UNL     1      25.957   2.229  53.968  1.00  0.00     0.008 C 
ENDBRANCH   1  16
BRANCH   7  18
HETATM   18  N3  UNL     1      22.347   2.165  50.579  1.00  0.00    -0.370 N 
HETATM   19  C12 UNL     1      22.376   3.458  49.936  1.00  0.00     0.106 A 
HETATM   20  C13 UNL     1      22.018   3.711  48.686  1.00  0.00     0.025 A 
HETATM   21 BR1  UNL     1      22.065   5.434  47.873  1.00  0.00    -0.050 Br
HETATM   22  C14 UNL     1      21.591   2.608  47.833  1.00  0.00     0.018 A 
HETATM   23  C15 UNL     1      21.607   1.421  48.403  1.00  0.00    -0.006 A 
HETATM   24  C16 UNL     1      21.992   1.013  49.772  1.00  0.00     0.151 A 
ENDBRANCH   7  18
TORSDOF 4
ENDMDL
MODEL 4
REMARK VINA RESULT:      -6.2      3.112      4.304
REMARK  4 active torsions:
REMARK  status: ('A' for Active; 'I' for Inactive)
REMARK    1  A    between atoms: C2_2  and  C3_3 
REMARK       I    between atoms: C3_3  and  N1_5 
REMARK    2  A    between atoms: N1_5  and  C4_6 
REMARK    3  A    between atoms: C4_6  and  C5_7 
REMARK    4  A    between atoms: C10_14  and  N3_16 
ROOT
HETATM    1  C4  UNL     1      23.564   5.713  49.875  1.00  0.00     0.085 C 
HETATM    2  P1  UNL     1      24.866   6.280  48.683  1.00  0.00    -0.051 P 
HETATM    3  C7  UNL     1      26.107   5.014  49.113  1.00  0.00     0.047 C 
HETATM    4  C8  UNL     1      27.479   4.970  48.712  1.00  0.00     0.100 C 
HETATM    5  N2  UNL     1      28.593   4.939  48.406  1.00  0.00    -0.191 NA
HETATM    6  C9  UNL     1      25.449   4.179  49.860  1.00  0.00     0.030 C 
HETATM    7  C10 UNL     1      24.043   4.342  50.193  1.00  0.00     0.078 C 
HETATM    8  C11 UNL     1      23.934   4.147  51.710  1.00  0.00     0.046 C 
HETATM    9  H12 UNL     1      24.512   6.180  47.312  1.00  0.00     0.065 HD
ENDROOT
BRANCH   1  10
HETATM   10  N1  UNL     1      22.245   5.716  49.263  1.00  0.00    -0.345 N 
HETATM   11  C3  UNL     1      21.026   5.712  49.982  1.00  0.00     0.218 C 
HETATM   12  O1  UNL     1      20.948   5.706  51.232  1.00  0.00    -0.274 OA
HETATM   13  H6  UNL     1      22.049   5.718  48.217  1.00  0.00     0.163 HD
BRANCH  11  14
HETATM   14  C2  UNL     1      19.681   5.712  49.380  1.00  0.00     0.098 C 
HETATM   15  C1  UNL     1      19.295   4.399  48.787  1.00  0.00     0.014 C 
ENDBRANCH  11  14
ENDBRANCH   1  10
BRANCH   1  16
HETATM   16  C5  UNL     1      23.576   6.710  51.004  1.00  0.00     0.034 C 
HETATM   17  C6  UNL     1      24.050   8.076  50.636  1.00  0.00     0.008 C 
ENDBRANCH   1  16
BRANCH   7  18
HETATM   18  N3  UNL     1      23.199   3.310  49.603  1.00  0.00    -0.370 N 
HETATM   19  C12 UNL     1      22.478   2.500  50.556  1.00  0.00     0.106 A 
HETATM   20  C13 UNL     1      21.733   1.443  50.270  1.00  0.00     0.025 A 
HETATM   21 BR1  UNL     1      20.800   0.393  51.559  1.00  0.00    -0.050 Br
HETATM   22  C14 UNL     1      21.562   1.052  48.876  1.00  0.00     0.018 A 
HETATM   23  C15 UNL     1      22.181   1.816  48.000  1.00  0.00    -0.006 A 
HETATM   24  C16 UNL     1      23.024   3.017  48.192  1.00  0.00     0.151 A 
ENDBRANCH   7  18
TORSDOF 4
ENDMDL
MODEL 5
REMARK VINA RESULT:      -6.1      2.808      4.982
REMARK  4 active torsions:
REMARK  status: ('A' for Active; 'I' for Inactive)
REMARK    1  A    between atoms: C2_2  and  C3_3 
REMARK       I    between atoms: C3_3  and  N1_5 
REMARK    2  A    between atoms: N1_5  and  C4_6 
REMARK    3  A    between atoms: C4_6  and  C5_7 
REMARK    4  A    between atoms: C10_14  and  N3_16 
ROOT
HETATM    1  C4  UNL     1      25.029   4.305  50.144  1.00  0.00     0.085 C 
HETATM    2  P1  UNL     1      25.323   6.113  49.854  1.00  0.00    -0.051 P 
HETATM    3  C7  UNL     1      24.034   6.333  48.582  1.00  0.00     0.047 C 
HETATM    4  C8  UNL     1      23.827   7.470  47.741  1.00  0.00     0.100 C 
HETATM    5  N2  UNL     1      23.667   8.379  47.046  1.00  0.00    -0.191 NA
HETATM    6  C9  UNL     1      23.363   5.220  48.629  1.00  0.00     0.030 C 
HETATM    7  C10 UNL     1      23.681   4.133  49.541  1.00  0.00     0.078 C 
HETATM    8  C11 UNL     1      23.705   2.855  48.697  1.00  0.00     0.046 C 
HETATM    9  H12 UNL     1      25.064   6.952  50.970  1.00  0.00     0.065 HD
ENDROOT
BRANCH   1  10
HETATM   10  N1  UNL     1      25.051   3.983  51.562  1.00  0.00    -0.345 N 
HETATM   11  C3  UNL     1      25.294   2.692  52.088  1.00  0.00     0.218 C 
HETATM   12  O1  UNL     1      25.518   1.679  51.387  1.00  0.00    -0.274 OA
HETATM   13  H6  UNL     1      24.887   4.674  52.355  1.00  0.00     0.163 HD
BRANCH  11  14
HETATM   14  C2  UNL     1      25.318   2.346  53.521  1.00  0.00     0.098 C 
HETATM   15  C1  UNL     1      26.503   1.531  53.915  1.00  0.00     0.014 C 
ENDBRANCH  11  14
ENDBRANCH   1  10
BRANCH   1  16
HETATM   16  C5  UNL     1      26.167   3.589  49.467  1.00  0.00     0.034 C 
HETATM   17  C6  UNL     1      27.246   4.473  48.938  1.00  0.00     0.008 C 
ENDBRANCH   1  16
BRANCH   7  18
HETATM   18  N3  UNL     1      22.648   3.920  50.547  1.00  0.00    -0.370 N 
HETATM   19  C12 UNL     1      22.113   2.580  50.591  1.00  0.00     0.106 A 
HETATM   20  C13 UNL     1      21.103   2.171  51.344  1.00  0.00     0.025 A 
HETATM   21 BR1  UNL     1      20.422   0.391  51.371  1.00  0.00    -0.050 Br
HETATM   22  C14 UNL     1      20.473   3.115  52.259  1.00  0.00     0.018 A 
HETATM   23  C15 UNL     1      20.987   4.327  52.255  1.00  0.00    -0.006 A 
HETATM   24  C16 UNL     1      22.109   4.897  51.477  1.00  0.00     0.151 A 
ENDBRANCH   7  18
TORSDOF 4
ENDMDL
MODEL 6
REMARK VINA RESULT:      -6.0      3.371      4.997
REMARK  4 active torsions:
REMARK  status: ('A' for Active; 'I' for Inactive)
REMARK    1  A    between atoms: C2_2  and  C3_3 
REMARK       I    between atoms: C3_3  and  N1_5 
REMARK    2  A    between atoms: N1_5  and  C4_6 
REMARK    3  A    between atoms: C4_6  and  C5_7 
REMARK    4  A    between atoms: C10_14  and  N3_16 
ROOT
HETATM    1  C4  UNL     1      23.310   5.701  49.221  1.00  0.00     0.085 C 
HETATM    2  P1  UNL     1      24.295   7.008  48.349  1.00  0.00    -0.051 P 
HETATM    3  C7  UNL     1      25.114   7.678  49.835  1.00  0.00     0.047 C 
HETATM    4  C8  UNL     1      25.886   8.877  49.936  1.00  0.00     0.100 C 
HETATM    5  N2  UNL     1      26.496   9.854  50.027  1.00  0.00    -0.191 NA
HETATM    6  C9  UNL     1      24.826   6.812  50.761  1.00  0.00     0.030 C 
HETATM    7  C10 UNL     1      24.024   5.623  50.522  1.00  0.00     0.078 C 
HETATM    8  C11 UNL     1      22.969   5.584  51.634  1.00  0.00     0.046 C 
HETATM    9  H12 UNL     1      25.261   6.520  47.430  1.00  0.00     0.065 HD
ENDROOT
BRANCH   1  10
HETATM   10  N1  UNL     1      23.335   4.442  48.494  1.00  0.00    -0.345 N 
HETATM   11  C3  UNL     1      22.349   3.432  48.603  1.00  0.00     0.218 C 
HETATM   12  O1  UNL     1      21.340   3.513  49.340  1.00  0.00    -0.274 OA
HETATM   13  H6  UNL     1      24.091   4.140  47.808  1.00  0.00     0.163 HD
BRANCH  11  14
HETATM   14  C2  UNL     1      22.358   2.150  47.877  1.00  0.00     0.098 C 
HETATM   15  C1  UNL     1      21.590   1.072  48.564  1.00  0.00     0.014 C 
ENDBRANCH  11  14
ENDBRANCH   1  10
BRANCH   1  16
HETATM   16  C5  UNL     1      21.893   6.210  49.258  1.00  0.00     0.034 C 
HETATM   17  C6  UNL     1      21.656   7.476  48.506  1.00  0.00     0.008 C 
ENDBRANCH   1  16
BRANCH   7  18
HETATM   18  N3  UNL     1      24.788   4.389  50.661  1.00  0.00    -0.370 N 
HETATM   19  C12 UNL     1      24.193   3.405  51.535  1.00  0.00     0.106 A 
HETATM   20  C13 UNL     1      24.743   2.256  51.898  1.00  0.00     0.025 A 
HETATM   21 BR1  UNL     1      23.928   0.984  53.059  1.00  0.00    -0.050 Br
HETATM   22  C14 UNL     1      26.046   1.891  51.355  1.00  0.00     0.018 A 
HETATM   23  C15 UNL     1      26.571   2.765  50.522  1.00  0.00    -0.006 A 
HETATM   24  C16 UNL     1      26.057   4.064  50.036  1.00  0.00     0.151 A 
ENDBRANCH   7  18
TORSDOF 4
ENDMDL
MODEL 7
REMARK VINA RESULT:      -5.9      8.751     11.191
REMARK  4 active torsions:
REMARK  status: ('A' for Active; 'I' for Inactive)
REMARK    1  A    between atoms: C2_2  and  C3_3 
REMARK       I    between atoms: C3_3  and  N1_5 
REMARK    2  A    between atoms: N1_5  and  C4_6 
REMARK    3  A    between atoms: C4_6  and  C5_7 
REMARK    4  A    between atoms: C10_14  and  N3_16 
ROOT
HETATM    1  C4  UNL     1      30.356   8.077  48.408  1.00  0.00     0.085 C 
HETATM    2  P1  UNL     1      31.956   7.698  49.265  1.00  0.00    -0.051 P 
HETATM    3  C7  UNL     1      33.040   8.544  48.066  1.00  0.00     0.047 C 
HETATM    4  C8  UNL     1      34.467   8.481  47.988  1.00  0.00     0.100 C 
HETATM    5  N2  UNL     1      35.617   8.420  47.909  1.00  0.00    -0.191 NA
HETATM    6  C9  UNL     1      32.210   9.205  47.315  1.00  0.00     0.030 C 
HETATM    7  C10 UNL     1      30.769   9.182  47.504  1.00  0.00     0.078 C 
HETATM    8  C11 UNL     1      30.156   8.914  46.125  1.00  0.00     0.046 C 
HETATM    9  H12 UNL     1      32.100   8.275  50.554  1.00  0.00     0.065 HD
ENDROOT
BRANCH   1  10
HETATM   10  N1  UNL     1      29.329   8.483  49.355  1.00  0.00    -0.345 N 
HETATM   11  C3  UNL     1      27.937   8.392  49.117  1.00  0.00     0.218 C 
HETATM   12  O1  UNL     1      27.433   7.948  48.060  1.00  0.00    -0.274 OA
HETATM   13  H6  UNL     1      29.507   8.893  50.321  1.00  0.00     0.163 HD
BRANCH  11  14
HETATM   14  C2  UNL     1      26.882   8.800  50.062  1.00  0.00     0.098 C 
HETATM   15  C1  UNL     1      25.832   7.761  50.265  1.00  0.00     0.014 C 
ENDBRANCH  11  14
ENDBRANCH   1  10
BRANCH   1  16
HETATM   16  C5  UNL     1      29.927   6.792  47.750  1.00  0.00     0.034 C 
HETATM   17  C6  UNL     1      30.757   5.600  48.089  1.00  0.00     0.008 C 
ENDBRANCH   1  16
BRANCH   7  18
HETATM   18  N3  UNL     1      30.235  10.472  47.927  1.00  0.00    -0.370 N 
HETATM   19  C12 UNL     1      29.157  10.977  47.110  1.00  0.00     0.106 A 
HETATM   20  C13 UNL     1      28.582  12.164  47.231  1.00  0.00     0.025 A 
HETATM   21 BR1  UNL     1      27.163  12.799  46.129  1.00  0.00    -0.050 Br
HETATM   22  C14 UNL     1      29.015  13.056  48.301  1.00  0.00     0.018 A 
HETATM   23  C15 UNL     1      29.966  12.580  49.077  1.00  0.00    -0.006 A 
HETATM   24  C16 UNL     1      30.673  11.281  49.050  1.00  0.00     0.151 A 
ENDBRANCH   7  18
TORSDOF 4
ENDMDL
MODEL 8
REMARK VINA RESULT:      -5.9      9.274     11.907
REMARK  4 active torsions:
REMARK  status: ('A' for Active; 'I' for Inactive)
REMARK    1  A    between atoms: C2_2  and  C3_3 
REMARK       I    between atoms: C3_3  and  N1_5 
REMARK    2  A    between atoms: N1_5  and  C4_6 
REMARK    3  A    between atoms: C4_6  and  C5_7 
REMARK    4  A    between atoms: C10_14  and  N3_16 
ROOT
HETATM    1  C4  UNL     1      31.598   8.689  47.697  1.00  0.00     0.085 C 
HETATM    2  P1  UNL     1      30.280   8.835  48.993  1.00  0.00    -0.051 P 
HETATM    3  C7  UNL     1      28.915   8.178  47.977  1.00  0.00     0.047 C 
HETATM    4  C8  UNL     1      27.518   8.193  48.282  1.00  0.00     0.100 C 
HETATM    5  N2  UNL     1      26.387   8.219  48.516  1.00  0.00    -0.191 NA
HETATM    6  C9  UNL     1      29.515   7.702  46.927  1.00  0.00     0.030 C 
HETATM    7  C10 UNL     1      30.956   7.751  46.739  1.00  0.00     0.078 C 
HETATM    8  C11 UNL     1      31.188   8.294  45.325  1.00  0.00     0.046 C 
HETATM    9  H12 UNL     1      30.474   8.026  50.143  1.00  0.00     0.065 HD
ENDROOT
BRANCH   1  10
HETATM   10  N1  UNL     1      32.833   8.160  48.253  1.00  0.00    -0.345 N 
HETATM   11  C3  UNL     1      34.123   8.410  47.725  1.00  0.00     0.218 C 
HETATM   12  O1  UNL     1      34.343   9.119  46.716  1.00  0.00    -0.274 OA
HETATM   13  H6  UNL     1      32.907   7.530  49.108  1.00  0.00     0.163 HD
BRANCH  11  14
HETATM   14  C2  UNL     1      35.385   7.882  48.272  1.00  0.00     0.098 C 
HETATM   15  C1  UNL     1      35.340   6.421  48.567  1.00  0.00     0.014 C 
ENDBRANCH  11  14
ENDBRANCH   1  10
BRANCH   1  16
HETATM   16  C5  UNL     1      31.849  10.089  47.204  1.00  0.00     0.034 C 
HETATM   17  C6  UNL     1      31.349  11.173  48.099  1.00  0.00     0.008 C 
ENDBRANCH   1  16
BRANCH   7  18
HETATM   18  N3  UNL     1      31.573   6.430  46.759  1.00  0.00    -0.370 N 
HETATM   19  C12 UNL     1      32.494   6.176  45.677  1.00  0.00     0.106 A 
HETATM   20  C13 UNL     1      33.096   5.024  45.424  1.00  0.00     0.025 A 
HETATM   21 BR1  UNL     1      34.303   4.725  43.980  1.00  0.00    -0.050 Br
HETATM   22  C14 UNL     1      32.873   3.895  46.320  1.00  0.00     0.018 A 
HETATM   23  C15 UNL     1      32.069   4.137  47.335  1.00  0.00    -0.006 A 
HETATM   24  C16 UNL     1      31.352   5.370  47.726  1.00  0.00     0.151 A 
ENDBRANCH   7  18
TORSDOF 4
ENDMDL
MODEL 9
REMARK VINA RESULT:      -5.9      3.357      5.946
REMARK  4 active torsions:
REMARK  status: ('A' for Active; 'I' for Inactive)
REMARK    1  A    between atoms: C2_2  and  C3_3 
REMARK       I    between atoms: C3_3  and  N1_5 
REMARK    2  A    between atoms: N1_5  and  C4_6 
REMARK    3  A    between atoms: C4_6  and  C5_7 
REMARK    4  A    between atoms: C10_14  and  N3_16 
ROOT
HETATM    1  C4  UNL     1      22.448   1.969  51.333  1.00  0.00     0.085 C 
HETATM    2  P1  UNL     1      21.431   0.634  50.545  1.00  0.00    -0.051 P 
HETATM    3  C7  UNL     1      19.882   1.590  50.434  1.00  0.00     0.047 C 
HETATM    4  C8  UNL     1      18.580   1.101  50.100  1.00  0.00     0.100 C 
HETATM    5  N2  UNL     1      17.523   0.708  49.850  1.00  0.00    -0.191 NA
HETATM    6  C9  UNL     1      20.247   2.802  50.728  1.00  0.00     0.030 C 
HETATM    7  C10 UNL     1      21.617   3.168  51.050  1.00  0.00     0.078 C 
HETATM    8  C11 UNL     1      21.550   4.005  52.332  1.00  0.00     0.046 C 
HETATM    9  H12 UNL     1      21.860   0.235  49.251  1.00  0.00     0.065 HD
ENDROOT
BRANCH   1  10
HETATM   10  N1  UNL     1      23.772   2.052  50.735  1.00  0.00    -0.345 N 
HETATM   11  C3  UNL     1      24.914   2.577  51.385  1.00  0.00     0.218 C 
HETATM   12  O1  UNL     1      24.912   3.028  52.553  1.00  0.00    -0.274 OA
HETATM   13  H6  UNL     1      24.026   1.735  49.752  1.00  0.00     0.163 HD
BRANCH  11  14
HETATM   14  C2  UNL     1      26.262   2.672  50.796  1.00  0.00     0.098 C 
HETATM   15  C1  UNL     1      26.332   3.585  49.618  1.00  0.00     0.014 C 
ENDBRANCH  11  14
ENDBRANCH   1  10
BRANCH   1  16
HETATM   16  C5  UNL     1      22.594   1.575  52.779  1.00  0.00     0.034 C 
HETATM   17  C6  UNL     1      22.475   0.114  53.052  1.00  0.00     0.008 C 
ENDBRANCH   1  16
BRANCH   7  18
HETATM   18  N3  UNL     1      22.221   4.036  50.046  1.00  0.00    -0.370 N 
HETATM   19  C12 UNL     1      22.766   5.270  50.561  1.00  0.00     0.106 A 
HETATM   20  C13 UNL     1      23.270   6.258  49.838  1.00  0.00     0.025 A 
HETATM   21 BR1  UNL     1      23.975   7.876  50.555  1.00  0.00    -0.050 Br
HETATM   22  C14 UNL     1      23.343   6.110  48.388  1.00  0.00     0.018 A 
HETATM   23  C15 UNL     1      22.889   4.966  47.918  1.00  0.00    -0.006 A 
HETATM   24  C16 UNL     1      22.318   3.795  48.618  1.00  0.00     0.151 A 
ENDBRANCH   7  18
TORSDOF 4
ENDMDL
