MODEL 1
REMARK VINA RESULT:      -8.2      0.000      0.000
REMARK  6 active torsions:
REMARK  status: ('A' for Active; 'I' for Inactive)
REMARK    1  A    between atoms: C2_2  and  C3_3 
REMARK    2  A    between atoms: C3_3  and  N1_4 
REMARK    3  A    between atoms: N1_4  and  C4_5 
REMARK    4  A    between atoms: C10_13  and  N4_14 
REMARK    5  A    between atoms: N4_14  and  C11_15 
REMARK    6  A    between atoms: C15_19  and  O1_20 
ROOT
HETATM    1  C4  UNL     1      26.492   2.787  50.846  1.00  0.00     0.092 C 
HETATM    2  C5  UNL     1      25.346   2.541  51.504  1.00  0.00    -0.013 A 
HETATM    3  C6  UNL     1      24.396   3.637  51.590  1.00  0.00     0.030 A 
HETATM    4  C7  UNL     1      23.298   3.316  52.252  1.00  0.00     0.118 A 
HETATM    5  N2  UNL     1      23.091   2.031  52.809  1.00  0.00    -0.252 NA
HETATM    6  C8  UNL     1      23.952   1.065  52.720  1.00  0.00     0.141 A 
HETATM    7  C9  UNL     1      23.460  -0.113  53.383  1.00  0.00     0.117 C 
HETATM    8  N3  UNL     1      23.080  -1.076  53.912  1.00  0.00    -0.190 NA
HETATM    9  C10 UNL     1      25.297   1.141  52.021  1.00  0.00     0.179 A 
ENDROOT
BRANCH   9  10
HETATM   10  N4  UNL     1      26.266   1.058  53.095  1.00  0.00    -0.375 N 
HETATM   11  H11 UNL     1      26.134   1.659  53.960  1.00  0.00     0.160 HD
BRANCH  10  12
HETATM   12  C11 UNL     1      27.450   0.276  53.239  1.00  0.00     0.031 A 
HETATM   13  C12 UNL     1      28.716   0.775  53.572  1.00  0.00     0.029 A 
HETATM   14  C13 UNL     1      29.774  -0.098  53.654  1.00  0.00     0.005 A 
HETATM   15  C14 UNL     1      29.696  -1.453  53.433  1.00  0.00     0.036 A 
HETATM   16  C15 UNL     1      28.455  -1.962  53.105  1.00  0.00     0.067 A 
HETATM   17  C16 UNL     1      27.373  -1.099  53.016  1.00  0.00     0.065 A 
BRANCH  16  18
HETATM   18  O1  UNL     1      28.401  -3.321  52.889  1.00  0.00    -0.361 OA
HETATM   19  H15 UNL     1      28.131  -3.976  53.634  1.00  0.00     0.217 HD
ENDBRANCH  16  18
ENDBRANCH  10  12
ENDBRANCH   9  10
BRANCH   1  20
HETATM   20  N1  UNL     1      26.756   4.060  50.268  1.00  0.00    -0.395 N 
HETATM   21  H6  UNL     1      27.073   4.602  51.123  1.00  0.00     0.159 HD
BRANCH  20  22
HETATM   22  C3  UNL     1      26.736   4.799  49.002  1.00  0.00     0.145 C 
BRANCH  22  23
HETATM   23  C2  UNL     1      28.119   5.131  48.543  1.00  0.00    -0.018 C 
HETATM   24  C1  UNL     1      28.558   6.276  47.989  1.00  0.00     0.008 C 
ENDBRANCH  22  23
ENDBRANCH  20  22
ENDBRANCH   1  20
TORSDOF 6
ENDMDL
MODEL 2
REMARK VINA RESULT:      -7.7      1.620      5.247
REMARK  6 active torsions:
REMARK  status: ('A' for Active; 'I' for Inactive)
REMARK    1  A    between atoms: C2_2  and  C3_3 
REMARK    2  A    between atoms: C3_3  and  N1_4 
REMARK    3  A    between atoms: N1_4  and  C4_5 
REMARK    4  A    between atoms: C10_13  and  N4_14 
REMARK    5  A    between atoms: N4_14  and  C11_15 
REMARK    6  A    between atoms: C15_19  and  O1_20 
ROOT
HETATM    1  C4  UNL     1      23.773   0.431  53.545  1.00  0.00     0.092 C 
HETATM    2  C5  UNL     1      23.871   1.182  52.435  1.00  0.00    -0.013 A 
HETATM    3  C6  UNL     1      22.664   1.333  51.641  1.00  0.00     0.030 A 
HETATM    4  C7  UNL     1      22.844   2.083  50.567  1.00  0.00     0.118 A 
HETATM    5  N2  UNL     1      24.091   2.667  50.245  1.00  0.00    -0.252 NA
HETATM    6  C8  UNL     1      25.159   2.521  50.968  1.00  0.00     0.141 A 
HETATM    7  C9  UNL     1      26.266   3.231  50.385  1.00  0.00     0.117 C 
HETATM    8  N3  UNL     1      27.172   3.799  49.931  1.00  0.00    -0.190 NA
HETATM    9  C10 UNL     1      25.254   1.718  52.252  1.00  0.00     0.179 A 
ENDROOT
BRANCH   9  10
HETATM   10  N4  UNL     1      26.098   0.591  51.912  1.00  0.00    -0.375 N 
HETATM   11  H11 UNL     1      25.869   0.014  51.051  1.00  0.00     0.160 HD
BRANCH  10  12
HETATM   12  C11 UNL     1      27.259   0.057  52.543  1.00  0.00     0.031 A 
HETATM   13  C12 UNL     1      28.321   0.812  53.061  1.00  0.00     0.029 A 
HETATM   14  C13 UNL     1      29.389   0.157  53.624  1.00  0.00     0.005 A 
HETATM   15  C14 UNL     1      29.511  -1.209  53.726  1.00  0.00     0.036 A 
HETATM   16  C15 UNL     1      28.474  -1.968  53.222  1.00  0.00     0.067 A 
HETATM   17  C16 UNL     1      27.385  -1.328  52.649  1.00  0.00     0.065 A 
BRANCH  16  18
HETATM   18  O1  UNL     1      28.618  -3.332  53.336  1.00  0.00    -0.361 OA
HETATM   19  H15 UNL     1      29.448  -3.754  53.773  1.00  0.00     0.217 HD
ENDBRANCH  16  18
ENDBRANCH  10  12
ENDBRANCH   9  10
BRANCH   1  20
HETATM   20  N1  UNL     1      22.545  -0.183  53.918  1.00  0.00    -0.395 N 
HETATM   21  H6  UNL     1      21.857   0.395  53.354  1.00  0.00     0.159 HD
BRANCH  20  22
HETATM   22  C3  UNL     1      21.971  -1.250  54.744  1.00  0.00     0.145 C 
BRANCH  22  23
HETATM   23  C2  UNL     1      20.615  -1.646  54.257  1.00  0.00    -0.018 C 
HETATM   24  C1  UNL     1      19.712  -0.891  53.604  1.00  0.00     0.008 C 
ENDBRANCH  22  23
ENDBRANCH  20  22
ENDBRANCH   1  20
TORSDOF 6
ENDMDL
MODEL 3
REMARK VINA RESULT:      -7.6      2.074      5.387
REMARK  6 active torsions:
REMARK  status: ('A' for Active; 'I' for Inactive)
REMARK    1  A    between atoms: C2_2  and  C3_3 
REMARK    2  A    between atoms: C3_3  and  N1_4 
REMARK    3  A    between atoms: N1_4  and  C4_5 
REMARK    4  A    between atoms: C10_13  and  N4_14 
REMARK    5  A    between atoms: N4_14  and  C11_15 
REMARK    6  A    between atoms: C15_19  and  O1_20 
ROOT
HETATM    1  C4  UNL     1      23.585   1.370  52.928  1.00  0.00     0.092 C 
HETATM    2  C5  UNL     1      23.798   1.960  51.739  1.00  0.00    -0.013 A 
HETATM    3  C6  UNL     1      22.683   1.973  50.808  1.00  0.00     0.030 A 
HETATM    4  C7  UNL     1      22.974   2.568  49.664  1.00  0.00     0.118 A 
HETATM    5  N2  UNL     1      24.246   3.128  49.397  1.00  0.00    -0.252 NA
HETATM    6  C8  UNL     1      25.229   3.107  50.242  1.00  0.00     0.141 A 
HETATM    7  C9  UNL     1      26.389   3.751  49.686  1.00  0.00     0.117 C 
HETATM    8  N3  UNL     1      27.336   4.268  49.254  1.00  0.00    -0.190 NA
HETATM    9  C10 UNL     1      25.189   2.494  51.630  1.00  0.00     0.179 A 
ENDROOT
BRANCH   9  10
HETATM   10  N4  UNL     1      26.071   1.348  51.545  1.00  0.00    -0.375 N 
HETATM   11  H11 UNL     1      25.979   0.684  50.722  1.00  0.00     0.160 HD
BRANCH  10  12
HETATM   12  C11 UNL     1      27.116   0.895  52.403  1.00  0.00     0.031 A 
HETATM   13  C12 UNL     1      27.436  -0.446  52.654  1.00  0.00     0.029 A 
HETATM   14  C13 UNL     1      28.459  -0.733  53.525  1.00  0.00     0.005 A 
HETATM   15  C14 UNL     1      29.215   0.204  54.188  1.00  0.00     0.036 A 
HETATM   16  C15 UNL     1      28.915   1.530  53.952  1.00  0.00     0.067 A 
HETATM   17  C16 UNL     1      27.885   1.843  53.076  1.00  0.00     0.065 A 
BRANCH  16  18
HETATM   18  O1  UNL     1      29.685   2.451  54.626  1.00  0.00    -0.361 OA
HETATM   19  H15 UNL     1      29.936   2.325  55.615  1.00  0.00     0.217 HD
ENDBRANCH  16  18
ENDBRANCH  10  12
ENDBRANCH   9  10
BRANCH   1  20
HETATM   20  N1  UNL     1      22.327   0.788  53.251  1.00  0.00    -0.395 N 
HETATM   21  H6  UNL     1      21.807   1.637  53.619  1.00  0.00     0.159 HD
BRANCH  20  22
HETATM   22  C3  UNL     1      21.583  -0.475  53.243  1.00  0.00     0.145 C 
BRANCH  22  23
HETATM   23  C2  UNL     1      21.764  -1.221  54.525  1.00  0.00    -0.018 C 
HETATM   24  C1  UNL     1      22.851  -1.262  55.316  1.00  0.00     0.008 C 
ENDBRANCH  22  23
ENDBRANCH  20  22
ENDBRANCH   1  20
TORSDOF 6
ENDMDL
MODEL 4
REMARK VINA RESULT:      -7.3      2.497      5.748
REMARK  6 active torsions:
REMARK  status: ('A' for Active; 'I' for Inactive)
REMARK    1  A    between atoms: C2_2  and  C3_3 
REMARK    2  A    between atoms: C3_3  and  N1_4 
REMARK    3  A    between atoms: N1_4  and  C4_5 
REMARK    4  A    between atoms: C10_13  and  N4_14 
REMARK    5  A    between atoms: N4_14  and  C11_15 
REMARK    6  A    between atoms: C15_19  and  O1_20 
ROOT
HETATM    1  C4  UNL     1      26.750   1.775  53.695  1.00  0.00     0.092 C 
HETATM    2  C5  UNL     1      25.568   1.142  53.602  1.00  0.00    -0.013 A 
HETATM    3  C6  UNL     1      25.488  -0.180  54.200  1.00  0.00     0.030 A 
HETATM    4  C7  UNL     1      24.297  -0.735  54.065  1.00  0.00     0.118 A 
HETATM    5  N2  UNL     1      23.225  -0.089  53.404  1.00  0.00    -0.252 NA
HETATM    6  C8  UNL     1      23.316   1.093  52.878  1.00  0.00     0.141 A 
HETATM    7  C9  UNL     1      22.065   1.479  52.279  1.00  0.00     0.117 C 
HETATM    8  N3  UNL     1      21.063   1.809  51.791  1.00  0.00    -0.190 NA
HETATM    9  C10 UNL     1      24.556   1.968  52.878  1.00  0.00     0.179 A 
ENDROOT
BRANCH   9  10
HETATM   10  N4  UNL     1      24.968   2.011  51.489  1.00  0.00    -0.375 N 
HETATM   11  H11 UNL     1      25.142   1.101  50.972  1.00  0.00     0.160 HD
BRANCH  10  12
HETATM   12  C11 UNL     1      25.204   3.108  50.609  1.00  0.00     0.031 A 
HETATM   13  C12 UNL     1      24.213   3.859  49.964  1.00  0.00     0.029 A 
HETATM   14  C13 UNL     1      24.593   4.877  49.123  1.00  0.00     0.005 A 
HETATM   15  C14 UNL     1      25.893   5.231  48.853  1.00  0.00     0.036 A 
HETATM   16  C15 UNL     1      26.883   4.502  49.480  1.00  0.00     0.067 A 
HETATM   17  C16 UNL     1      26.523   3.469  50.333  1.00  0.00     0.065 A 
BRANCH  16  18
HETATM   18  O1  UNL     1      28.177   4.875  49.195  1.00  0.00    -0.361 OA
HETATM   19  H15 UNL     1      28.978   4.494  49.716  1.00  0.00     0.217 HD
ENDBRANCH  16  18
ENDBRANCH  10  12
ENDBRANCH   9  10
BRANCH   1  20
HETATM   20  N1  UNL     1      27.864   1.174  54.345  1.00  0.00    -0.395 N 
HETATM   21  H6  UNL     1      27.374   0.639  55.119  1.00  0.00     0.159 HD
BRANCH  20  22
HETATM   22  C3  UNL     1      29.325   1.061  54.303  1.00  0.00     0.145 C 
BRANCH  22  23
HETATM   23  C2  UNL     1      29.754  -0.193  53.612  1.00  0.00    -0.018 C 
HETATM   24  C1  UNL     1      29.021  -1.291  53.351  1.00  0.00     0.008 C 
ENDBRANCH  22  23
ENDBRANCH  20  22
ENDBRANCH   1  20
TORSDOF 6
ENDMDL
MODEL 5
REMARK VINA RESULT:      -7.3      2.745      5.191
REMARK  6 active torsions:
REMARK  status: ('A' for Active; 'I' for Inactive)
REMARK    1  A    between atoms: C2_2  and  C3_3 
REMARK    2  A    between atoms: C3_3  and  N1_4 
REMARK    3  A    between atoms: N1_4  and  C4_5 
REMARK    4  A    between atoms: C10_13  and  N4_14 
REMARK    5  A    between atoms: N4_14  and  C11_15 
REMARK    6  A    between atoms: C15_19  and  O1_20 
ROOT
HETATM    1  C4  UNL     1      23.198   3.287  50.727  1.00  0.00     0.092 C 
HETATM    2  C5  UNL     1      24.491   3.037  50.996  1.00  0.00    -0.013 A 
HETATM    3  C6  UNL     1      25.453   3.407  49.972  1.00  0.00     0.030 A 
HETATM    4  C7  UNL     1      26.699   3.128  50.312  1.00  0.00     0.118 A 
HETATM    5  N2  UNL     1      27.037   2.533  51.551  1.00  0.00    -0.252 NA
HETATM    6  C8  UNL     1      26.163   2.211  52.453  1.00  0.00     0.141 A 
HETATM    7  C9  UNL     1      26.808   1.626  53.598  1.00  0.00     0.117 C 
HETATM    8  N3  UNL     1      27.312   1.152  54.533  1.00  0.00    -0.190 NA
HETATM    9  C10 UNL     1      24.663   2.412  52.342  1.00  0.00     0.179 A 
ENDROOT
BRANCH   9  10
HETATM   10  N4  UNL     1      24.125   1.069  52.250  1.00  0.00    -0.375 N 
HETATM   11  H11 UNL     1      24.486   0.417  51.494  1.00  0.00     0.160 HD
BRANCH  10  12
HETATM   12  C11 UNL     1      23.136   0.394  53.024  1.00  0.00     0.031 A 
HETATM   13  C12 UNL     1      21.750   0.524  52.862  1.00  0.00     0.029 A 
HETATM   14  C13 UNL     1      20.915  -0.175  53.699  1.00  0.00     0.005 A 
HETATM   15  C14 UNL     1      21.331  -1.011  54.708  1.00  0.00     0.036 A 
HETATM   16  C15 UNL     1      22.692  -1.152  54.882  1.00  0.00     0.067 A 
HETATM   17  C16 UNL     1      23.555  -0.456  54.048  1.00  0.00     0.065 A 
BRANCH  16  18
HETATM   18  O1  UNL     1      23.085  -1.995  55.897  1.00  0.00    -0.361 OA
HETATM   19  H15 UNL     1      23.140  -3.013  55.763  1.00  0.00     0.217 HD
ENDBRANCH  16  18
ENDBRANCH  10  12
ENDBRANCH   9  10
BRANCH   1  20
HETATM   20  N1  UNL     1      22.798   3.882  49.497  1.00  0.00    -0.395 N 
HETATM   21  H6  UNL     1      22.828   4.910  49.758  1.00  0.00     0.159 HD
BRANCH  20  22
HETATM   22  C3  UNL     1      22.399   3.573  48.121  1.00  0.00     0.145 C 
BRANCH  22  23
HETATM   23  C2  UNL     1      22.351   2.097  47.886  1.00  0.00    -0.018 C 
HETATM   24  C1  UNL     1      21.559   1.186  48.480  1.00  0.00     0.008 C 
ENDBRANCH  22  23
ENDBRANCH  20  22
ENDBRANCH   1  20
TORSDOF 6
ENDMDL
MODEL 6
REMARK VINA RESULT:      -7.3      2.254      2.948
REMARK  6 active torsions:
REMARK  status: ('A' for Active; 'I' for Inactive)
REMARK    1  A    between atoms: C2_2  and  C3_3 
REMARK    2  A    between atoms: C3_3  and  N1_4 
REMARK    3  A    between atoms: N1_4  and  C4_5 
REMARK    4  A    between atoms: C10_13  and  N4_14 
REMARK    5  A    between atoms: N4_14  and  C11_15 
REMARK    6  A    between atoms: C15_19  and  O1_20 
ROOT
HETATM    1  C4  UNL     1      23.726   2.060  50.924  1.00  0.00     0.092 C 
HETATM    2  C5  UNL     1      22.855   1.617  51.846  1.00  0.00    -0.013 A 
HETATM    3  C6  UNL     1      21.565   2.284  51.898  1.00  0.00     0.030 A 
HETATM    4  C7  UNL     1      20.768   1.792  52.831  1.00  0.00     0.118 A 
HETATM    5  N2  UNL     1      21.152   0.725  53.677  1.00  0.00    -0.252 NA
HETATM    6  C8  UNL     1      22.309   0.141  53.613  1.00  0.00     0.141 A 
HETATM    7  C9  UNL     1      22.404  -0.903  54.599  1.00  0.00     0.117 C 
HETATM    8  N3  UNL     1      22.499  -1.752  55.388  1.00  0.00    -0.190 NA
HETATM    9  C10 UNL     1      23.424   0.491  52.646  1.00  0.00     0.179 A 
ENDROOT
BRANCH   9  10
HETATM   10  N4  UNL     1      24.464   1.056  53.482  1.00  0.00    -0.375 N 
HETATM   11  H11 UNL     1      24.197   1.743  54.245  1.00  0.00     0.160 HD
BRANCH  10  12
HETATM   12  C11 UNL     1      25.877   0.864  53.490  1.00  0.00     0.031 A 
HETATM   13  C12 UNL     1      26.528  -0.354  53.724  1.00  0.00     0.029 A 
HETATM   14  C13 UNL     1      27.902  -0.384  53.723  1.00  0.00     0.005 A 
HETATM   15  C14 UNL     1      28.713   0.705  53.507  1.00  0.00     0.036 A 
HETATM   16  C15 UNL     1      28.088   1.913  53.274  1.00  0.00     0.067 A 
HETATM   17  C16 UNL     1      26.702   1.967  53.271  1.00  0.00     0.065 A 
BRANCH  16  18
HETATM   18  O1  UNL     1      28.920   2.989  53.060  1.00  0.00    -0.361 OA
HETATM   19  H15 UNL     1      28.832   3.858  53.605  1.00  0.00     0.217 HD
ENDBRANCH  16  18
ENDBRANCH  10  12
ENDBRANCH   9  10
BRANCH   1  20
HETATM   20  N1  UNL     1      23.396   3.132  50.047  1.00  0.00    -0.395 N 
HETATM   21  H6  UNL     1      22.386   3.306  50.322  1.00  0.00     0.159 HD
BRANCH  20  22
HETATM   22  C3  UNL     1      23.938   3.991  48.991  1.00  0.00     0.145 C 
BRANCH  22  23
HETATM   23  C2  UNL     1      25.203   4.658  49.427  1.00  0.00    -0.018 C 
HETATM   24  C1  UNL     1      26.469   4.239  49.246  1.00  0.00     0.008 C 
ENDBRANCH  22  23
ENDBRANCH  20  22
ENDBRANCH   1  20
TORSDOF 6
ENDMDL
MODEL 7
REMARK VINA RESULT:      -7.2      1.690      2.089
REMARK  6 active torsions:
REMARK  status: ('A' for Active; 'I' for Inactive)
REMARK    1  A    between atoms: C2_2  and  C3_3 
REMARK    2  A    between atoms: C3_3  and  N1_4 
REMARK    3  A    between atoms: N1_4  and  C4_5 
REMARK    4  A    between atoms: C10_13  and  N4_14 
REMARK    5  A    between atoms: N4_14  and  C11_15 
REMARK    6  A    between atoms: C15_19  and  O1_20 
ROOT
HETATM    1  C4  UNL     1      26.242   2.926  50.670  1.00  0.00     0.092 C 
HETATM    2  C5  UNL     1      24.979   2.750  51.097  1.00  0.00    -0.013 A 
HETATM    3  C6  UNL     1      24.072   3.872  50.928  1.00  0.00     0.030 A 
HETATM    4  C7  UNL     1      22.853   3.620  51.374  1.00  0.00     0.118 A 
HETATM    5  N2  UNL     1      22.493   2.379  51.951  1.00  0.00    -0.252 NA
HETATM    6  C8  UNL     1      23.319   1.388  52.092  1.00  0.00     0.141 A 
HETATM    7  C9  UNL     1      22.663   0.267  52.710  1.00  0.00     0.117 C 
HETATM    8  N3  UNL     1      22.151  -0.651  53.207  1.00  0.00    -0.190 NA
HETATM    9  C10 UNL     1      24.778   1.387  51.674  1.00  0.00     0.179 A 
ENDROOT
BRANCH   9  10
HETATM   10  N4  UNL     1      25.512   1.349  52.923  1.00  0.00    -0.375 N 
HETATM   11  H11 UNL     1      25.038   1.684  53.812  1.00  0.00     0.160 HD
BRANCH  10  12
HETATM   12  C11 UNL     1      26.838   0.923  53.225  1.00  0.00     0.031 A 
HETATM   13  C12 UNL     1      27.349  -0.362  53.000  1.00  0.00     0.029 A 
HETATM   14  C13 UNL     1      28.645  -0.636  53.364  1.00  0.00     0.005 A 
HETATM   15  C14 UNL     1      29.507   0.265  53.945  1.00  0.00     0.036 A 
HETATM   16  C15 UNL     1      29.021   1.536  54.173  1.00  0.00     0.067 A 
HETATM   17  C16 UNL     1      27.715   1.835  53.814  1.00  0.00     0.065 A 
BRANCH  16  18
HETATM   18  O1  UNL     1      29.901   2.421  54.755  1.00  0.00    -0.361 OA
HETATM   19  H15 UNL     1      30.257   2.281  55.709  1.00  0.00     0.217 HD
ENDBRANCH  16  18
ENDBRANCH  10  12
ENDBRANCH   9  10
BRANCH   1  20
HETATM   20  N1  UNL     1      26.661   4.153  50.083  1.00  0.00    -0.395 N 
HETATM   21  H6  UNL     1      26.304   4.846  50.803  1.00  0.00     0.159 HD
BRANCH  20  22
HETATM   22  C3  UNL     1      27.357   4.721  48.925  1.00  0.00     0.145 C 
BRANCH  22  23
HETATM   23  C2  UNL     1      26.815   6.068  48.570  1.00  0.00    -0.018 C 
HETATM   24  C1  UNL     1      25.537   6.485  48.608  1.00  0.00     0.008 C 
ENDBRANCH  22  23
ENDBRANCH  20  22
ENDBRANCH   1  20
TORSDOF 6
ENDMDL
MODEL 8
REMARK VINA RESULT:      -7.2      2.627      4.968
REMARK  6 active torsions:
REMARK  status: ('A' for Active; 'I' for Inactive)
REMARK    1  A    between atoms: C2_2  and  C3_3 
REMARK    2  A    between atoms: C3_3  and  N1_4 
REMARK    3  A    between atoms: N1_4  and  C4_5 
REMARK    4  A    between atoms: C10_13  and  N4_14 
REMARK    5  A    between atoms: N4_14  and  C11_15 
REMARK    6  A    between atoms: C15_19  and  O1_20 
ROOT
HETATM    1  C4  UNL     1      24.883   3.211  51.689  1.00  0.00     0.092 C 
HETATM    2  C5  UNL     1      25.640   2.306  52.332  1.00  0.00    -0.013 A 
HETATM    3  C6  UNL     1      27.056   2.289  52.004  1.00  0.00     0.030 A 
HETATM    4  C7  UNL     1      27.729   1.371  52.676  1.00  0.00     0.118 A 
HETATM    5  N2  UNL     1      27.114   0.507  53.613  1.00  0.00    -0.252 NA
HETATM    6  C8  UNL     1      25.847   0.539  53.893  1.00  0.00     0.141 A 
HETATM    7  C9  UNL     1      25.522  -0.458  54.878  1.00  0.00     0.117 C 
HETATM    8  N3  UNL     1      25.239  -1.256  55.674  1.00  0.00    -0.190 NA
HETATM    9  C10 UNL     1      24.830   1.483  53.280  1.00  0.00     0.179 A 
ENDROOT
BRANCH   9  10
HETATM   10  N4  UNL     1      23.983   0.628  52.473  1.00  0.00    -0.375 N 
HETATM   11  H11 UNL     1      24.405   0.114  51.645  1.00  0.00     0.160 HD
BRANCH  10  12
HETATM   12  C11 UNL     1      22.596   0.311  52.569  1.00  0.00     0.031 A 
HETATM   13  C12 UNL     1      21.590   0.808  51.729  1.00  0.00     0.029 A 
HETATM   14  C13 UNL     1      20.289   0.431  51.957  1.00  0.00     0.005 A 
HETATM   15  C14 UNL     1      19.878  -0.412  52.962  1.00  0.00     0.036 A 
HETATM   16  C15 UNL     1      20.855  -0.911  53.798  1.00  0.00     0.067 A 
HETATM   17  C16 UNL     1      22.176  -0.544  53.588  1.00  0.00     0.065 A 
BRANCH  16  18
HETATM   18  O1  UNL     1      20.420  -1.754  54.796  1.00  0.00    -0.361 OA
HETATM   19  H15 UNL     1      21.064  -2.135  55.502  1.00  0.00     0.217 HD
ENDBRANCH  16  18
ENDBRANCH  10  12
ENDBRANCH   9  10
BRANCH   1  20
HETATM   20  N1  UNL     1      25.446   4.105  50.735  1.00  0.00    -0.395 N 
HETATM   21  H6  UNL     1      26.093   4.672  51.356  1.00  0.00     0.159 HD
BRANCH  20  22
HETATM   22  C3  UNL     1      25.429   4.465  49.314  1.00  0.00     0.145 C 
BRANCH  22  23
HETATM   23  C2  UNL     1      26.577   5.356  48.964  1.00  0.00    -0.018 C 
HETATM   24  C1  UNL     1      27.814   5.002  48.573  1.00  0.00     0.008 C 
ENDBRANCH  22  23
ENDBRANCH  20  22
ENDBRANCH   1  20
TORSDOF 6
ENDMDL
MODEL 9
REMARK VINA RESULT:      -7.0      3.705      6.220
REMARK  6 active torsions:
REMARK  status: ('A' for Active; 'I' for Inactive)
REMARK    1  A    between atoms: C2_2  and  C3_3 
REMARK    2  A    between atoms: C3_3  and  N1_4 
REMARK    3  A    between atoms: N1_4  and  C4_5 
REMARK    4  A    between atoms: C10_13  and  N4_14 
REMARK    5  A    between atoms: N4_14  and  C11_15 
REMARK    6  A    between atoms: C15_19  and  O1_20 
ROOT
HETATM    1  C4  UNL     1      23.434   2.590  51.590  1.00  0.00     0.092 C 
HETATM    2  C5  UNL     1      23.894   1.545  52.300  1.00  0.00    -0.013 A 
HETATM    3  C6  UNL     1      25.319   1.274  52.210  1.00  0.00     0.030 A 
HETATM    4  C7  UNL     1      25.691   0.233  52.934  1.00  0.00     0.118 A 
HETATM    5  N2  UNL     1      24.779  -0.524  53.708  1.00  0.00    -0.252 NA
HETATM    6  C8  UNL     1      23.510  -0.264  53.776  1.00  0.00     0.141 A 
HETATM    7  C9  UNL     1      22.846  -1.205  54.638  1.00  0.00     0.117 C 
HETATM    8  N3  UNL     1      22.292  -1.955  55.333  1.00  0.00    -0.190 NA
HETATM    9  C10 UNL     1      22.799   0.866  53.055  1.00  0.00     0.179 A 
ENDROOT
BRANCH   9  10
HETATM   10  N4  UNL     1      21.965   0.201  52.074  1.00  0.00    -0.375 N 
HETATM   11  H11 UNL     1      22.425  -0.323  51.273  1.00  0.00     0.160 HD
BRANCH  10  12
HETATM   12  C11 UNL     1      20.548   0.098  51.954  1.00  0.00     0.031 A 
HETATM   13  C12 UNL     1      19.786   0.589  50.886  1.00  0.00     0.029 A 
HETATM   14  C13 UNL     1      18.421   0.436  50.917  1.00  0.00     0.005 A 
HETATM   15  C14 UNL     1      17.720  -0.172  51.932  1.00  0.00     0.036 A 
HETATM   16  C15 UNL     1      18.455  -0.663  52.992  1.00  0.00     0.067 A 
HETATM   17  C16 UNL     1      19.835  -0.519  52.981  1.00  0.00     0.065 A 
BRANCH  16  18
HETATM   18  O1  UNL     1      17.732  -1.268  53.995  1.00  0.00    -0.361 OA
HETATM   19  H15 UNL     1      16.872  -1.797  53.798  1.00  0.00     0.217 HD
ENDBRANCH  16  18
ENDBRANCH  10  12
ENDBRANCH   9  10
BRANCH   1  20
HETATM   20  N1  UNL     1      24.304   3.385  50.792  1.00  0.00    -0.395 N 
HETATM   21  H6  UNL     1      25.241   2.947  51.028  1.00  0.00     0.159 HD
BRANCH  20  22
HETATM   22  C3  UNL     1      24.329   4.501  49.842  1.00  0.00     0.145 C 
BRANCH  22  23
HETATM   23  C2  UNL     1      25.713   4.755  49.338  1.00  0.00    -0.018 C 
HETATM   24  C1  UNL     1      26.766   3.918  49.342  1.00  0.00     0.008 C 
ENDBRANCH  22  23
ENDBRANCH  20  22
ENDBRANCH   1  20
TORSDOF 6
ENDMDL
