MODEL 1
REMARK VINA RESULT:      -8.5      0.000      0.000
REMARK  3 active torsions:
REMARK  status: ('A' for Active; 'I' for Inactive)
REMARK    1  A    between atoms: N1_1  and  C1_2 
REMARK    2  A    between atoms: C5_6  and  N2_7 
REMARK    3  A    between atoms: N2_7  and  C6_8 
ROOT
HETATM    1  C6  UNL     1      24.111  -0.732  53.707  1.00  0.00     0.176 A 
HETATM    2  C7  UNL     1      23.856  -1.372  55.034  1.00  0.00     0.124 A 
HETATM    3  N3  UNL     1      22.605  -1.235  55.329  1.00  0.00    -0.237 NA
HETATM    4  C8  UNL     1      21.935  -0.525  54.278  1.00  0.00     0.194 A 
HETATM    5  C9  UNL     1      22.784  -0.214  53.313  1.00  0.00     0.087 A 
HETATM    6  N4  UNL     1      22.625   0.475  52.078  1.00  0.00    -0.383 N 
HETATM    7  C10 UNL     1      21.451   1.115  51.554  1.00  0.00     0.161 C 
HETATM    8  C11 UNL     1      20.180   0.454  51.944  1.00  0.00    -0.007 A 
HETATM    9  C12 UNL     1      19.267   0.447  50.883  1.00  0.00     0.011 A 
HETATM   10  C13 UNL     1      18.001  -0.098  50.950  1.00  0.00     0.001 A 
HETATM   11  C14 UNL     1      17.629  -0.668  52.143  1.00  0.00     0.003 A 
HETATM   12  C15 UNL     1      18.487  -0.688  53.217  1.00  0.00     0.038 A 
HETATM   13  C16 UNL     1      19.761  -0.131  53.131  1.00  0.00     0.086 A 
HETATM   14  O1  UNL     1      20.567  -0.185  54.239  1.00  0.00    -0.290 OA
HETATM   15  H9  UNL     1      23.469   0.526  51.465  1.00  0.00     0.160 HD
ENDROOT
BRANCH   1  16
HETATM   16  N2  UNL     1      25.043   0.344  53.912  1.00  0.00    -0.375 N 
HETATM   17  H6  UNL     1      24.677   1.272  54.162  1.00  0.00     0.160 HD
BRANCH  16  18
HETATM   18  C5  UNL     1      26.449   0.191  53.787  1.00  0.00     0.030 A 
HETATM   19  C4  UNL     1      27.080  -0.927  53.284  1.00  0.00     0.029 A 
HETATM   20  C3  UNL     1      28.444  -1.054  53.174  1.00  0.00     0.004 A 
HETATM   21  C2  UNL     1      29.266  -0.021  53.581  1.00  0.00     0.029 A 
HETATM   22  C1  UNL     1      28.688   1.119  54.090  1.00  0.00     0.027 A 
HETATM   23  C17 UNL     1      27.317   1.190  54.176  1.00  0.00     0.058 A 
BRANCH  22  24
HETATM   24  N1  UNL     1      29.511   2.219  54.526  1.00  0.00    -0.399 N 
HETATM   25  H1  UNL     1      30.507   1.901  54.561  1.00  0.00     0.156 HD
HETATM   26  H2  UNL     1      29.399   3.226  54.810  1.00  0.00     0.156 HD
ENDBRANCH  22  24
ENDBRANCH  16  18
ENDBRANCH   1  16
TORSDOF 3
ENDMDL
MODEL 2
REMARK VINA RESULT:      -8.4      2.171      7.931
REMARK  3 active torsions:
REMARK  status: ('A' for Active; 'I' for Inactive)
REMARK    1  A    between atoms: N1_1  and  C1_2 
REMARK    2  A    between atoms: C5_6  and  N2_7 
REMARK    3  A    between atoms: N2_7  and  C6_8 
ROOT
HETATM    1  C6  UNL     1      22.834   1.390  52.413  1.00  0.00     0.176 A 
HETATM    2  C7  UNL     1      22.825   2.879  52.286  1.00  0.00     0.124 A 
HETATM    3  N3  UNL     1      23.916   3.347  52.796  1.00  0.00    -0.237 NA
HETATM    4  C8  UNL     1      24.722   2.268  53.289  1.00  0.00     0.194 A 
HETATM    5  C9  UNL     1      24.120   1.108  53.083  1.00  0.00     0.087 A 
HETATM    6  N4  UNL     1      24.492  -0.233  53.381  1.00  0.00    -0.383 N 
HETATM    7  C10 UNL     1      25.649  -0.706  54.088  1.00  0.00     0.161 C 
HETATM    8  C11 UNL     1      26.858   0.133  53.895  1.00  0.00    -0.007 A 
HETATM    9  C12 UNL     1      28.009  -0.655  53.781  1.00  0.00     0.011 A 
HETATM   10  C13 UNL     1      29.281  -0.153  53.596  1.00  0.00     0.001 A 
HETATM   11  C14 UNL     1      29.407   1.212  53.521  1.00  0.00     0.003 A 
HETATM   12  C15 UNL     1      28.310   2.034  53.627  1.00  0.00     0.038 A 
HETATM   13  C16 UNL     1      27.033   1.508  53.815  1.00  0.00     0.086 A 
HETATM   14  O1  UNL     1      25.982   2.382  53.913  1.00  0.00    -0.290 OA
HETATM   15  H9  UNL     1      23.843  -0.979  53.043  1.00  0.00     0.160 HD
ENDROOT
BRANCH   1  16
HETATM   16  N2  UNL     1      21.726   1.015  53.249  1.00  0.00    -0.375 N 
HETATM   17  H6  UNL     1      21.821   1.114  54.268  1.00  0.00     0.160 HD
BRANCH  16  18
HETATM   18  C5  UNL     1      20.499   0.513  52.739  1.00  0.00     0.030 A 
HETATM   19  C4  UNL     1      19.973   0.821  51.502  1.00  0.00     0.029 A 
HETATM   20  C3  UNL     1      18.782   0.326  51.030  1.00  0.00     0.004 A 
HETATM   21  C2  UNL     1      18.038  -0.537  51.811  1.00  0.00     0.029 A 
HETATM   22  C1  UNL     1      18.517  -0.879  53.054  1.00  0.00     0.027 A 
HETATM   23  C17 UNL     1      19.716  -0.352  53.475  1.00  0.00     0.058 A 
BRANCH  22  24
HETATM   24  N1  UNL     1      17.771  -1.777  53.900  1.00  0.00    -0.399 N 
HETATM   25  H1  UNL     1      16.774  -1.460  53.930  1.00  0.00     0.156 HD
HETATM   26  H2  UNL     1      17.937  -2.638  54.480  1.00  0.00     0.156 HD
ENDBRANCH  22  24
ENDBRANCH  16  18
ENDBRANCH   1  16
TORSDOF 3
ENDMDL
MODEL 3
REMARK VINA RESULT:      -8.3      4.287      6.982
REMARK  3 active torsions:
REMARK  status: ('A' for Active; 'I' for Inactive)
REMARK    1  A    between atoms: N1_1  and  C1_2 
REMARK    2  A    between atoms: C5_6  and  N2_7 
REMARK    3  A    between atoms: N2_7  and  C6_8 
ROOT
HETATM    1  C6  UNL     1      25.474   1.701  52.825  1.00  0.00     0.176 A 
HETATM    2  C7  UNL     1      26.943   1.616  53.092  1.00  0.00     0.124 A 
HETATM    3  N3  UNL     1      27.575   2.204  52.129  1.00  0.00    -0.237 NA
HETATM    4  C8  UNL     1      26.636   2.713  51.173  1.00  0.00     0.194 A 
HETATM    5  C9  UNL     1      25.397   2.437  51.546  1.00  0.00     0.087 A 
HETATM    6  N4  UNL     1      24.132   2.717  50.958  1.00  0.00    -0.383 N 
HETATM    7  C10 UNL     1      23.848   3.344  49.698  1.00  0.00     0.161 C 
HETATM    8  C11 UNL     1      24.840   4.375  49.301  1.00  0.00    -0.007 A 
HETATM    9  C12 UNL     1      24.216   5.474  48.700  1.00  0.00     0.011 A 
HETATM   10  C13 UNL     1      24.883   6.586  48.228  1.00  0.00     0.001 A 
HETATM   11  C14 UNL     1      26.249   6.598  48.366  1.00  0.00     0.003 A 
HETATM   12  C15 UNL     1      26.914   5.545  48.948  1.00  0.00     0.038 A 
HETATM   13  C16 UNL     1      26.223   4.429  49.418  1.00  0.00     0.086 A 
HETATM   14  O1  UNL     1      26.945   3.414  49.988  1.00  0.00    -0.290 OA
HETATM   15  H9  UNL     1      23.292   2.432  51.511  1.00  0.00     0.160 HD
ENDROOT
BRANCH   1  16
HETATM   16  N2  UNL     1      24.978   0.359  52.676  1.00  0.00    -0.375 N 
HETATM   17  H6  UNL     1      25.476  -0.283  52.047  1.00  0.00     0.160 HD
BRANCH  16  18
HETATM   18  C5  UNL     1      23.831  -0.128  53.358  1.00  0.00     0.030 A 
HETATM   19  C4  UNL     1      23.859  -0.845  54.535  1.00  0.00     0.029 A 
HETATM   20  C3  UNL     1      22.736  -1.309  55.177  1.00  0.00     0.004 A 
HETATM   21  C2  UNL     1      21.487  -1.062  54.642  1.00  0.00     0.029 A 
HETATM   22  C1  UNL     1      21.402  -0.349  53.469  1.00  0.00     0.027 A 
HETATM   23  C17 UNL     1      22.560   0.091  52.871  1.00  0.00     0.058 A 
BRANCH  22  24
HETATM   24  N1  UNL     1      20.117  -0.069  52.879  1.00  0.00    -0.399 N 
HETATM   25  H1  UNL     1      19.837   0.907  53.129  1.00  0.00     0.156 HD
HETATM   26  H2  UNL     1      19.398  -0.554  52.282  1.00  0.00     0.156 HD
ENDBRANCH  22  24
ENDBRANCH  16  18
ENDBRANCH   1  16
TORSDOF 3
ENDMDL
MODEL 4
REMARK VINA RESULT:      -8.3      2.136      3.338
REMARK  3 active torsions:
REMARK  status: ('A' for Active; 'I' for Inactive)
REMARK    1  A    between atoms: N1_1  and  C1_2 
REMARK    2  A    between atoms: C5_6  and  N2_7 
REMARK    3  A    between atoms: N2_7  and  C6_8 
ROOT
HETATM    1  C6  UNL     1      25.141   2.402  52.032  1.00  0.00     0.176 A 
HETATM    2  C7  UNL     1      24.669   3.301  50.935  1.00  0.00     0.124 A 
HETATM    3  N3  UNL     1      23.548   2.848  50.478  1.00  0.00    -0.237 NA
HETATM    4  C8  UNL     1      23.180   1.660  51.192  1.00  0.00     0.194 A 
HETATM    5  C9  UNL     1      24.089   1.367  52.108  1.00  0.00     0.087 A 
HETATM    6  N4  UNL     1      24.190   0.313  53.058  1.00  0.00    -0.383 N 
HETATM    7  C10 UNL     1      23.325  -0.819  53.237  1.00  0.00     0.161 C 
HETATM    8  C11 UNL     1      21.900  -0.542  52.925  1.00  0.00    -0.007 A 
HETATM    9  C12 UNL     1      21.049  -1.181  53.834  1.00  0.00     0.011 A 
HETATM   10  C13 UNL     1      19.672  -1.108  53.794  1.00  0.00     0.001 A 
HETATM   11  C14 UNL     1      19.116  -0.353  52.791  1.00  0.00     0.003 A 
HETATM   12  C15 UNL     1      19.905   0.296  51.871  1.00  0.00     0.038 A 
HETATM   13  C16 UNL     1      21.295   0.209  51.926  1.00  0.00     0.086 A 
HETATM   14  O1  UNL     1      22.023   0.881  50.979  1.00  0.00    -0.290 OA
HETATM   15  H9  UNL     1      25.001   0.361  53.716  1.00  0.00     0.160 HD
ENDROOT
BRANCH   1  16
HETATM   16  N2  UNL     1      26.395   1.830  51.620  1.00  0.00    -0.375 N 
HETATM   17  H6  UNL     1      26.616   1.799  50.616  1.00  0.00     0.160 HD
BRANCH  16  18
HETATM   18  C5  UNL     1      27.349   1.305  52.532  1.00  0.00     0.030 A 
HETATM   19  C4  UNL     1      28.114   2.060  53.396  1.00  0.00     0.029 A 
HETATM   20  C3  UNL     1      29.034   1.531  54.268  1.00  0.00     0.004 A 
HETATM   21  C2  UNL     1      29.233   0.165  54.312  1.00  0.00     0.029 A 
HETATM   22  C1  UNL     1      28.495  -0.636  53.472  1.00  0.00     0.027 A 
HETATM   23  C17 UNL     1      27.588  -0.050  52.619  1.00  0.00     0.058 A 
BRANCH  22  24
HETATM   24  N1  UNL     1      28.673  -2.066  53.487  1.00  0.00    -0.399 N 
HETATM   25  H1  UNL     1      28.287  -2.463  52.600  1.00  0.00     0.156 HD
HETATM   26  H2  UNL     1      29.071  -2.807  54.119  1.00  0.00     0.156 HD
ENDBRANCH  22  24
ENDBRANCH  16  18
ENDBRANCH   1  16
TORSDOF 3
ENDMDL
MODEL 5
REMARK VINA RESULT:      -8.1      1.505      1.889
REMARK  3 active torsions:
REMARK  status: ('A' for Active; 'I' for Inactive)
REMARK    1  A    between atoms: N1_1  and  C1_2 
REMARK    2  A    between atoms: C5_6  and  N2_7 
REMARK    3  A    between atoms: N2_7  and  C6_8 
ROOT
HETATM    1  C6  UNL     1      23.066  -0.798  53.341  1.00  0.00     0.176 A 
HETATM    2  C7  UNL     1      22.749  -1.351  54.693  1.00  0.00     0.124 A 
HETATM    3  N3  UNL     1      21.489  -1.181  54.927  1.00  0.00    -0.237 NA
HETATM    4  C8  UNL     1      20.873  -0.530  53.807  1.00  0.00     0.194 A 
HETATM    5  C9  UNL     1      21.765  -0.290  52.860  1.00  0.00     0.087 A 
HETATM    6  N4  UNL     1      21.665   0.321  51.580  1.00  0.00    -0.383 N 
HETATM    7  C10 UNL     1      20.523   0.941  50.969  1.00  0.00     0.161 C 
HETATM    8  C11 UNL     1      19.228   0.321  51.346  1.00  0.00    -0.007 A 
HETATM    9  C12 UNL     1      18.358   0.259  50.251  1.00  0.00     0.011 A 
HETATM   10  C13 UNL     1      17.083  -0.266  50.299  1.00  0.00     0.001 A 
HETATM   11  C14 UNL     1      16.655  -0.755  51.509  1.00  0.00     0.003 A 
HETATM   12  C15 UNL     1      17.468  -0.718  52.617  1.00  0.00     0.038 A 
HETATM   13  C16 UNL     1      18.753  -0.183  52.549  1.00  0.00     0.086 A 
HETATM   14  O1  UNL     1      19.512  -0.177  53.691  1.00  0.00    -0.290 OA
HETATM   15  H9  UNL     1      22.535   0.324  51.000  1.00  0.00     0.160 HD
ENDROOT
BRANCH   1  16
HETATM   16  N2  UNL     1      24.005   0.277  53.516  1.00  0.00    -0.375 N 
HETATM   17  H6  UNL     1      23.643   1.230  53.648  1.00  0.00     0.160 HD
BRANCH  16  18
HETATM   18  C5  UNL     1      25.413   0.090  53.519  1.00  0.00     0.030 A 
HETATM   19  C4  UNL     1      26.338   1.066  53.824  1.00  0.00     0.029 A 
HETATM   20  C3  UNL     1      27.697   0.863  53.818  1.00  0.00     0.004 A 
HETATM   21  C2  UNL     1      28.205  -0.379  53.492  1.00  0.00     0.029 A 
HETATM   22  C1  UNL     1      27.326  -1.390  53.179  1.00  0.00     0.027 A 
HETATM   23  C17 UNL     1      25.975  -1.129  53.202  1.00  0.00     0.058 A 
BRANCH  22  24
HETATM   24  N1  UNL     1      27.816  -2.700  52.834  1.00  0.00    -0.399 N 
HETATM   25  H1  UNL     1      28.852  -2.647  52.699  1.00  0.00     0.156 HD
HETATM   26  H2  UNL     1      27.440  -3.671  52.684  1.00  0.00     0.156 HD
ENDBRANCH  22  24
ENDBRANCH  16  18
ENDBRANCH   1  16
TORSDOF 3
ENDMDL
MODEL 6
REMARK VINA RESULT:      -8.1      3.260      4.448
REMARK  3 active torsions:
REMARK  status: ('A' for Active; 'I' for Inactive)
REMARK    1  A    between atoms: N1_1  and  C1_2 
REMARK    2  A    between atoms: C5_6  and  N2_7 
REMARK    3  A    between atoms: N2_7  and  C6_8 
ROOT
HETATM    1  C6  UNL     1      25.024   0.682  52.552  1.00  0.00     0.176 A 
HETATM    2  C7  UNL     1      23.802   0.245  53.292  1.00  0.00     0.124 A 
HETATM    3  N3  UNL     1      22.861   1.108  53.087  1.00  0.00    -0.237 NA
HETATM    4  C8  UNL     1      23.341   2.153  52.231  1.00  0.00     0.194 A 
HETATM    5  C9  UNL     1      24.604   1.938  51.899  1.00  0.00     0.087 A 
HETATM    6  N4  UNL     1      25.520   2.663  51.087  1.00  0.00    -0.383 N 
HETATM    7  C10 UNL     1      25.333   3.929  50.436  1.00  0.00     0.161 C 
HETATM    8  C11 UNL     1      23.940   4.175  49.986  1.00  0.00    -0.007 A 
HETATM    9  C12 UNL     1      23.915   4.813  48.740  1.00  0.00     0.011 A 
HETATM   10  C13 UNL     1      22.762   5.170  48.071  1.00  0.00     0.001 A 
HETATM   11  C14 UNL     1      21.569   4.870  48.682  1.00  0.00     0.003 A 
HETATM   12  C15 UNL     1      21.535   4.245  49.906  1.00  0.00     0.038 A 
HETATM   13  C16 UNL     1      22.711   3.893  50.567  1.00  0.00     0.086 A 
HETATM   14  O1  UNL     1      22.607   3.272  51.784  1.00  0.00    -0.290 OA
HETATM   15  H9  UNL     1      26.456   2.222  50.940  1.00  0.00     0.160 HD
ENDROOT
BRANCH   1  16
HETATM   16  N2  UNL     1      26.058   0.927  53.521  1.00  0.00    -0.375 N 
HETATM   17  H6  UNL     1      25.884   1.617  54.263  1.00  0.00     0.160 HD
BRANCH  16  18
HETATM   18  C5  UNL     1      27.314   0.263  53.507  1.00  0.00     0.030 A 
HETATM   19  C4  UNL     1      28.535   0.880  53.675  1.00  0.00     0.029 A 
HETATM   20  C3  UNL     1      29.739   0.218  53.655  1.00  0.00     0.004 A 
HETATM   21  C2  UNL     1      29.768  -1.148  53.457  1.00  0.00     0.029 A 
HETATM   22  C1  UNL     1      28.577  -1.815  53.284  1.00  0.00     0.027 A 
HETATM   23  C17 UNL     1      27.402  -1.099  53.314  1.00  0.00     0.058 A 
BRANCH  22  24
HETATM   24  N1  UNL     1      28.565  -3.241  53.075  1.00  0.00    -0.399 N 
HETATM   25  H1  UNL     1      27.587  -3.541  52.858  1.00  0.00     0.156 HD
HETATM   26  H2  UNL     1      29.242  -4.047  53.078  1.00  0.00     0.156 HD
ENDBRANCH  22  24
ENDBRANCH  16  18
ENDBRANCH   1  16
TORSDOF 3
ENDMDL
MODEL 7
REMARK VINA RESULT:      -8.0      2.008      7.717
REMARK  3 active torsions:
REMARK  status: ('A' for Active; 'I' for Inactive)
REMARK    1  A    between atoms: N1_1  and  C1_2 
REMARK    2  A    between atoms: C5_6  and  N2_7 
REMARK    3  A    between atoms: N2_7  and  C6_8 
ROOT
HETATM    1  C6  UNL     1      22.575   0.047  53.694  1.00  0.00     0.176 A 
HETATM    2  C7  UNL     1      22.521  -0.962  54.796  1.00  0.00     0.124 A 
HETATM    3  N3  UNL     1      23.727  -1.323  55.088  1.00  0.00    -0.237 NA
HETATM    4  C8  UNL     1      24.658  -0.624  54.251  1.00  0.00     0.194 A 
HETATM    5  C9  UNL     1      24.020   0.185  53.422  1.00  0.00     0.087 A 
HETATM    6  N4  UNL     1      24.475   1.078  52.412  1.00  0.00    -0.383 N 
HETATM    7  C10 UNL     1      25.815   1.298  51.946  1.00  0.00     0.161 C 
HETATM    8  C11 UNL     1      26.851   1.139  52.998  1.00  0.00    -0.007 A 
HETATM    9  C12 UNL     1      27.859   2.101  52.866  1.00  0.00     0.011 A 
HETATM   10  C13 UNL     1      28.954   2.200  53.699  1.00  0.00     0.001 A 
HETATM   11  C14 UNL     1      29.045   1.287  54.720  1.00  0.00     0.003 A 
HETATM   12  C15 UNL     1      28.084   0.320  54.896  1.00  0.00     0.038 A 
HETATM   13  C16 UNL     1      26.985   0.235  54.043  1.00  0.00     0.086 A 
HETATM   14  O1  UNL     1      26.063  -0.753  54.273  1.00  0.00    -0.290 OA
HETATM   15  H9  UNL     1      23.741   1.656  51.941  1.00  0.00     0.160 HD
ENDROOT
BRANCH   1  16
HETATM   16  N2  UNL     1      21.889  -0.508  52.558  1.00  0.00    -0.375 N 
HETATM   17  H6  UNL     1      22.427  -1.061  51.879  1.00  0.00     0.160 HD
BRANCH  16  18
HETATM   18  C5  UNL     1      20.498  -0.334  52.325  1.00  0.00     0.030 A 
HETATM   19  C4  UNL     1      19.957   0.437  51.319  1.00  0.00     0.029 A 
HETATM   20  C3  UNL     1      18.608   0.594  51.114  1.00  0.00     0.004 A 
HETATM   21  C2  UNL     1      17.707  -0.044  51.944  1.00  0.00     0.029 A 
HETATM   22  C1  UNL     1      18.193  -0.827  52.965  1.00  0.00     0.027 A 
HETATM   23  C17 UNL     1      19.555  -0.948  53.123  1.00  0.00     0.058 A 
BRANCH  22  24
HETATM   24  N1  UNL     1      17.287  -1.510  53.854  1.00  0.00    -0.399 N 
HETATM   25  H1  UNL     1      17.739  -1.598  54.793  1.00  0.00     0.156 HD
HETATM   26  H2  UNL     1      16.324  -1.933  53.829  1.00  0.00     0.156 HD
ENDBRANCH  22  24
ENDBRANCH  16  18
ENDBRANCH   1  16
TORSDOF 3
ENDMDL
MODEL 8
REMARK VINA RESULT:      -8.0      5.287      7.092
REMARK  3 active torsions:
REMARK  status: ('A' for Active; 'I' for Inactive)
REMARK    1  A    between atoms: N1_1  and  C1_2 
REMARK    2  A    between atoms: C5_6  and  N2_7 
REMARK    3  A    between atoms: N2_7  and  C6_8 
ROOT
HETATM    1  C6  UNL     1      23.831   5.316  51.566  1.00  0.00     0.176 A 
HETATM    2  C7  UNL     1      22.397   5.120  51.943  1.00  0.00     0.124 A 
HETATM    3  N3  UNL     1      22.169   3.853  52.064  1.00  0.00    -0.237 NA
HETATM    4  C8  UNL     1      23.369   3.117  51.794  1.00  0.00     0.194 A 
HETATM    5  C9  UNL     1      24.362   3.939  51.498  1.00  0.00     0.087 A 
HETATM    6  N4  UNL     1      25.726   3.716  51.159  1.00  0.00    -0.383 N 
HETATM    7  C10 UNL     1      26.408   2.467  50.966  1.00  0.00     0.161 C 
HETATM    8  C11 UNL     1      25.903   1.366  51.824  1.00  0.00    -0.007 A 
HETATM    9  C12 UNL     1      26.953   0.567  52.293  1.00  0.00     0.011 A 
HETATM   10  C13 UNL     1      26.788  -0.533  53.110  1.00  0.00     0.001 A 
HETATM   11  C14 UNL     1      25.503  -0.848  53.479  1.00  0.00     0.003 A 
HETATM   12  C15 UNL     1      24.436  -0.098  53.047  1.00  0.00     0.038 A 
HETATM   13  C16 UNL     1      24.622   1.008  52.221  1.00  0.00     0.086 A 
HETATM   14  O1  UNL     1      23.515   1.714  51.826  1.00  0.00    -0.290 OA
HETATM   15  H9  UNL     1      26.316   4.569  51.033  1.00  0.00     0.160 HD
ENDROOT
BRANCH   1  16
HETATM   16  N2  UNL     1      23.861   5.944  50.273  1.00  0.00    -0.375 N 
HETATM   17  H6  UNL     1      23.010   5.925  49.696  1.00  0.00     0.160 HD
BRANCH  16  18
HETATM   18  C5  UNL     1      25.011   6.592  49.748  1.00  0.00     0.030 A 
HETATM   19  C4  UNL     1      25.569   6.333  48.514  1.00  0.00     0.029 A 
HETATM   20  C3  UNL     1      26.684   6.971  48.028  1.00  0.00     0.004 A 
HETATM   21  C2  UNL     1      27.311   7.938  48.790  1.00  0.00     0.029 A 
HETATM   22  C1  UNL     1      26.794   8.237  50.029  1.00  0.00     0.027 A 
HETATM   23  C17 UNL     1      25.675   7.565  50.465  1.00  0.00     0.058 A 
BRANCH  22  24
HETATM   24  N1  UNL     1      27.419   9.239  50.856  1.00  0.00    -0.399 N 
HETATM   25  H1  UNL     1      26.738   9.541  51.590  1.00  0.00     0.156 HD
HETATM   26  H2  UNL     1      28.341   9.740  50.930  1.00  0.00     0.156 HD
ENDBRANCH  22  24
ENDBRANCH  16  18
ENDBRANCH   1  16
TORSDOF 3
ENDMDL
MODEL 9
REMARK VINA RESULT:      -7.7      2.545      8.005
REMARK  3 active torsions:
REMARK  status: ('A' for Active; 'I' for Inactive)
REMARK    1  A    between atoms: N1_1  and  C1_2 
REMARK    2  A    between atoms: C5_6  and  N2_7 
REMARK    3  A    between atoms: N2_7  and  C6_8 
ROOT
HETATM    1  C6  UNL     1      21.063   0.749  50.373  1.00  0.00     0.176 A 
HETATM    2  C7  UNL     1      21.425   1.733  49.308  1.00  0.00     0.124 A 
HETATM    3  N3  UNL     1      22.587   2.230  49.579  1.00  0.00    -0.237 NA
HETATM    4  C8  UNL     1      23.089   1.653  50.792  1.00  0.00     0.194 A 
HETATM    5  C9  UNL     1      22.224   0.782  51.285  1.00  0.00     0.087 A 
HETATM    6  N4  UNL     1      22.246  -0.042  52.445  1.00  0.00    -0.383 N 
HETATM    7  C10 UNL     1      23.234  -0.098  53.485  1.00  0.00     0.161 C 
HETATM    8  C11 UNL     1      24.617   0.170  53.018  1.00  0.00    -0.007 A 
HETATM    9  C12 UNL     1      25.539  -0.667  53.657  1.00  0.00     0.011 A 
HETATM   10  C13 UNL     1      26.899  -0.646  53.427  1.00  0.00     0.001 A 
HETATM   11  C14 UNL     1      27.361   0.262  52.505  1.00  0.00     0.003 A 
HETATM   12  C15 UNL     1      26.500   1.108  51.849  1.00  0.00     0.038 A 
HETATM   13  C16 UNL     1      25.129   1.073  52.096  1.00  0.00     0.086 A 
HETATM   14  O1  UNL     1      24.325   1.944  51.407  1.00  0.00    -0.290 OA
HETATM   15  H9  UNL     1      21.439  -0.696  52.562  1.00  0.00     0.160 HD
ENDROOT
BRANCH   1  16
HETATM   16  N2  UNL     1      19.878   1.231  51.030  1.00  0.00    -0.375 N 
HETATM   17  H6  UNL     1      19.845   2.215  51.327  1.00  0.00     0.160 HD
BRANCH  16  18
HETATM   18  C5  UNL     1      18.745   0.416  51.292  1.00  0.00     0.030 A 
HETATM   19  C4  UNL     1      17.641   0.312  50.472  1.00  0.00     0.029 A 
HETATM   20  C3  UNL     1      16.554  -0.481  50.747  1.00  0.00     0.004 A 
HETATM   21  C2  UNL     1      16.527  -1.236  51.904  1.00  0.00     0.029 A 
HETATM   22  C1  UNL     1      17.604  -1.170  52.758  1.00  0.00     0.027 A 
HETATM   23  C17 UNL     1      18.666  -0.358  52.431  1.00  0.00     0.058 A 
BRANCH  22  24
HETATM   24  N1  UNL     1      17.615  -1.941  53.975  1.00  0.00    -0.399 N 
HETATM   25  H1  UNL     1      18.573  -2.338  54.113  1.00  0.00     0.156 HD
HETATM   26  H2  UNL     1      16.953  -2.211  54.747  1.00  0.00     0.156 HD
ENDBRANCH  22  24
ENDBRANCH  16  18
ENDBRANCH   1  16
TORSDOF 3
ENDMDL
