MODEL 1
REMARK VINA RESULT:      -7.3      0.000      0.000
REMARK  11 active torsions:
REMARK  status: ('A' for Active; 'I' for Inactive)
REMARK    1  A    between atoms: C3_3  and  N1_4 
REMARK    2  A    between atoms: N1_4  and  C4_5 
REMARK    3  A    between atoms: C12_15  and  C13_16 
REMARK    4  A    between atoms: C13_16  and  C14_17 
REMARK    5  A    between atoms: C14_17  and  O1_18 
REMARK    6  A    between atoms: O1_18  and  C15_19 
REMARK    7  A    between atoms: C15_19  and  C16_20 
REMARK       I    between atoms: C16_20  and  N4_22 
REMARK    8  A    between atoms: N4_22  and  C17_23 
REMARK    9  A    between atoms: C17_23  and  C18_24 
REMARK   10  A    between atoms: C18_24  and  C19_25 
REMARK   11  A    between atoms: C19_25  and  N5_26 
ROOT
HETATM    1  C13 UNL     1      23.251   6.026  50.762  1.00  0.00     0.031 C 
ENDROOT
BRANCH   1   2
HETATM    2  C12 UNL     1      22.891   4.849  50.326  1.00  0.00     0.066 A 
HETATM    3  C2  UNL     1      22.189   3.983  51.127  1.00  0.00     0.017 A 
HETATM    4  C1  UNL     1      21.915   4.411  52.323  1.00  0.00     0.049 C 
HETATM    5  C3  UNL     1      21.773   2.728  50.744  1.00  0.00     0.138 A 
HETATM    6  N2  UNL     1      22.091   2.350  49.486  1.00  0.00    -0.224 NA
HETATM    7  C11 UNL     1      22.780   3.192  48.690  1.00  0.00     0.235 A 
HETATM    8  N3  UNL     1      23.176   4.415  49.085  1.00  0.00    -0.242 NA
BRANCH   5   9
HETATM    9  N1  UNL     1      21.044   1.955  51.711  1.00  0.00    -0.340 N 
HETATM   10  H3  UNL     1      19.992   2.093  51.670  1.00  0.00     0.167 HD
BRANCH   9  11
HETATM   11  C4  UNL     1      21.598   1.079  52.650  1.00  0.00     0.033 A 
HETATM   12  C5  UNL     1      22.932   0.728  52.595  1.00  0.00     0.030 A 
HETATM   13  C6  UNL     1      23.480  -0.139  53.515  1.00  0.00     0.009 A 
HETATM   14  C7  UNL     1      22.691  -0.676  54.520  1.00  0.00    -0.062 A 
HETATM   15  C8  UNL     1      23.130  -1.618  55.579  1.00  0.00     0.048 C 
HETATM   16  C9  UNL     1      21.357  -0.298  54.538  1.00  0.00     0.009 A 
HETATM   17  C10 UNL     1      20.773   0.567  53.635  1.00  0.00     0.030 A 
ENDBRANCH   9  11
ENDBRANCH   5   9
ENDBRANCH   1   2
BRANCH   1  18
HETATM   18  C14 UNL     1      23.934   7.120  50.034  1.00  0.00     0.198 C 
BRANCH  18  19
HETATM   19  O1  UNL     1      25.253   7.162  50.545  1.00  0.00    -0.378 OA
BRANCH  19  20
HETATM   20  C15 UNL     1      26.109   6.946  49.455  1.00  0.00     0.270 C 
BRANCH  20  21
HETATM   21  C16 UNL     1      26.544   5.544  49.355  1.00  0.00     0.241 C 
HETATM   22  O2  UNL     1      27.349   5.475  48.404  1.00  0.00    -0.271 OA
HETATM   23  N4  UNL     1      26.242   4.374  50.073  1.00  0.00    -0.359 N 
HETATM   24  H17 UNL     1      25.542   4.780  50.782  1.00  0.00     0.162 HD
BRANCH  23  25
HETATM   25  C17 UNL     1      26.487   2.981  50.216  1.00  0.00     0.124 C 
BRANCH  25  26
HETATM   26  C18 UNL     1      26.735   2.497  51.590  1.00  0.00     0.050 C 
BRANCH  26  27
HETATM   27  C19 UNL     1      26.729   1.024  51.762  1.00  0.00     0.274 C 
BRANCH  27  28
HETATM   28  N5  UNL     1      27.219   0.588  53.048  1.00  0.00     0.092 N 
HETATM   29  C20 UNL     1      28.084   1.556  53.628  1.00  0.00     0.298 C 
HETATM   30  C21 UNL     1      29.162   0.975  54.474  1.00  0.00     0.198 C 
HETATM   31  O3  UNL     1      29.867   0.071  53.651  1.00  0.00    -0.388 OA
HETATM   32  C22 UNL     1      29.035  -1.032  53.538  1.00  0.00     0.198 C 
HETATM   33  C23 UNL     1      27.689  -0.747  52.960  1.00  0.00     0.298 C 
ENDBRANCH  27  28
ENDBRANCH  26  27
ENDBRANCH  25  26
ENDBRANCH  23  25
ENDBRANCH  20  21
ENDBRANCH  19  20
ENDBRANCH  18  19
ENDBRANCH   1  18
TORSDOF 11
ENDMDL
MODEL 2
REMARK VINA RESULT:      -7.3      2.954      6.709
REMARK  11 active torsions:
REMARK  status: ('A' for Active; 'I' for Inactive)
REMARK    1  A    between atoms: C3_3  and  N1_4 
REMARK    2  A    between atoms: N1_4  and  C4_5 
REMARK    3  A    between atoms: C12_15  and  C13_16 
REMARK    4  A    between atoms: C13_16  and  C14_17 
REMARK    5  A    between atoms: C14_17  and  O1_18 
REMARK    6  A    between atoms: O1_18  and  C15_19 
REMARK    7  A    between atoms: C15_19  and  C16_20 
REMARK       I    between atoms: C16_20  and  N4_22 
REMARK    8  A    between atoms: N4_22  and  C17_23 
REMARK    9  A    between atoms: C17_23  and  C18_24 
REMARK   10  A    between atoms: C18_24  and  C19_25 
REMARK   11  A    between atoms: C19_25  and  N5_26 
ROOT
HETATM    1  C13 UNL     1      19.817  -0.102  52.612  1.00  0.00     0.031 C 
ENDROOT
BRANCH   1   2
HETATM    2  C12 UNL     1      21.055   0.258  52.407  1.00  0.00     0.066 A 
HETATM    3  C2  UNL     1      22.059  -0.158  53.247  1.00  0.00     0.017 A 
HETATM    4  C1  UNL     1      21.695  -0.919  54.235  1.00  0.00     0.049 C 
HETATM    5  C3  UNL     1      23.387   0.175  53.101  1.00  0.00     0.138 A 
HETATM    6  N2  UNL     1      23.693   0.968  52.050  1.00  0.00    -0.224 NA
HETATM    7  C11 UNL     1      22.716   1.383  51.219  1.00  0.00     0.235 A 
HETATM    8  N3  UNL     1      21.425   1.044  51.380  1.00  0.00    -0.242 NA
BRANCH   5   9
HETATM    9  N1  UNL     1      24.306  -0.352  54.070  1.00  0.00    -0.340 N 
HETATM   10  H3  UNL     1      23.843  -0.702  54.960  1.00  0.00     0.167 HD
BRANCH   9  11
HETATM   11  C4  UNL     1      25.695  -0.433  53.928  1.00  0.00     0.033 A 
HETATM   12  C5  UNL     1      26.264  -1.185  52.919  1.00  0.00     0.030 A 
HETATM   13  C6  UNL     1      27.632  -1.271  52.780  1.00  0.00     0.009 A 
HETATM   14  C7  UNL     1      28.466  -0.596  53.658  1.00  0.00    -0.062 A 
HETATM   15  C8  UNL     1      29.950  -0.589  53.639  1.00  0.00     0.048 C 
HETATM   16  C9  UNL     1      27.853   0.147  54.656  1.00  0.00     0.009 A 
HETATM   17  C10 UNL     1      26.487   0.257  54.828  1.00  0.00     0.030 A 
ENDBRANCH   9  11
ENDBRANCH   5   9
ENDBRANCH   1   2
BRANCH   1  18
HETATM   18  C14 UNL     1      18.678  -0.099  51.665  1.00  0.00     0.198 C 
BRANCH  18  19
HETATM   19  O1  UNL     1      17.805   0.920  52.112  1.00  0.00    -0.378 OA
BRANCH  19  20
HETATM   20  C15 UNL     1      17.729   1.863  51.076  1.00  0.00     0.270 C 
BRANCH  20  21
HETATM   21  C16 UNL     1      18.468   3.096  51.387  1.00  0.00     0.241 C 
HETATM   22  O2  UNL     1      17.704   3.826  52.050  1.00  0.00    -0.271 OA
HETATM   23  N4  UNL     1      19.764   3.558  51.096  1.00  0.00    -0.359 N 
HETATM   24  H17 UNL     1      20.125   2.718  50.529  1.00  0.00     0.162 HD
BRANCH  23  25
HETATM   25  C17 UNL     1      20.703   4.614  51.253  1.00  0.00     0.124 C 
BRANCH  25  26
HETATM   26  C18 UNL     1      21.670   4.799  50.151  1.00  0.00     0.050 C 
BRANCH  26  27
HETATM   27  C19 UNL     1      23.081   4.998  50.561  1.00  0.00     0.274 C 
BRANCH  27  28
HETATM   28  N5  UNL     1      24.026   4.850  49.481  1.00  0.00     0.092 N 
HETATM   29  C20 UNL     1      25.241   4.265  49.933  1.00  0.00     0.298 C 
HETATM   30  C21 UNL     1      26.448   4.730  49.196  1.00  0.00     0.198 C 
HETATM   31  O3  UNL     1      26.469   6.136  49.316  1.00  0.00    -0.388 OA
HETATM   32  C22 UNL     1      25.478   6.582  48.454  1.00  0.00     0.198 C 
HETATM   33  C23 UNL     1      24.111   6.058  48.743  1.00  0.00     0.298 C 
ENDBRANCH  27  28
ENDBRANCH  26  27
ENDBRANCH  25  26
ENDBRANCH  23  25
ENDBRANCH  20  21
ENDBRANCH  19  20
ENDBRANCH  18  19
ENDBRANCH   1  18
TORSDOF 11
ENDMDL
MODEL 3
REMARK VINA RESULT:      -7.3      2.787      6.365
REMARK  11 active torsions:
REMARK  status: ('A' for Active; 'I' for Inactive)
REMARK    1  A    between atoms: C3_3  and  N1_4 
REMARK    2  A    between atoms: N1_4  and  C4_5 
REMARK    3  A    between atoms: C12_15  and  C13_16 
REMARK    4  A    between atoms: C13_16  and  C14_17 
REMARK    5  A    between atoms: C14_17  and  O1_18 
REMARK    6  A    between atoms: O1_18  and  C15_19 
REMARK    7  A    between atoms: C15_19  and  C16_20 
REMARK       I    between atoms: C16_20  and  N4_22 
REMARK    8  A    between atoms: N4_22  and  C17_23 
REMARK    9  A    between atoms: C17_23  and  C18_24 
REMARK   10  A    between atoms: C18_24  and  C19_25 
REMARK   11  A    between atoms: C19_25  and  N5_26 
ROOT
HETATM    1  C13 UNL     1      20.267   2.347  51.451  1.00  0.00     0.031 C 
ENDROOT
BRANCH   1   2
HETATM    2  C12 UNL     1      21.190   2.448  50.533  1.00  0.00     0.066 A 
HETATM    3  C2  UNL     1      22.449   2.901  50.844  1.00  0.00     0.017 A 
HETATM    4  C1  UNL     1      22.649   3.213  52.089  1.00  0.00     0.049 C 
HETATM    5  C3  UNL     1      23.476   3.035  49.937  1.00  0.00     0.138 A 
HETATM    6  N2  UNL     1      23.197   2.690  48.661  1.00  0.00    -0.224 NA
HETATM    7  C11 UNL     1      21.964   2.244  48.344  1.00  0.00     0.235 A 
HETATM    8  N3  UNL     1      20.976   2.120  49.246  1.00  0.00    -0.242 NA
BRANCH   5   9
HETATM    9  N1  UNL     1      24.732   3.521  50.436  1.00  0.00    -0.340 N 
HETATM   10  H3  UNL     1      24.965   3.190  51.418  1.00  0.00     0.167 HD
BRANCH   9  11
HETATM   11  C4  UNL     1      25.622   4.355  49.751  1.00  0.00     0.033 A 
HETATM   12  C5  UNL     1      26.857   3.894  49.343  1.00  0.00     0.030 A 
HETATM   13  C6  UNL     1      27.738   4.715  48.673  1.00  0.00     0.009 A 
HETATM   14  C7  UNL     1      27.392   6.029  48.396  1.00  0.00    -0.062 A 
HETATM   15  C8  UNL     1      28.227   7.031  47.687  1.00  0.00     0.048 C 
HETATM   16  C9  UNL     1      26.143   6.450  48.824  1.00  0.00     0.009 A 
HETATM   17  C10 UNL     1      25.233   5.658  49.497  1.00  0.00     0.030 A 
ENDBRANCH   9  11
ENDBRANCH   5   9
ENDBRANCH   1   2
BRANCH   1  18
HETATM   18  C14 UNL     1      19.315   1.240  51.696  1.00  0.00     0.198 C 
BRANCH  18  19
HETATM   19  O1  UNL     1      20.107   0.088  51.912  1.00  0.00    -0.378 OA
BRANCH  19  20
HETATM   20  C15 UNL     1      19.824  -0.351  53.214  1.00  0.00     0.270 C 
BRANCH  20  21
HETATM   21  C16 UNL     1      21.019  -0.860  53.905  1.00  0.00     0.241 C 
HETATM   22  O2  UNL     1      20.655  -1.820  54.613  1.00  0.00    -0.271 OA
HETATM   23  N4  UNL     1      22.376  -0.491  53.909  1.00  0.00    -0.359 N 
HETATM   24  H17 UNL     1      22.333   0.339  53.226  1.00  0.00     0.162 HD
BRANCH  23  25
HETATM   25  C17 UNL     1      23.673  -0.770  54.420  1.00  0.00     0.124 C 
BRANCH  25  26
HETATM   26  C18 UNL     1      24.800  -0.076  53.762  1.00  0.00     0.050 C 
BRANCH  26  27
HETATM   27  C19 UNL     1      26.096  -0.131  54.481  1.00  0.00     0.274 C 
BRANCH  27  28
HETATM   28  N5  UNL     1      27.229   0.228  53.664  1.00  0.00     0.092 N 
HETATM   29  C20 UNL     1      28.448  -0.216  54.246  1.00  0.00     0.298 C 
HETATM   30  C21 UNL     1      29.612   0.668  53.961  1.00  0.00     0.198 C 
HETATM   31  O3  UNL     1      29.253   1.954  54.419  1.00  0.00    -0.388 OA
HETATM   32  C22 UNL     1      28.357   2.431  53.473  1.00  0.00     0.198 C 
HETATM   33  C23 UNL     1      27.138   1.591  53.283  1.00  0.00     0.298 C 
ENDBRANCH  27  28
ENDBRANCH  26  27
ENDBRANCH  25  26
ENDBRANCH  23  25
ENDBRANCH  20  21
ENDBRANCH  19  20
ENDBRANCH  18  19
ENDBRANCH   1  18
TORSDOF 11
ENDMDL
MODEL 4
REMARK VINA RESULT:      -7.2      4.330      5.697
REMARK  11 active torsions:
REMARK  status: ('A' for Active; 'I' for Inactive)
REMARK    1  A    between atoms: C3_3  and  N1_4 
REMARK    2  A    between atoms: N1_4  and  C4_5 
REMARK    3  A    between atoms: C12_15  and  C13_16 
REMARK    4  A    between atoms: C13_16  and  C14_17 
REMARK    5  A    between atoms: C14_17  and  O1_18 
REMARK    6  A    between atoms: O1_18  and  C15_19 
REMARK    7  A    between atoms: C15_19  and  C16_20 
REMARK       I    between atoms: C16_20  and  N4_22 
REMARK    8  A    between atoms: N4_22  and  C17_23 
REMARK    9  A    between atoms: C17_23  and  C18_24 
REMARK   10  A    between atoms: C18_24  and  C19_25 
REMARK   11  A    between atoms: C19_25  and  N5_26 
ROOT
HETATM    1  C13 UNL     1      26.340   5.679  49.085  1.00  0.00     0.031 C 
ENDROOT
BRANCH   1   2
HETATM    2  C12 UNL     1      25.512   5.199  49.972  1.00  0.00     0.066 A 
HETATM    3  C2  UNL     1      25.529   3.867  50.306  1.00  0.00     0.017 A 
HETATM    4  C1  UNL     1      26.410   3.138  49.689  1.00  0.00     0.049 C 
HETATM    5  C3  UNL     1      24.692   3.283  51.229  1.00  0.00     0.138 A 
HETATM    6  N2  UNL     1      23.802   4.102  51.833  1.00  0.00    -0.224 NA
HETATM    7  C11 UNL     1      23.776   5.411  51.514  1.00  0.00     0.235 A 
HETATM    8  N3  UNL     1      24.604   5.961  50.609  1.00  0.00    -0.242 NA
BRANCH   5   9
HETATM    9  N1  UNL     1      24.849   1.874  51.459  1.00  0.00    -0.340 N 
HETATM   10  H3  UNL     1      25.747   1.469  51.063  1.00  0.00     0.167 HD
BRANCH   9  11
HETATM   11  C4  UNL     1      23.948   1.045  52.136  1.00  0.00     0.033 A 
HETATM   12  C5  UNL     1      22.644   0.910  51.704  1.00  0.00     0.030 A 
HETATM   13  C6  UNL     1      21.752   0.099  52.371  1.00  0.00     0.009 A 
HETATM   14  C7  UNL     1      22.157  -0.602  53.497  1.00  0.00    -0.062 A 
HETATM   15  C8  UNL     1      21.320  -1.510  54.320  1.00  0.00     0.048 C 
HETATM   16  C9  UNL     1      23.474  -0.437  53.896  1.00  0.00     0.009 A 
HETATM   17  C10 UNL     1      24.396   0.366  53.255  1.00  0.00     0.030 A 
ENDBRANCH   9  11
ENDBRANCH   5   9
ENDBRANCH   1   2
BRANCH   1  18
HETATM   18  C14 UNL     1      26.379   7.033  48.485  1.00  0.00     0.198 C 
BRANCH  18  19
HETATM   19  O1  UNL     1      27.720   7.242  48.087  1.00  0.00    -0.378 OA
BRANCH  19  20
HETATM   20  C15 UNL     1      28.352   5.990  48.144  1.00  0.00     0.270 C 
BRANCH  20  21
HETATM   21  C16 UNL     1      29.777   6.099  48.490  1.00  0.00     0.241 C 
HETATM   22  O2  UNL     1      30.322   5.029  48.150  1.00  0.00    -0.271 OA
HETATM   23  N4  UNL     1      30.566   7.102  49.082  1.00  0.00    -0.359 N 
HETATM   24  H17 UNL     1      29.806   7.845  49.247  1.00  0.00     0.162 HD
BRANCH  23  25
HETATM   25  C17 UNL     1      31.868   7.482  49.507  1.00  0.00     0.124 C 
BRANCH  25  26
HETATM   26  C18 UNL     1      32.958   7.289  48.529  1.00  0.00     0.050 C 
BRANCH  26  27
HETATM   27  C19 UNL     1      33.710   6.017  48.648  1.00  0.00     0.274 C 
BRANCH  27  28
HETATM   28  N5  UNL     1      34.091   5.446  47.379  1.00  0.00     0.092 N 
HETATM   29  C20 UNL     1      33.124   5.726  46.375  1.00  0.00     0.298 C 
HETATM   30  C21 UNL     1      32.996   4.659  45.344  1.00  0.00     0.198 C 
HETATM   31  O3  UNL     1      32.697   3.469  46.040  1.00  0.00    -0.388 OA
HETATM   32  C22 UNL     1      33.895   3.088  46.627  1.00  0.00     0.198 C 
HETATM   33  C23 UNL     1      34.487   4.096  47.555  1.00  0.00     0.298 C 
ENDBRANCH  27  28
ENDBRANCH  26  27
ENDBRANCH  25  26
ENDBRANCH  23  25
ENDBRANCH  20  21
ENDBRANCH  19  20
ENDBRANCH  18  19
ENDBRANCH   1  18
TORSDOF 11
ENDMDL
MODEL 5
REMARK VINA RESULT:      -7.0      2.818      6.738
REMARK  11 active torsions:
REMARK  status: ('A' for Active; 'I' for Inactive)
REMARK    1  A    between atoms: C3_3  and  N1_4 
REMARK    2  A    between atoms: N1_4  and  C4_5 
REMARK    3  A    between atoms: C12_15  and  C13_16 
REMARK    4  A    between atoms: C13_16  and  C14_17 
REMARK    5  A    between atoms: C14_17  and  O1_18 
REMARK    6  A    between atoms: O1_18  and  C15_19 
REMARK    7  A    between atoms: C15_19  and  C16_20 
REMARK       I    between atoms: C16_20  and  N4_22 
REMARK    8  A    between atoms: N4_22  and  C17_23 
REMARK    9  A    between atoms: C17_23  and  C18_24 
REMARK   10  A    between atoms: C18_24  and  C19_25 
REMARK   11  A    between atoms: C19_25  and  N5_26 
ROOT
HETATM    1  C13 UNL     1      20.098  -0.060  52.373  1.00  0.00     0.031 C 
ENDROOT
BRANCH   1   2
HETATM    2  C12 UNL     1      21.342   0.317  52.262  1.00  0.00     0.066 A 
HETATM    3  C2  UNL     1      22.306  -0.173  53.108  1.00  0.00     0.017 A 
HETATM    4  C1  UNL     1      21.899  -1.020  54.005  1.00  0.00     0.049 C 
HETATM    5  C3  UNL     1      23.638   0.173  53.058  1.00  0.00     0.138 A 
HETATM    6  N2  UNL     1      23.991   1.058  52.099  1.00  0.00    -0.224 NA
HETATM    7  C11 UNL     1      23.053   1.546  51.262  1.00  0.00     0.235 A 
HETATM    8  N3  UNL     1      21.757   1.193  51.330  1.00  0.00    -0.242 NA
BRANCH   5   9
HETATM    9  N1  UNL     1      24.512  -0.439  54.019  1.00  0.00    -0.340 N 
HETATM   10  H3  UNL     1      24.006  -0.894  54.835  1.00  0.00     0.167 HD
BRANCH   9  11
HETATM   11  C4  UNL     1      25.908  -0.476  53.955  1.00  0.00     0.033 A 
HETATM   12  C5  UNL     1      26.680   0.264  54.828  1.00  0.00     0.030 A 
HETATM   13  C6  UNL     1      28.056   0.235  54.763  1.00  0.00     0.009 A 
HETATM   14  C7  UNL     1      28.692  -0.548  53.812  1.00  0.00    -0.062 A 
HETATM   15  C8  UNL     1      30.157  -0.685  53.616  1.00  0.00     0.048 C 
HETATM   16  C9  UNL     1      27.879  -1.275  52.956  1.00  0.00     0.009 A 
HETATM   17  C10 UNL     1      26.499  -1.271  52.989  1.00  0.00     0.030 A 
ENDBRANCH   9  11
ENDBRANCH   5   9
ENDBRANCH   1   2
BRANCH   1  18
HETATM   18  C14 UNL     1      18.867   0.664  51.979  1.00  0.00     0.198 C 
BRANCH  18  19
HETATM   19  O1  UNL     1      18.640   0.333  50.622  1.00  0.00    -0.378 OA
BRANCH  19  20
HETATM   20  C15 UNL     1      18.144   1.493  50.007  1.00  0.00     0.270 C 
BRANCH  20  21
HETATM   21  C16 UNL     1      19.204   2.272  49.348  1.00  0.00     0.241 C 
HETATM   22  O2  UNL     1      19.198   3.409  49.860  1.00  0.00    -0.271 OA
HETATM   23  N4  UNL     1      20.137   1.990  48.335  1.00  0.00    -0.359 N 
HETATM   24  H17 UNL     1      19.865   0.970  48.126  1.00  0.00     0.162 HD
BRANCH  23  25
HETATM   25  C17 UNL     1      21.212   2.487  47.549  1.00  0.00     0.124 C 
BRANCH  25  26
HETATM   26  C18 UNL     1      22.230   3.286  48.262  1.00  0.00     0.050 C 
BRANCH  26  27
HETATM   27  C19 UNL     1      22.333   4.708  47.854  1.00  0.00     0.274 C 
BRANCH  27  28
HETATM   28  N5  UNL     1      23.276   5.470  48.635  1.00  0.00     0.092 N 
HETATM   29  C20 UNL     1      24.290   4.635  49.181  1.00  0.00     0.298 C 
HETATM   30  C21 UNL     1      24.807   5.094  50.500  1.00  0.00     0.198 C 
HETATM   31  O3  UNL     1      23.688   5.185  51.355  1.00  0.00    -0.388 OA
HETATM   32  C22 UNL     1      23.022   6.332  50.949  1.00  0.00     0.198 C 
HETATM   33  C23 UNL     1      22.585   6.333  49.523  1.00  0.00     0.298 C 
ENDBRANCH  27  28
ENDBRANCH  26  27
ENDBRANCH  25  26
ENDBRANCH  23  25
ENDBRANCH  20  21
ENDBRANCH  19  20
ENDBRANCH  18  19
ENDBRANCH   1  18
TORSDOF 11
ENDMDL
MODEL 6
REMARK VINA RESULT:      -7.0      3.909      5.386
REMARK  11 active torsions:
REMARK  status: ('A' for Active; 'I' for Inactive)
REMARK    1  A    between atoms: C3_3  and  N1_4 
REMARK    2  A    between atoms: N1_4  and  C4_5 
REMARK    3  A    between atoms: C12_15  and  C13_16 
REMARK    4  A    between atoms: C13_16  and  C14_17 
REMARK    5  A    between atoms: C14_17  and  O1_18 
REMARK    6  A    between atoms: O1_18  and  C15_19 
REMARK    7  A    between atoms: C15_19  and  C16_20 
REMARK       I    between atoms: C16_20  and  N4_22 
REMARK    8  A    between atoms: N4_22  and  C17_23 
REMARK    9  A    between atoms: C17_23  and  C18_24 
REMARK   10  A    between atoms: C18_24  and  C19_25 
REMARK   11  A    between atoms: C19_25  and  N5_26 
ROOT
HETATM    1  C13 UNL     1      26.232   5.623  49.045  1.00  0.00     0.031 C 
ENDROOT
BRANCH   1   2
HETATM    2  C12 UNL     1      25.440   5.136  49.961  1.00  0.00     0.066 A 
HETATM    3  C2  UNL     1      25.507   3.813  50.323  1.00  0.00     0.017 A 
HETATM    4  C1  UNL     1      26.397   3.099  49.702  1.00  0.00     0.049 C 
HETATM    5  C3  UNL     1      24.710   3.223  51.277  1.00  0.00     0.138 A 
HETATM    6  N2  UNL     1      23.807   4.027  51.883  1.00  0.00    -0.224 NA
HETATM    7  C11 UNL     1      23.732   5.328  51.536  1.00  0.00     0.235 A 
HETATM    8  N3  UNL     1      24.522   5.883  50.601  1.00  0.00    -0.242 NA
BRANCH   5   9
HETATM    9  N1  UNL     1      24.918   1.826  51.534  1.00  0.00    -0.340 N 
HETATM   10  H3  UNL     1      25.826   1.443  51.137  1.00  0.00     0.167 HD
BRANCH   9  11
HETATM   11  C4  UNL     1      24.052   0.981  52.235  1.00  0.00     0.033 A 
HETATM   12  C5  UNL     1      24.493   0.255  53.324  1.00  0.00     0.030 A 
HETATM   13  C6  UNL     1      23.644  -0.583  54.014  1.00  0.00     0.009 A 
HETATM   14  C7  UNL     1      22.320  -0.710  53.621  1.00  0.00    -0.062 A 
HETATM   15  C8  UNL     1      21.288  -1.566  54.257  1.00  0.00     0.048 C 
HETATM   16  C9  UNL     1      21.919   0.037  52.523  1.00  0.00     0.009 A 
HETATM   17  C10 UNL     1      22.740   0.886  51.807  1.00  0.00     0.030 A 
ENDBRANCH   9  11
ENDBRANCH   5   9
ENDBRANCH   1   2
BRANCH   1  18
HETATM   18  C14 UNL     1      26.394   7.027  48.604  1.00  0.00     0.198 C 
BRANCH  18  19
HETATM   19  O1  UNL     1      26.979   7.712  49.694  1.00  0.00    -0.378 OA
BRANCH  19  20
HETATM   20  C15 UNL     1      27.144   9.044  49.286  1.00  0.00     0.270 C 
BRANCH  20  21
HETATM   21  C16 UNL     1      28.555   9.460  49.290  1.00  0.00     0.241 C 
HETATM   22  O2  UNL     1      28.577  10.689  49.081  1.00  0.00    -0.271 OA
HETATM   23  N4  UNL     1      29.773   8.781  49.470  1.00  0.00    -0.359 N 
HETATM   24  H17 UNL     1      29.397   7.783  49.611  1.00  0.00     0.162 HD
BRANCH  23  25
HETATM   25  C17 UNL     1      31.188   8.894  49.535  1.00  0.00     0.124 C 
BRANCH  25  26
HETATM   26  C18 UNL     1      31.951   7.631  49.458  1.00  0.00     0.050 C 
BRANCH  26  27
HETATM   27  C19 UNL     1      31.194   6.452  48.971  1.00  0.00     0.274 C 
BRANCH  27  28
HETATM   28  N5  UNL     1      32.030   5.330  48.620  1.00  0.00     0.092 N 
HETATM   29  C20 UNL     1      33.409   5.672  48.683  1.00  0.00     0.298 C 
HETATM   30  C21 UNL     1      34.258   4.947  47.698  1.00  0.00     0.198 C 
HETATM   31  O3  UNL     1      33.710   5.221  46.426  1.00  0.00    -0.388 OA
HETATM   32  C22 UNL     1      32.560   4.448  46.361  1.00  0.00     0.198 C 
HETATM   33  C23 UNL     1      31.555   4.726  47.428  1.00  0.00     0.298 C 
ENDBRANCH  27  28
ENDBRANCH  26  27
ENDBRANCH  25  26
ENDBRANCH  23  25
ENDBRANCH  20  21
ENDBRANCH  19  20
ENDBRANCH  18  19
ENDBRANCH   1  18
TORSDOF 11
ENDMDL
MODEL 7
REMARK VINA RESULT:      -7.0      3.987      6.266
REMARK  11 active torsions:
REMARK  status: ('A' for Active; 'I' for Inactive)
REMARK    1  A    between atoms: C3_3  and  N1_4 
REMARK    2  A    between atoms: N1_4  and  C4_5 
REMARK    3  A    between atoms: C12_15  and  C13_16 
REMARK    4  A    between atoms: C13_16  and  C14_17 
REMARK    5  A    between atoms: C14_17  and  O1_18 
REMARK    6  A    between atoms: O1_18  and  C15_19 
REMARK    7  A    between atoms: C15_19  and  C16_20 
REMARK       I    between atoms: C16_20  and  N4_22 
REMARK    8  A    between atoms: N4_22  and  C17_23 
REMARK    9  A    between atoms: C17_23  and  C18_24 
REMARK   10  A    between atoms: C18_24  and  C19_25 
REMARK   11  A    between atoms: C19_25  and  N5_26 
ROOT
HETATM    1  C13 UNL     1      24.985   7.112  49.467  1.00  0.00     0.031 C 
ENDROOT
BRANCH   1   2
HETATM    2  C12 UNL     1      25.740   6.049  49.409  1.00  0.00     0.066 A 
HETATM    3  C2  UNL     1      25.444   4.932  50.150  1.00  0.00     0.017 A 
HETATM    4  C1  UNL     1      24.382   5.009  50.896  1.00  0.00     0.049 C 
HETATM    5  C3  UNL     1      26.186   3.773  50.146  1.00  0.00     0.138 A 
HETATM    6  N2  UNL     1      27.275   3.763  49.345  1.00  0.00    -0.224 NA
HETATM    7  C11 UNL     1      27.576   4.854  48.612  1.00  0.00     0.235 A 
HETATM    8  N3  UNL     1      26.835   5.976  48.632  1.00  0.00    -0.242 NA
BRANCH   5   9
HETATM    9  N1  UNL     1      25.730   2.697  50.981  1.00  0.00    -0.340 N 
HETATM   10  H3  UNL     1      24.675   2.567  50.982  1.00  0.00     0.167 HD
BRANCH   9  11
HETATM   11  C4  UNL     1      26.537   1.855  51.752  1.00  0.00     0.033 A 
HETATM   12  C5  UNL     1      26.349   0.487  51.746  1.00  0.00     0.030 A 
HETATM   13  C6  UNL     1      27.139  -0.345  52.509  1.00  0.00     0.009 A 
HETATM   14  C7  UNL     1      28.146   0.185  53.301  1.00  0.00    -0.062 A 
HETATM   15  C8  UNL     1      29.076  -0.575  54.173  1.00  0.00     0.048 C 
HETATM   16  C9  UNL     1      28.301   1.563  53.277  1.00  0.00     0.009 A 
HETATM   17  C10 UNL     1      27.529   2.428  52.527  1.00  0.00     0.030 A 
ENDBRANCH   9  11
ENDBRANCH   5   9
ENDBRANCH   1   2
BRANCH   1  18
HETATM   18  C14 UNL     1      25.267   8.420  50.102  1.00  0.00     0.198 C 
BRANCH  18  19
HETATM   19  O1  UNL     1      26.638   8.395  50.451  1.00  0.00    -0.378 OA
BRANCH  19  20
HETATM   20  C15 UNL     1      27.226   9.511  49.837  1.00  0.00     0.270 C 
BRANCH  20  21
HETATM   21  C16 UNL     1      28.566   9.217  49.307  1.00  0.00     0.241 C 
HETATM   22  O2  UNL     1      29.062  10.301  48.938  1.00  0.00    -0.271 OA
HETATM   23  N4  UNL     1      29.320   8.040  49.155  1.00  0.00    -0.359 N 
HETATM   24  H17 UNL     1      28.615   7.330  49.550  1.00  0.00     0.162 HD
BRANCH  23  25
HETATM   25  C17 UNL     1      30.550   7.475  48.722  1.00  0.00     0.124 C 
BRANCH  25  26
HETATM   26  C18 UNL     1      30.492   6.625  47.515  1.00  0.00     0.050 C 
BRANCH  26  27
HETATM   27  C19 UNL     1      31.034   5.253  47.668  1.00  0.00     0.274 C 
BRANCH  27  28
HETATM   28  N5  UNL     1      32.376   5.099  47.161  1.00  0.00     0.092 N 
HETATM   29  C20 UNL     1      33.337   5.184  48.206  1.00  0.00     0.298 C 
HETATM   30  C21 UNL     1      34.638   5.773  47.786  1.00  0.00     0.198 C 
HETATM   31  O3  UNL     1      34.342   7.043  47.244  1.00  0.00    -0.388 OA
HETATM   32  C22 UNL     1      33.788   6.779  46.000  1.00  0.00     0.198 C 
HETATM   33  C23 UNL     1      32.563   5.928  46.025  1.00  0.00     0.298 C 
ENDBRANCH  27  28
ENDBRANCH  26  27
ENDBRANCH  25  26
ENDBRANCH  23  25
ENDBRANCH  20  21
ENDBRANCH  19  20
ENDBRANCH  18  19
ENDBRANCH   1  18
TORSDOF 11
ENDMDL
MODEL 8
REMARK VINA RESULT:      -7.0      2.691      6.749
REMARK  11 active torsions:
REMARK  status: ('A' for Active; 'I' for Inactive)
REMARK    1  A    between atoms: C3_3  and  N1_4 
REMARK    2  A    between atoms: N1_4  and  C4_5 
REMARK    3  A    between atoms: C12_15  and  C13_16 
REMARK    4  A    between atoms: C13_16  and  C14_17 
REMARK    5  A    between atoms: C14_17  and  O1_18 
REMARK    6  A    between atoms: O1_18  and  C15_19 
REMARK    7  A    between atoms: C15_19  and  C16_20 
REMARK       I    between atoms: C16_20  and  N4_22 
REMARK    8  A    between atoms: N4_22  and  C17_23 
REMARK    9  A    between atoms: C17_23  and  C18_24 
REMARK   10  A    between atoms: C18_24  and  C19_25 
REMARK   11  A    between atoms: C19_25  and  N5_26 
ROOT
HETATM    1  C13 UNL     1      22.087   2.050  48.483  1.00  0.00     0.031 C 
ENDROOT
BRANCH   1   2
HETATM    2  C12 UNL     1      22.462   3.283  48.274  1.00  0.00     0.066 A 
HETATM    3  C2  UNL     1      23.550   3.810  48.924  1.00  0.00     0.017 A 
HETATM    4  C1  UNL     1      24.165   3.010  49.743  1.00  0.00     0.049 C 
HETATM    5  C3  UNL     1      24.009   5.097  48.760  1.00  0.00     0.138 A 
HETATM    6  N2  UNL     1      23.322   5.872  47.891  1.00  0.00    -0.224 NA
HETATM    7  C11 UNL     1      22.252   5.365  47.246  1.00  0.00     0.235 A 
HETATM    8  N3  UNL     1      21.821   4.103  47.423  1.00  0.00    -0.242 NA
BRANCH   5   9
HETATM    9  N1  UNL     1      25.167   5.483  49.518  1.00  0.00    -0.340 N 
HETATM   10  H3  UNL     1      25.012   5.489  50.569  1.00  0.00     0.167 HD
BRANCH   9  11
HETATM   11  C4  UNL     1      26.416   5.830  48.994  1.00  0.00     0.033 A 
HETATM   12  C5  UNL     1      26.690   7.127  48.607  1.00  0.00     0.030 A 
HETATM   13  C6  UNL     1      27.917   7.471  48.085  1.00  0.00     0.009 A 
HETATM   14  C7  UNL     1      28.906   6.510  47.939  1.00  0.00    -0.062 A 
HETATM   15  C8  UNL     1      30.270   6.722  47.396  1.00  0.00     0.048 C 
HETATM   16  C9  UNL     1      28.589   5.221  48.339  1.00  0.00     0.009 A 
HETATM   17  C10 UNL     1      27.371   4.838  48.866  1.00  0.00     0.030 A 
ENDBRANCH   9  11
ENDBRANCH   5   9
ENDBRANCH   1   2
BRANCH   1  18
HETATM   18  C14 UNL     1      20.859   1.550  49.143  1.00  0.00     0.198 C 
BRANCH  18  19
HETATM   19  O1  UNL     1      20.624   2.417  50.236  1.00  0.00    -0.378 OA
BRANCH  19  20
HETATM   20  C15 UNL     1      19.724   1.755  51.084  1.00  0.00     0.270 C 
BRANCH  20  21
HETATM   21  C16 UNL     1      20.258   1.587  52.444  1.00  0.00     0.241 C 
HETATM   22  O2  UNL     1      20.243   2.709  52.988  1.00  0.00    -0.271 OA
HETATM   23  N4  UNL     1      20.739   0.486  53.176  1.00  0.00    -0.359 N 
HETATM   24  H17 UNL     1      20.622  -0.282  52.431  1.00  0.00     0.162 HD
BRANCH  23  25
HETATM   25  C17 UNL     1      21.272   0.034  54.413  1.00  0.00     0.124 C 
BRANCH  25  26
HETATM   26  C18 UNL     1      22.613  -0.584  54.363  1.00  0.00     0.050 C 
BRANCH  26  27
HETATM   27  C19 UNL     1      23.370  -0.374  53.106  1.00  0.00     0.274 C 
BRANCH  27  28
HETATM   28  N5  UNL     1      24.802  -0.446  53.271  1.00  0.00     0.092 N 
HETATM   29  C20 UNL     1      25.160  -0.534  54.645  1.00  0.00     0.298 C 
HETATM   30  C21 UNL     1      26.460   0.114  54.974  1.00  0.00     0.198 C 
HETATM   31  O3  UNL     1      26.354   1.454  54.546  1.00  0.00    -0.388 OA
HETATM   32  C22 UNL     1      26.461   1.398  53.164  1.00  0.00     0.198 C 
HETATM   33  C23 UNL     1      25.431   0.556  52.489  1.00  0.00     0.298 C 
ENDBRANCH  27  28
ENDBRANCH  26  27
ENDBRANCH  25  26
ENDBRANCH  23  25
ENDBRANCH  20  21
ENDBRANCH  19  20
ENDBRANCH  18  19
ENDBRANCH   1  18
TORSDOF 11
ENDMDL
MODEL 9
REMARK VINA RESULT:      -6.9      2.822      7.314
REMARK  11 active torsions:
REMARK  status: ('A' for Active; 'I' for Inactive)
REMARK    1  A    between atoms: C3_3  and  N1_4 
REMARK    2  A    between atoms: N1_4  and  C4_5 
REMARK    3  A    between atoms: C12_15  and  C13_16 
REMARK    4  A    between atoms: C13_16  and  C14_17 
REMARK    5  A    between atoms: C14_17  and  O1_18 
REMARK    6  A    between atoms: O1_18  and  C15_19 
REMARK    7  A    between atoms: C15_19  and  C16_20 
REMARK       I    between atoms: C16_20  and  N4_22 
REMARK    8  A    between atoms: N4_22  and  C17_23 
REMARK    9  A    between atoms: C17_23  and  C18_24 
REMARK   10  A    between atoms: C18_24  and  C19_25 
REMARK   11  A    between atoms: C19_25  and  N5_26 
ROOT
HETATM    1  C13 UNL     1      23.763   3.147  49.417  1.00  0.00     0.031 C 
ENDROOT
BRANCH   1   2
HETATM    2  C12 UNL     1      24.164   4.336  49.056  1.00  0.00     0.066 A 
HETATM    3  C2  UNL     1      25.457   4.742  49.275  1.00  0.00     0.017 A 
HETATM    4  C1  UNL     1      26.234   3.876  49.853  1.00  0.00     0.049 C 
HETATM    5  C3  UNL     1      25.958   5.975  48.925  1.00  0.00     0.138 A 
HETATM    6  N2  UNL     1      25.094   6.824  48.326  1.00  0.00    -0.224 NA
HETATM    7  C11 UNL     1      23.821   6.437  48.106  1.00  0.00     0.235 A 
HETATM    8  N3  UNL     1      23.354   5.226  48.456  1.00  0.00    -0.242 NA
BRANCH   5   9
HETATM    9  N1  UNL     1      27.339   6.232  49.226  1.00  0.00    -0.340 N 
HETATM   10  H3  UNL     1      27.717   5.664  50.040  1.00  0.00     0.167 HD
BRANCH   9  11
HETATM   11  C4  UNL     1      28.173   7.131  48.554  1.00  0.00     0.033 A 
HETATM   12  C5  UNL     1      28.204   8.468  48.899  1.00  0.00     0.030 A 
HETATM   13  C6  UNL     1      29.021   9.356  48.235  1.00  0.00     0.009 A 
HETATM   14  C7  UNL     1      29.833   8.917  47.201  1.00  0.00    -0.062 A 
HETATM   15  C8  UNL     1      30.762   9.746  46.394  1.00  0.00     0.048 C 
HETATM   16  C9  UNL     1      29.771   7.568  46.887  1.00  0.00     0.009 A 
HETATM   17  C10 UNL     1      28.966   6.647  47.529  1.00  0.00     0.030 A 
ENDBRANCH   9  11
ENDBRANCH   5   9
ENDBRANCH   1   2
BRANCH   1  18
HETATM   18  C14 UNL     1      22.383   2.661  49.650  1.00  0.00     0.198 C 
BRANCH  18  19
HETATM   19  O1  UNL     1      22.219   2.616  51.054  1.00  0.00    -0.378 OA
BRANCH  19  20
HETATM   20  C15 UNL     1      22.216   1.260  51.412  1.00  0.00     0.270 C 
BRANCH  20  21
HETATM   21  C16 UNL     1      23.083   0.985  52.568  1.00  0.00     0.241 C 
HETATM   22  O2  UNL     1      23.572   2.075  52.929  1.00  0.00    -0.271 OA
HETATM   23  N4  UNL     1      23.428  -0.180  53.276  1.00  0.00    -0.359 N 
HETATM   24  H17 UNL     1      22.859  -0.899  52.714  1.00  0.00     0.162 HD
BRANCH  23  25
HETATM   25  C17 UNL     1      24.171  -0.727  54.357  1.00  0.00     0.124 C 
BRANCH  25  26
HETATM   26  C18 UNL     1      25.631  -0.506  54.327  1.00  0.00     0.050 C 
BRANCH  26  27
HETATM   27  C19 UNL     1      26.324  -0.956  53.095  1.00  0.00     0.274 C 
BRANCH  27  28
HETATM   28  N5  UNL     1      27.494  -0.177  52.770  1.00  0.00     0.092 N 
HETATM   29  C20 UNL     1      28.572  -0.470  53.650  1.00  0.00     0.298 C 
HETATM   30  C21 UNL     1      29.471   0.688  53.912  1.00  0.00     0.198 C 
HETATM   31  O3  UNL     1      28.651   1.720  54.415  1.00  0.00    -0.388 OA
HETATM   32  C22 UNL     1      27.964   2.200  53.310  1.00  0.00     0.198 C 
HETATM   33  C23 UNL     1      27.136   1.184  52.595  1.00  0.00     0.298 C 
ENDBRANCH  27  28
ENDBRANCH  26  27
ENDBRANCH  25  26
ENDBRANCH  23  25
ENDBRANCH  20  21
ENDBRANCH  19  20
ENDBRANCH  18  19
ENDBRANCH   1  18
TORSDOF 11
ENDMDL
