MODEL 1
REMARK VINA RESULT:      -8.2      0.000      0.000
REMARK  9 active torsions:
REMARK  status: ('A' for Active; 'I' for Inactive)
REMARK    1  A    between atoms: O1_2  and  C2_3 
REMARK    2  A    between atoms: C5_6  and  C6_7 
REMARK       I    between atoms: C6_7  and  N1_9 
REMARK    3  A    between atoms: N1_9  and  C7_10 
REMARK    4  A    between atoms: C7_10  and  C8_11 
REMARK    5  A    between atoms: C8_11  and  N2_12 
REMARK    6  A    between atoms: C8_11  and  C9_13 
REMARK    7  A    between atoms: C9_13  and  O3_14 
REMARK    8  A    between atoms: C11_16  and  C12_17 
REMARK    9  A    between atoms: C13_18  and  C14_19 
ROOT
HETATM    1  C2  UNL     1      22.718   0.984  51.751  1.00  0.00     0.078 A 
HETATM    2  C3  UNL     1      22.166  -0.034  52.456  1.00  0.00     0.038 A 
HETATM    3  C4  UNL     1      23.050  -0.595  53.332  1.00  0.00     0.019 A 
HETATM    4  C5  UNL     1      24.382  -0.208  53.526  1.00  0.00     0.027 A 
HETATM    5  C10 UNL     1      24.800   0.849  52.729  1.00  0.00     0.030 A 
HETATM    6  C11 UNL     1      23.997   1.480  51.819  1.00  0.00    -0.002 A 
ENDROOT
BRANCH   4   7
HETATM    7  C6  UNL     1      25.406  -0.681  54.418  1.00  0.00     0.231 C 
HETATM    8  O2  UNL     1      25.141  -1.121  55.587  1.00  0.00    -0.274 OA
HETATM    9  N1  UNL     1      26.672  -0.558  53.746  1.00  0.00    -0.257 NA
HETATM   10  H6  UNL     1      27.065  -0.977  54.546  1.00  0.00     0.130 HD
BRANCH   9  11
HETATM   11  C7  UNL     1      28.067  -0.633  53.510  1.00  0.00     0.133 C 
BRANCH  11  12
HETATM   12  C8  UNL     1      28.903   0.581  53.831  1.00  0.00     0.254 C 
BRANCH  12  13
HETATM   13  N2  UNL     1      30.296   0.416  53.498  1.00  0.00     0.086 N 
HETATM   14  H10 UNL     1      30.648  -0.517  53.801  1.00  0.00     0.313 HD
HETATM   15  H11 UNL     1      30.414   0.512  52.479  1.00  0.00     0.313 HD
ENDBRANCH  12  13
BRANCH  12  16
HETATM   16  C9  UNL     1      28.335   1.862  53.252  1.00  0.00     0.200 C 
BRANCH  16  17
HETATM   17  O3  UNL     1      27.535   2.590  54.082  1.00  0.00    -0.399 OA
HETATM   18  H14 UNL     1      27.182   2.040  54.790  1.00  0.00     0.209 HD
ENDBRANCH  16  17
ENDBRANCH  12  16
ENDBRANCH  11  12
ENDBRANCH   9  11
ENDBRANCH   4   7
BRANCH   6  19
HETATM   19  C12 UNL     1      24.484   2.598  50.995  1.00  0.00     0.015 C 
HETATM   20  C13 UNL     1      25.750   2.798  50.851  1.00  0.00     0.012 C 
BRANCH  20  21
HETATM   21  C14 UNL     1      26.032   3.967  49.989  1.00  0.00    -0.036 A 
HETATM   22  C15 UNL     1      27.184   4.264  49.228  1.00  0.00     0.013 A 
HETATM   23  C16 UNL     1      27.497   5.350  48.461  1.00  0.00     0.024 A 
HETATM   24  C17 UNL     1      26.530   6.309  48.427  1.00  0.00     0.034 A 
HETATM   25 CL1  UNL     1      26.855   7.748  47.463  1.00  0.00    -0.084 Cl
HETATM   26  C18 UNL     1      25.334   6.213  49.099  1.00  0.00     0.024 A 
HETATM   27  C19 UNL     1      25.170   5.037  49.835  1.00  0.00     0.013 A 
ENDBRANCH  20  21
ENDBRANCH   6  19
BRANCH   1  28
HETATM   28  O1  UNL     1      21.897   1.617  50.836  1.00  0.00    -0.355 OA
HETATM   29  C1  UNL     1      20.515   1.367  50.821  1.00  0.00     0.210 C 
ENDBRANCH   1  28
TORSDOF 9
ENDMDL
MODEL 2
REMARK VINA RESULT:      -8.1      2.645      3.327
REMARK  9 active torsions:
REMARK  status: ('A' for Active; 'I' for Inactive)
REMARK    1  A    between atoms: O1_2  and  C2_3 
REMARK    2  A    between atoms: C5_6  and  C6_7 
REMARK       I    between atoms: C6_7  and  N1_9 
REMARK    3  A    between atoms: N1_9  and  C7_10 
REMARK    4  A    between atoms: C7_10  and  C8_11 
REMARK    5  A    between atoms: C8_11  and  N2_12 
REMARK    6  A    between atoms: C8_11  and  C9_13 
REMARK    7  A    between atoms: C9_13  and  O3_14 
REMARK    8  A    between atoms: C11_16  and  C12_17 
REMARK    9  A    between atoms: C13_18  and  C14_19 
ROOT
HETATM    1  C2  UNL     1      21.369  -0.324  53.116  1.00  0.00     0.078 A 
HETATM    2  C3  UNL     1      21.360  -1.089  54.234  1.00  0.00     0.038 A 
HETATM    3  C4  UNL     1      22.613  -1.270  54.747  1.00  0.00     0.019 A 
HETATM    4  C5  UNL     1      23.804  -0.750  54.225  1.00  0.00     0.027 A 
HETATM    5  C10 UNL     1      23.649   0.012  53.076  1.00  0.00     0.030 A 
HETATM    6  C11 UNL     1      22.442   0.254  52.480  1.00  0.00    -0.002 A 
ENDROOT
BRANCH   4   7
HETATM    7  C6  UNL     1      25.170  -0.833  54.666  1.00  0.00     0.231 C 
HETATM    8  O2  UNL     1      25.487  -0.857  55.903  1.00  0.00    -0.274 OA
HETATM    9  N1  UNL     1      26.012  -0.883  53.500  1.00  0.00    -0.257 NA
HETATM   10  H6  UNL     1      26.765  -0.980  54.126  1.00  0.00     0.130 HD
BRANCH   9  11
HETATM   11  C7  UNL     1      27.182  -0.962  52.705  1.00  0.00     0.133 C 
BRANCH  11  12
HETATM   12  C8  UNL     1      28.516  -0.878  53.404  1.00  0.00     0.254 C 
BRANCH  12  13
HETATM   13  N2  UNL     1      28.413  -0.446  54.776  1.00  0.00     0.086 N 
HETATM   14  H10 UNL     1      28.140   0.559  54.835  1.00  0.00     0.313 HD
HETATM   15  H11 UNL     1      27.707  -1.021  55.259  1.00  0.00     0.313 HD
ENDBRANCH  12  13
BRANCH  12  16
HETATM   16  C9  UNL     1      29.335  -2.147  53.275  1.00  0.00     0.200 C 
BRANCH  16  17
HETATM   17  O3  UNL     1      28.662  -3.317  53.469  1.00  0.00    -0.399 OA
HETATM   18  H14 UNL     1      28.571  -3.804  52.643  1.00  0.00     0.209 HD
ENDBRANCH  16  17
ENDBRANCH  12  16
ENDBRANCH  11  12
ENDBRANCH   9  11
ENDBRANCH   4   7
BRANCH   6  19
HETATM   19  C12 UNL     1      22.325   1.069  51.261  1.00  0.00     0.015 C 
HETATM   20  C13 UNL     1      23.281   1.864  50.914  1.00  0.00     0.012 C 
BRANCH  20  21
HETATM   21  C14 UNL     1      22.970   2.592  49.664  1.00  0.00    -0.036 A 
HETATM   22  C15 UNL     1      23.264   3.926  49.306  1.00  0.00     0.013 A 
HETATM   23  C16 UNL     1      22.953   4.642  48.185  1.00  0.00     0.024 A 
HETATM   24  C17 UNL     1      22.238   3.948  47.256  1.00  0.00     0.034 A 
HETATM   25 CL1  UNL     1      21.791   4.800  45.780  1.00  0.00    -0.084 Cl
HETATM   26  C18 UNL     1      21.851   2.638  47.413  1.00  0.00     0.024 A 
HETATM   27  C19 UNL     1      22.251   2.050  48.615  1.00  0.00     0.013 A 
ENDBRANCH  20  21
ENDBRANCH   6  19
BRANCH   1  28
HETATM   28  O1  UNL     1      20.144  -0.083  52.523  1.00  0.00    -0.355 OA
HETATM   29  C1  UNL     1      18.961  -0.571  53.101  1.00  0.00     0.210 C 
ENDBRANCH   1  28
TORSDOF 9
ENDMDL
MODEL 3
REMARK VINA RESULT:      -7.9      4.018      6.718
REMARK  9 active torsions:
REMARK  status: ('A' for Active; 'I' for Inactive)
REMARK    1  A    between atoms: O1_2  and  C2_3 
REMARK    2  A    between atoms: C5_6  and  C6_7 
REMARK       I    between atoms: C6_7  and  N1_9 
REMARK    3  A    between atoms: N1_9  and  C7_10 
REMARK    4  A    between atoms: C7_10  and  C8_11 
REMARK    5  A    between atoms: C8_11  and  N2_12 
REMARK    6  A    between atoms: C8_11  and  C9_13 
REMARK    7  A    between atoms: C9_13  and  O3_14 
REMARK    8  A    between atoms: C11_16  and  C12_17 
REMARK    9  A    between atoms: C13_18  and  C14_19 
ROOT
HETATM    1  C2  UNL     1      23.331   1.295  51.749  1.00  0.00     0.078 A 
HETATM    2  C3  UNL     1      24.574   1.832  51.793  1.00  0.00     0.038 A 
HETATM    3  C4  UNL     1      25.350   1.262  52.760  1.00  0.00     0.019 A 
HETATM    4  C5  UNL     1      24.964   0.237  53.634  1.00  0.00     0.027 A 
HETATM    5  C10 UNL     1      23.660  -0.206  53.467  1.00  0.00     0.030 A 
HETATM    6  C11 UNL     1      22.799   0.297  52.530  1.00  0.00    -0.002 A 
ENDROOT
BRANCH   4   7
HETATM    7  C6  UNL     1      25.671  -0.469  54.668  1.00  0.00     0.231 C 
HETATM    8  O2  UNL     1      25.103  -1.341  55.408  1.00  0.00    -0.274 OA
HETATM    9  N1  UNL     1      27.035  -0.011  54.668  1.00  0.00    -0.257 NA
HETATM   10  H6  UNL     1      27.191  -0.676  55.377  1.00  0.00     0.130 HD
BRANCH   9  11
HETATM   11  C7  UNL     1      28.400   0.107  55.029  1.00  0.00     0.133 C 
BRANCH  11  12
HETATM   12  C8  UNL     1      29.281   0.985  54.176  1.00  0.00     0.254 C 
BRANCH  12  13
HETATM   13  N2  UNL     1      30.156   0.238  53.306  1.00  0.00     0.086 N 
HETATM   14  H10 UNL     1      29.802   0.239  52.325  1.00  0.00     0.313 HD
HETATM   15  H11 UNL     1      31.096   0.659  53.331  1.00  0.00     0.313 HD
ENDBRANCH  12  13
BRANCH  12  16
HETATM   16  C9  UNL     1      28.507   2.047  53.419  1.00  0.00     0.200 C 
BRANCH  16  17
HETATM   17  O3  UNL     1      27.795   2.925  54.180  1.00  0.00    -0.399 OA
HETATM   18  H14 UNL     1      27.395   3.609  53.633  1.00  0.00     0.209 HD
ENDBRANCH  16  17
ENDBRANCH  12  16
ENDBRANCH  11  12
ENDBRANCH   9  11
ENDBRANCH   4   7
BRANCH   6  19
HETATM   19  C12 UNL     1      21.424  -0.205  52.388  1.00  0.00     0.015 C 
HETATM   20  C13 UNL     1      20.509   0.153  53.225  1.00  0.00     0.012 C 
BRANCH  20  21
HETATM   21  C14 UNL     1      19.199  -0.458  52.909  1.00  0.00    -0.036 A 
HETATM   22  C15 UNL     1      18.205  -0.031  52.002  1.00  0.00     0.013 A 
HETATM   23  C16 UNL     1      16.970  -0.540  51.720  1.00  0.00     0.024 A 
HETATM   24  C17 UNL     1      16.645  -1.651  52.440  1.00  0.00     0.034 A 
HETATM   25 CL1  UNL     1      15.064  -2.371  52.141  1.00  0.00    -0.084 Cl
HETATM   26  C18 UNL     1      17.473  -2.226  53.374  1.00  0.00     0.024 A 
HETATM   27  C19 UNL     1      18.701  -1.583  53.541  1.00  0.00     0.013 A 
ENDBRANCH  20  21
ENDBRANCH   6  19
BRANCH   1  28
HETATM   28  O1  UNL     1      22.470   1.809  50.797  1.00  0.00    -0.355 OA
HETATM   29  C1  UNL     1      22.968   2.395  49.623  1.00  0.00     0.210 C 
ENDBRANCH   1  28
TORSDOF 9
ENDMDL
MODEL 4
REMARK VINA RESULT:      -7.7      1.524      2.075
REMARK  9 active torsions:
REMARK  status: ('A' for Active; 'I' for Inactive)
REMARK    1  A    between atoms: O1_2  and  C2_3 
REMARK    2  A    between atoms: C5_6  and  C6_7 
REMARK       I    between atoms: C6_7  and  N1_9 
REMARK    3  A    between atoms: N1_9  and  C7_10 
REMARK    4  A    between atoms: C7_10  and  C8_11 
REMARK    5  A    between atoms: C8_11  and  N2_12 
REMARK    6  A    between atoms: C8_11  and  C9_13 
REMARK    7  A    between atoms: C9_13  and  O3_14 
REMARK    8  A    between atoms: C11_16  and  C12_17 
REMARK    9  A    between atoms: C13_18  and  C14_19 
ROOT
HETATM    1  C2  UNL     1      21.182   2.001  52.070  1.00  0.00     0.078 A 
HETATM    2  C3  UNL     1      20.273   1.199  52.675  1.00  0.00     0.038 A 
HETATM    3  C4  UNL     1      20.861   0.259  53.472  1.00  0.00     0.019 A 
HETATM    4  C5  UNL     1      22.236   0.095  53.681  1.00  0.00     0.027 A 
HETATM    5  C10 UNL     1      23.039   0.992  52.991  1.00  0.00     0.030 A 
HETATM    6  C11 UNL     1      22.552   1.970  52.167  1.00  0.00    -0.002 A 
ENDROOT
BRANCH   4   7
HETATM    7  C6  UNL     1      22.987  -0.818  54.500  1.00  0.00     0.231 C 
HETATM    8  O2  UNL     1      22.425  -1.613  55.326  1.00  0.00    -0.274 OA
HETATM    9  N1  UNL     1      24.383  -0.645  54.195  1.00  0.00    -0.257 NA
HETATM   10  H6  UNL     1      24.547  -1.381  54.827  1.00  0.00     0.130 HD
BRANCH   9  11
HETATM   11  C7  UNL     1      25.787  -0.832  54.230  1.00  0.00     0.133 C 
BRANCH  11  12
HETATM   12  C8  UNL     1      26.640   0.320  54.698  1.00  0.00     0.254 C 
BRANCH  12  13
HETATM   13  N2  UNL     1      28.011  -0.052  54.947  1.00  0.00     0.086 N 
HETATM   14  H10 UNL     1      28.566   0.760  55.292  1.00  0.00     0.313 HD
HETATM   15  H11 UNL     1      28.034  -0.806  55.649  1.00  0.00     0.313 HD
ENDBRANCH  12  13
BRANCH  12  16
HETATM   16  C9  UNL     1      26.542   1.536  53.798  1.00  0.00     0.200 C 
BRANCH  16  17
HETATM   17  O3  UNL     1      27.340   2.591  54.128  1.00  0.00    -0.399 OA
HETATM   18  H14 UNL     1      28.255   2.423  53.876  1.00  0.00     0.209 HD
ENDBRANCH  16  17
ENDBRANCH  12  16
ENDBRANCH  11  12
ENDBRANCH   9  11
ENDBRANCH   4   7
BRANCH   6  19
HETATM   19  C12 UNL     1      23.442   2.901  51.454  1.00  0.00     0.015 C 
HETATM   20  C13 UNL     1      24.180   2.482  50.482  1.00  0.00     0.012 C 
BRANCH  20  21
HETATM   21  C14 UNL     1      24.998   3.569  49.900  1.00  0.00    -0.036 A 
HETATM   22  C15 UNL     1      24.606   4.855  49.468  1.00  0.00     0.013 A 
HETATM   23  C16 UNL     1      25.320   5.862  48.885  1.00  0.00     0.024 A 
HETATM   24  C17 UNL     1      26.637   5.572  48.688  1.00  0.00     0.034 A 
HETATM   25 CL1  UNL     1      27.633   6.817  47.936  1.00  0.00    -0.084 Cl
HETATM   26  C18 UNL     1      27.218   4.376  49.038  1.00  0.00     0.024 A 
HETATM   27  C19 UNL     1      26.349   3.455  49.625  1.00  0.00     0.013 A 
ENDBRANCH  20  21
ENDBRANCH   6  19
BRANCH   1  28
HETATM   28  O1  UNL     1      20.680   2.987  51.242  1.00  0.00    -0.355 OA
HETATM   29  C1  UNL     1      19.498   3.667  51.573  1.00  0.00     0.210 C 
ENDBRANCH   1  28
TORSDOF 9
ENDMDL
MODEL 5
REMARK VINA RESULT:      -7.7      1.399      1.918
REMARK  9 active torsions:
REMARK  status: ('A' for Active; 'I' for Inactive)
REMARK    1  A    between atoms: O1_2  and  C2_3 
REMARK    2  A    between atoms: C5_6  and  C6_7 
REMARK       I    between atoms: C6_7  and  N1_9 
REMARK    3  A    between atoms: N1_9  and  C7_10 
REMARK    4  A    between atoms: C7_10  and  C8_11 
REMARK    5  A    between atoms: C8_11  and  N2_12 
REMARK    6  A    between atoms: C8_11  and  C9_13 
REMARK    7  A    between atoms: C9_13  and  O3_14 
REMARK    8  A    between atoms: C11_16  and  C12_17 
REMARK    9  A    between atoms: C13_18  and  C14_19 
ROOT
HETATM    1  C2  UNL     1      22.332   1.953  50.521  1.00  0.00     0.078 A 
HETATM    2  C3  UNL     1      21.520   0.972  50.985  1.00  0.00     0.038 A 
HETATM    3  C4  UNL     1      22.098   0.257  51.994  1.00  0.00     0.019 A 
HETATM    4  C5  UNL     1      23.375   0.465  52.531  1.00  0.00     0.027 A 
HETATM    5  C10 UNL     1      24.085   1.506  51.950  1.00  0.00     0.030 A 
HETATM    6  C11 UNL     1      23.600   2.283  50.933  1.00  0.00    -0.002 A 
ENDROOT
BRANCH   4   7
HETATM    7  C6  UNL     1      24.093  -0.181  53.595  1.00  0.00     0.231 C 
HETATM    8  O2  UNL     1      23.504  -0.866  54.497  1.00  0.00    -0.274 OA
HETATM    9  N1  UNL     1      25.494   0.094  53.418  1.00  0.00    -0.257 NA
HETATM   10  H6  UNL     1      25.642  -0.485  54.201  1.00  0.00     0.130 HD
BRANCH   9  11
HETATM   11  C7  UNL     1      26.893   0.083  53.646  1.00  0.00     0.133 C 
BRANCH  11  12
HETATM   12  C8  UNL     1      27.646   1.378  53.467  1.00  0.00     0.254 C 
BRANCH  12  13
HETATM   13  N2  UNL     1      26.929   2.527  53.963  1.00  0.00     0.086 N 
HETATM   14  H10 UNL     1      26.002   2.623  53.494  1.00  0.00     0.313 HD
HETATM   15  H11 UNL     1      26.790   2.425  54.979  1.00  0.00     0.313 HD
ENDBRANCH  12  13
BRANCH  12  16
HETATM   16  C9  UNL     1      29.061   1.322  54.009  1.00  0.00     0.200 C 
BRANCH  16  17
HETATM   17  O3  UNL     1      29.568   2.496  54.481  1.00  0.00    -0.399 OA
HETATM   18  H14 UNL     1      30.512   2.561  54.299  1.00  0.00     0.209 HD
ENDBRANCH  16  17
ENDBRANCH  12  16
ENDBRANCH  11  12
ENDBRANCH   9  11
ENDBRANCH   4   7
BRANCH   6  19
HETATM   19  C12 UNL     1      24.389   3.378  50.347  1.00  0.00     0.015 C 
HETATM   20  C13 UNL     1      25.557   3.146  49.848  1.00  0.00     0.012 C 
BRANCH  20  21
HETATM   21  C14 UNL     1      26.184   4.374  49.311  1.00  0.00    -0.036 A 
HETATM   22  C15 UNL     1      25.605   5.633  49.041  1.00  0.00     0.013 A 
HETATM   23  C16 UNL     1      26.139   6.769  48.503  1.00  0.00     0.024 A 
HETATM   24  C17 UNL     1      27.457   6.665  48.171  1.00  0.00     0.034 A 
HETATM   25 CL1  UNL     1      28.225   8.086  47.466  1.00  0.00    -0.084 Cl
HETATM   26  C18 UNL     1      28.204   5.525  48.353  1.00  0.00     0.024 A 
HETATM   27  C19 UNL     1      27.507   4.454  48.916  1.00  0.00     0.013 A 
ENDBRANCH  20  21
ENDBRANCH   6  19
BRANCH   1  28
HETATM   28  O1  UNL     1      21.832   2.735  49.496  1.00  0.00    -0.355 OA
HETATM   29  C1  UNL     1      21.752   2.233  48.187  1.00  0.00     0.210 C 
ENDBRANCH   1  28
TORSDOF 9
ENDMDL
MODEL 6
REMARK VINA RESULT:      -7.6      3.887      6.321
REMARK  9 active torsions:
REMARK  status: ('A' for Active; 'I' for Inactive)
REMARK    1  A    between atoms: O1_2  and  C2_3 
REMARK    2  A    between atoms: C5_6  and  C6_7 
REMARK       I    between atoms: C6_7  and  N1_9 
REMARK    3  A    between atoms: N1_9  and  C7_10 
REMARK    4  A    between atoms: C7_10  and  C8_11 
REMARK    5  A    between atoms: C8_11  and  N2_12 
REMARK    6  A    between atoms: C8_11  and  C9_13 
REMARK    7  A    between atoms: C9_13  and  O3_14 
REMARK    8  A    between atoms: C11_16  and  C12_17 
REMARK    9  A    between atoms: C13_18  and  C14_19 
ROOT
HETATM    1  C2  UNL     1      21.605   1.521  52.858  1.00  0.00     0.078 A 
HETATM    2  C3  UNL     1      20.344   1.961  52.629  1.00  0.00     0.038 A 
HETATM    3  C4  UNL     1      20.323   3.225  52.112  1.00  0.00     0.019 A 
HETATM    4  C5  UNL     1      21.440   4.021  51.827  1.00  0.00     0.027 A 
HETATM    5  C10 UNL     1      22.662   3.431  52.117  1.00  0.00     0.030 A 
HETATM    6  C11 UNL     1      22.795   2.173  52.638  1.00  0.00    -0.002 A 
ENDROOT
BRANCH   4   7
HETATM    7  C6  UNL     1      21.570   5.338  51.264  1.00  0.00     0.231 C 
HETATM    8  O2  UNL     1      20.610   5.914  50.650  1.00  0.00    -0.274 OA
HETATM    9  N1  UNL     1      22.902   5.808  51.535  1.00  0.00    -0.257 NA
HETATM   10  H6  UNL     1      22.625   6.648  51.102  1.00  0.00     0.130 HD
BRANCH   9  11
HETATM   11  C7  UNL     1      24.033   6.662  51.564  1.00  0.00     0.133 C 
BRANCH  11  12
HETATM   12  C8  UNL     1      24.984   6.612  50.393  1.00  0.00     0.254 C 
BRANCH  12  13
HETATM   13  N2  UNL     1      26.210   7.334  50.626  1.00  0.00     0.086 N 
HETATM   14  H10 UNL     1      26.343   7.532  51.641  1.00  0.00     0.313 HD
HETATM   15  H11 UNL     1      27.002   6.773  50.279  1.00  0.00     0.313 HD
ENDBRANCH  12  13
BRANCH  12  16
HETATM   16  C9  UNL     1      25.246   5.202  49.901  1.00  0.00     0.200 C 
BRANCH  16  17
HETATM   17  O3  UNL     1      26.073   4.443  50.673  1.00  0.00    -0.399 OA
HETATM   18  H14 UNL     1      26.199   4.843  51.540  1.00  0.00     0.209 HD
ENDBRANCH  16  17
ENDBRANCH  12  16
ENDBRANCH  11  12
ENDBRANCH   9  11
ENDBRANCH   4   7
BRANCH   6  19
HETATM   19  C12 UNL     1      24.113   1.587  52.929  1.00  0.00     0.015 C 
HETATM   20  C13 UNL     1      24.862   1.159  51.969  1.00  0.00     0.012 C 
BRANCH  20  21
HETATM   21  C14 UNL     1      26.142   0.609  52.469  1.00  0.00    -0.036 A 
HETATM   22  C15 UNL     1      27.285   1.286  52.945  1.00  0.00     0.013 A 
HETATM   23  C16 UNL     1      28.496   0.815  53.367  1.00  0.00     0.024 A 
HETATM   24  C17 UNL     1      28.616  -0.541  53.319  1.00  0.00     0.034 A 
HETATM   25 CL1  UNL     1      30.150  -1.233  53.844  1.00  0.00    -0.084 Cl
HETATM   26  C18 UNL     1      27.619  -1.383  52.887  1.00  0.00     0.024 A 
HETATM   27  C19 UNL     1      26.443  -0.741  52.492  1.00  0.00     0.013 A 
ENDBRANCH  20  21
ENDBRANCH   6  19
BRANCH   1  28
HETATM   28  O1  UNL     1      21.729   0.248  53.382  1.00  0.00    -0.355 OA
HETATM   29  C1  UNL     1      21.294  -0.035  54.687  1.00  0.00     0.210 C 
ENDBRANCH   1  28
TORSDOF 9
ENDMDL
MODEL 7
REMARK VINA RESULT:      -7.5      2.369      5.009
REMARK  9 active torsions:
REMARK  status: ('A' for Active; 'I' for Inactive)
REMARK    1  A    between atoms: O1_2  and  C2_3 
REMARK    2  A    between atoms: C5_6  and  C6_7 
REMARK       I    between atoms: C6_7  and  N1_9 
REMARK    3  A    between atoms: N1_9  and  C7_10 
REMARK    4  A    between atoms: C7_10  and  C8_11 
REMARK    5  A    between atoms: C8_11  and  N2_12 
REMARK    6  A    between atoms: C8_11  and  C9_13 
REMARK    7  A    between atoms: C9_13  and  O3_14 
REMARK    8  A    between atoms: C11_16  and  C12_17 
REMARK    9  A    between atoms: C13_18  and  C14_19 
ROOT
HETATM    1  C2  UNL     1      26.583   1.633  52.359  1.00  0.00     0.078 A 
HETATM    2  C3  UNL     1      26.106   0.661  53.174  1.00  0.00     0.038 A 
HETATM    3  C4  UNL     1      24.772   0.442  52.990  1.00  0.00     0.019 A 
HETATM    4  C5  UNL     1      23.940   1.107  52.081  1.00  0.00     0.027 A 
HETATM    5  C10 UNL     1      24.576   2.077  51.318  1.00  0.00     0.030 A 
HETATM    6  C11 UNL     1      25.906   2.377  51.423  1.00  0.00    -0.002 A 
ENDROOT
BRANCH   4   7
HETATM    7  C6  UNL     1      22.545   0.966  51.763  1.00  0.00     0.231 C 
HETATM    8  O2  UNL     1      22.115   0.988  50.561  1.00  0.00    -0.274 OA
HETATM    9  N1  UNL     1      21.822   0.803  52.997  1.00  0.00    -0.257 NA
HETATM   10  H6  UNL     1      21.019   0.695  52.437  1.00  0.00     0.130 HD
BRANCH   9  11
HETATM   11  C7  UNL     1      20.739   0.612  53.889  1.00  0.00     0.133 C 
BRANCH  11  12
HETATM   12  C8  UNL     1      20.510  -0.776  54.433  1.00  0.00     0.254 C 
BRANCH  12  13
HETATM   13  N2  UNL     1      19.388  -1.447  53.825  1.00  0.00     0.086 N 
HETATM   14  H10 UNL     1      19.576  -2.467  53.711  1.00  0.00     0.313 HD
HETATM   15  H11 UNL     1      18.555  -1.317  54.418  1.00  0.00     0.313 HD
ENDBRANCH  12  13
BRANCH  12  16
HETATM   16  C9  UNL     1      21.759  -1.636  54.411  1.00  0.00     0.200 C 
BRANCH  16  17
HETATM   17  O3  UNL     1      22.656  -1.414  55.414  1.00  0.00    -0.399 OA
HETATM   18  H14 UNL     1      22.907  -2.241  55.840  1.00  0.00     0.209 HD
ENDBRANCH  16  17
ENDBRANCH  12  16
ENDBRANCH  11  12
ENDBRANCH   9  11
ENDBRANCH   4   7
BRANCH   6  19
HETATM   19  C12 UNL     1      26.538   3.414  50.592  1.00  0.00     0.015 C 
HETATM   20  C13 UNL     1      25.849   4.045  49.702  1.00  0.00     0.012 C 
BRANCH  20  21
HETATM   21  C14 UNL     1      26.665   5.043  48.975  1.00  0.00    -0.036 A 
HETATM   22  C15 UNL     1      28.031   4.999  48.620  1.00  0.00     0.013 A 
HETATM   23  C16 UNL     1      28.825   5.917  47.994  1.00  0.00     0.024 A 
HETATM   24  C17 UNL     1      28.186   7.072  47.656  1.00  0.00     0.034 A 
HETATM   25 CL1  UNL     1      29.140   8.314  46.848  1.00  0.00    -0.084 Cl
HETATM   26  C18 UNL     1      26.857   7.315  47.914  1.00  0.00     0.024 A 
HETATM   27  C19 UNL     1      26.188   6.272  48.558  1.00  0.00     0.013 A 
ENDBRANCH  20  21
ENDBRANCH   6  19
BRANCH   1  28
HETATM   28  O1  UNL     1      27.930   1.927  52.471  1.00  0.00    -0.355 OA
HETATM   29  C1  UNL     1      28.713   1.326  53.469  1.00  0.00     0.210 C 
ENDBRANCH   1  28
TORSDOF 9
ENDMDL
MODEL 8
REMARK VINA RESULT:      -7.3      2.631      5.293
REMARK  9 active torsions:
REMARK  status: ('A' for Active; 'I' for Inactive)
REMARK    1  A    between atoms: O1_2  and  C2_3 
REMARK    2  A    between atoms: C5_6  and  C6_7 
REMARK       I    between atoms: C6_7  and  N1_9 
REMARK    3  A    between atoms: N1_9  and  C7_10 
REMARK    4  A    between atoms: C7_10  and  C8_11 
REMARK    5  A    between atoms: C8_11  and  N2_12 
REMARK    6  A    between atoms: C8_11  and  C9_13 
REMARK    7  A    between atoms: C9_13  and  O3_14 
REMARK    8  A    between atoms: C11_16  and  C12_17 
REMARK    9  A    between atoms: C13_18  and  C14_19 
ROOT
HETATM    1  C2  UNL     1      26.281   0.371  53.028  1.00  0.00     0.078 A 
HETATM    2  C3  UNL     1      25.988  -0.659  53.859  1.00  0.00     0.038 A 
HETATM    3  C4  UNL     1      24.646  -0.778  54.080  1.00  0.00     0.019 A 
HETATM    4  C5  UNL     1      23.642   0.035  53.539  1.00  0.00     0.027 A 
HETATM    5  C10 UNL     1      24.102   1.047  52.708  1.00  0.00     0.030 A 
HETATM    6  C11 UNL     1      25.423   1.256  52.422  1.00  0.00    -0.002 A 
ENDROOT
BRANCH   4   7
HETATM    7  C6  UNL     1      22.209   0.012  53.659  1.00  0.00     0.231 C 
HETATM    8  O2  UNL     1      21.622  -0.139  54.782  1.00  0.00    -0.274 OA
HETATM    9  N1  UNL     1      21.650   0.187  52.345  1.00  0.00    -0.257 NA
HETATM   10  H6  UNL     1      20.770   0.174  52.787  1.00  0.00     0.130 HD
BRANCH   9  11
HETATM   11  C7  UNL     1      20.686   0.330  51.317  1.00  0.00     0.133 C 
BRANCH  11  12
HETATM   12  C8  UNL     1      19.273   0.677  51.718  1.00  0.00     0.254 C 
BRANCH  12  13
HETATM   13  N2  UNL     1      18.507   1.269  50.649  1.00  0.00     0.086 N 
HETATM   14  H10 UNL     1      18.588   0.709  49.773  1.00  0.00     0.313 HD
HETATM   15  H11 UNL     1      17.518   1.321  50.932  1.00  0.00     0.313 HD
ENDBRANCH  12  13
BRANCH  12  16
HETATM   16  C9  UNL     1      18.537  -0.481  52.363  1.00  0.00     0.200 C 
BRANCH  16  17
HETATM   17  O3  UNL     1      18.938  -0.817  53.622  1.00  0.00    -0.399 OA
HETATM   18  H14 UNL     1      19.268  -0.046  54.096  1.00  0.00     0.209 HD
ENDBRANCH  16  17
ENDBRANCH  12  16
ENDBRANCH  11  12
ENDBRANCH   9  11
ENDBRANCH   4   7
BRANCH   6  19
HETATM   19  C12 UNL     1      25.865   2.343  51.534  1.00  0.00     0.015 C 
HETATM   20  C13 UNL     1      25.042   2.871  50.691  1.00  0.00     0.012 C 
BRANCH  20  21
HETATM   21  C14 UNL     1      25.678   3.943  49.894  1.00  0.00    -0.036 A 
HETATM   22  C15 UNL     1      26.956   3.978  49.294  1.00  0.00     0.013 A 
HETATM   23  C16 UNL     1      27.591   4.964  48.595  1.00  0.00     0.024 A 
HETATM   24  C17 UNL     1      26.865   6.108  48.454  1.00  0.00     0.034 A 
HETATM   25 CL1  UNL     1      27.614   7.435  47.567  1.00  0.00    -0.084 Cl
HETATM   26  C18 UNL     1      25.599   6.278  48.964  1.00  0.00     0.024 A 
HETATM   27  C19 UNL     1      25.093   5.173  49.651  1.00  0.00     0.013 A 
ENDBRANCH  20  21
ENDBRANCH   6  19
BRANCH   1  28
HETATM   28  O1  UNL     1      27.619   0.572  52.743  1.00  0.00    -0.355 OA
HETATM   29  C1  UNL     1      28.569   0.636  53.775  1.00  0.00     0.210 C 
ENDBRANCH   1  28
TORSDOF 9
ENDMDL
MODEL 9
REMARK VINA RESULT:      -7.3      4.629      7.819
REMARK  9 active torsions:
REMARK  status: ('A' for Active; 'I' for Inactive)
REMARK    1  A    between atoms: O1_2  and  C2_3 
REMARK    2  A    between atoms: C5_6  and  C6_7 
REMARK       I    between atoms: C6_7  and  N1_9 
REMARK    3  A    between atoms: N1_9  and  C7_10 
REMARK    4  A    between atoms: C7_10  and  C8_11 
REMARK    5  A    between atoms: C8_11  and  N2_12 
REMARK    6  A    between atoms: C8_11  and  C9_13 
REMARK    7  A    between atoms: C9_13  and  O3_14 
REMARK    8  A    between atoms: C11_16  and  C12_17 
REMARK    9  A    between atoms: C13_18  and  C14_19 
ROOT
HETATM    1  C2  UNL     1      24.464   5.848  48.943  1.00  0.00     0.078 A 
HETATM    2  C3  UNL     1      24.852   6.894  48.174  1.00  0.00     0.038 A 
HETATM    3  C4  UNL     1      26.206   6.936  48.004  1.00  0.00     0.019 A 
HETATM    4  C5  UNL     1      27.136   6.032  48.535  1.00  0.00     0.027 A 
HETATM    5  C10 UNL     1      26.583   5.017  49.302  1.00  0.00     0.030 A 
HETATM    6  C11 UNL     1      25.242   4.884  49.537  1.00  0.00    -0.002 A 
ENDROOT
BRANCH   4   7
HETATM    7  C6  UNL     1      28.566   5.936  48.420  1.00  0.00     0.231 C 
HETATM    8  O2  UNL     1      29.153   4.844  48.118  1.00  0.00    -0.274 OA
HETATM    9  N1  UNL     1      29.122   7.235  48.693  1.00  0.00    -0.257 NA
HETATM   10  H6  UNL     1      29.997   6.832  48.489  1.00  0.00     0.130 HD
BRANCH   9  11
HETATM   11  C7  UNL     1      30.082   8.262  48.868  1.00  0.00     0.133 C 
BRANCH  11  12
HETATM   12  C8  UNL     1      29.611   9.578  49.434  1.00  0.00     0.254 C 
BRANCH  12  13
HETATM   13  N2  UNL     1      30.067  10.718  48.678  1.00  0.00     0.086 N 
HETATM   14  H10 UNL     1      29.265  11.251  48.279  1.00  0.00     0.313 HD
HETATM   15  H11 UNL     1      30.614  11.336  49.296  1.00  0.00     0.313 HD
ENDBRANCH  12  13
BRANCH  12  16
HETATM   16  C9  UNL     1      28.114   9.622  49.670  1.00  0.00     0.200 C 
BRANCH  16  17
HETATM   17  O3  UNL     1      27.689   9.209  50.898  1.00  0.00    -0.399 OA
HETATM   18  H14 UNL     1      27.049   8.493  50.818  1.00  0.00     0.209 HD
ENDBRANCH  16  17
ENDBRANCH  12  16
ENDBRANCH  11  12
ENDBRANCH   9  11
ENDBRANCH   4   7
BRANCH   6  19
HETATM   19  C12 UNL     1      24.699   3.789  50.357  1.00  0.00     0.015 C 
HETATM   20  C13 UNL     1      25.461   2.817  50.732  1.00  0.00     0.012 C 
BRANCH  20  21
HETATM   21  C14 UNL     1      24.728   1.822  51.546  1.00  0.00    -0.036 A 
HETATM   22  C15 UNL     1      23.345   1.546  51.595  1.00  0.00     0.013 A 
HETATM   23  C16 UNL     1      22.631   0.672  52.365  1.00  0.00     0.024 A 
HETATM   24  C17 UNL     1      23.388  -0.056  53.234  1.00  0.00     0.034 A 
HETATM   25 CL1  UNL     1      22.545  -1.206  54.269  1.00  0.00    -0.084 Cl
HETATM   26  C18 UNL     1      24.753   0.062  53.343  1.00  0.00     0.024 A 
HETATM   27  C19 UNL     1      25.329   1.000  52.482  1.00  0.00     0.013 A 
ENDBRANCH  20  21
ENDBRANCH   6  19
BRANCH   1  28
HETATM   28  O1  UNL     1      23.106   5.722  49.171  1.00  0.00    -0.355 OA
HETATM   29  C1  UNL     1      22.390   6.742  49.818  1.00  0.00     0.210 C 
ENDBRANCH   1  28
TORSDOF 9
ENDMDL
