MODEL 1
REMARK VINA RESULT:      -9.6      0.000      0.000
REMARK  2 active torsions:
REMARK  status: ('A' for Active; 'I' for Inactive)
REMARK    1  A    between atoms: S1_2  and  N1_5 
REMARK    2  A    between atoms: N1_5  and  C2_6 
ROOT
HETATM    1  C2  UNL     1      26.039   0.831  52.134  1.00  0.00     0.043 A 
HETATM    2  C3  UNL     1      24.793   1.027  52.730  1.00  0.00     0.031 A 
HETATM    3  C4  UNL     1      23.995   2.138  52.476  1.00  0.00     0.017 A 
HETATM    4  C5  UNL     1      24.536   3.055  51.569  1.00  0.00     0.004 A 
HETATM    5  C6  UNL     1      25.803   2.860  50.954  1.00  0.00    -0.017 A 
HETATM    6  C7  UNL     1      26.544   1.773  51.230  1.00  0.00     0.040 A 
HETATM    7  C8  UNL     1      25.988   3.918  49.983  1.00  0.00     0.139 C 
HETATM    8  C9  UNL     1      27.110   4.041  49.110  1.00  0.00     0.003 C 
HETATM    9  C10 UNL     1      27.457   5.230  48.612  1.00  0.00    -0.002 C 
HETATM   10  C11 UNL     1      27.162   6.630  48.574  1.00  0.00    -0.003 C 
HETATM   11  C12 UNL     1      26.396   7.621  49.046  1.00  0.00    -0.007 C 
HETATM   12  C13 UNL     1      25.321   7.646  50.052  1.00  0.00     0.148 C 
HETATM   13  N2  UNL     1      23.974   7.671  49.643  1.00  0.00    -0.369 N 
HETATM   14  C14 UNL     1      23.483   6.530  50.398  1.00  0.00     0.154 A 
HETATM   15  N3  UNL     1      22.216   6.496  50.840  1.00  0.00    -0.222 NA
HETATM   16  C15 UNL     1      21.720   5.457  51.545  1.00  0.00     0.236 A 
HETATM   17  N4  UNL     1      22.452   4.348  51.869  1.00  0.00    -0.239 NA
HETATM   18  C16 UNL     1      23.742   4.310  51.451  1.00  0.00     0.099 A 
HETATM   19  C17 UNL     1      24.199   5.396  50.744  1.00  0.00     0.105 A 
HETATM   20  N5  UNL     1      25.629   5.138  50.626  1.00  0.00    -0.373 N 
HETATM   21  H15 UNL     1      23.318   8.191  49.047  1.00  0.00     0.161 HD
HETATM   22  H17 UNL     1      26.643   5.413  50.816  1.00  0.00     0.161 HD
ENDROOT
BRANCH   1  23
HETATM   23  N1  UNL     1      26.851  -0.304  52.401  1.00  0.00    -0.285 N 
HETATM   24  H4  UNL     1      26.690  -1.118  51.742  1.00  0.00     0.178 HD
BRANCH  23  25
HETATM   25  S1  UNL     1      28.014  -0.407  53.667  1.00  0.00     0.227 S 
HETATM   26  C1  UNL     1      29.187   0.905  53.648  1.00  0.00     0.186 C 
HETATM   27  O1  UNL     1      27.278  -0.400  54.998  1.00  0.00    -0.206 OA
HETATM   28  O2  UNL     1      28.677  -1.749  53.591  1.00  0.00    -0.206 OA
ENDBRANCH  23  25
ENDBRANCH   1  23
TORSDOF 2
ENDMDL
MODEL 2
REMARK VINA RESULT:      -9.3      2.856      5.582
REMARK  2 active torsions:
REMARK  status: ('A' for Active; 'I' for Inactive)
REMARK    1  A    between atoms: S1_2  and  N1_5 
REMARK    2  A    between atoms: N1_5  and  C2_6 
ROOT
HETATM    1  C2  UNL     1      26.493   0.425  52.379  1.00  0.00     0.043 A 
HETATM    2  C3  UNL     1      26.440   1.562  51.573  1.00  0.00     0.031 A 
HETATM    3  C4  UNL     1      25.257   2.235  51.286  1.00  0.00     0.017 A 
HETATM    4  C5  UNL     1      24.111   1.686  51.870  1.00  0.00     0.004 A 
HETATM    5  C6  UNL     1      24.158   0.531  52.697  1.00  0.00    -0.017 A 
HETATM    6  C7  UNL     1      25.322  -0.093  52.947  1.00  0.00     0.040 A 
HETATM    7  C8  UNL     1      22.830   0.321  53.236  1.00  0.00     0.139 C 
HETATM    8  C9  UNL     1      22.475  -0.703  54.163  1.00  0.00     0.003 C 
HETATM    9  C10 UNL     1      21.216  -1.140  54.244  1.00  0.00    -0.002 C 
HETATM   10  C11 UNL     1      19.887  -1.023  53.729  1.00  0.00    -0.003 C 
HETATM   11  C12 UNL     1      19.089  -0.447  52.821  1.00  0.00    -0.007 C 
HETATM   12  C13 UNL     1      19.361   0.499  51.725  1.00  0.00     0.148 C 
HETATM   13  N2  UNL     1      19.081   1.868  51.891  1.00  0.00    -0.369 N 
HETATM   14  C14 UNL     1      20.381   2.413  51.534  1.00  0.00     0.154 A 
HETATM   15  N3  UNL     1      20.481   3.618  50.950  1.00  0.00    -0.222 NA
HETATM   16  C15 UNL     1      21.667   4.160  50.602  1.00  0.00     0.236 A 
HETATM   17  N4  UNL     1      22.869   3.544  50.815  1.00  0.00    -0.239 NA
HETATM   18  C16 UNL     1      22.846   2.323  51.406  1.00  0.00     0.099 A 
HETATM   19  C17 UNL     1      21.613   1.813  51.733  1.00  0.00     0.105 A 
HETATM   20  N5  UNL     1      21.916   0.450  52.150  1.00  0.00    -0.373 N 
HETATM   21  H15 UNL     1      18.327   2.515  52.153  1.00  0.00     0.161 HD
HETATM   22  H17 UNL     1      21.812  -0.606  52.027  1.00  0.00     0.161 HD
ENDROOT
BRANCH   1  23
HETATM   23  N1  UNL     1      27.703  -0.261  52.666  1.00  0.00    -0.285 N 
HETATM   24  H4  UNL     1      27.940  -1.033  51.980  1.00  0.00     0.178 HD
BRANCH  23  25
HETATM   25  S1  UNL     1      28.741   0.087  53.997  1.00  0.00     0.227 S 
HETATM   26  C1  UNL     1      29.185   1.787  54.111  1.00  0.00     0.186 C 
HETATM   27  O1  UNL     1      28.037  -0.334  55.278  1.00  0.00    -0.206 OA
HETATM   28  O2  UNL     1      29.946  -0.799  53.900  1.00  0.00    -0.206 OA
ENDBRANCH  23  25
ENDBRANCH   1  23
TORSDOF 2
ENDMDL
MODEL 3
REMARK VINA RESULT:      -9.1      1.976      2.883
REMARK  2 active torsions:
REMARK  status: ('A' for Active; 'I' for Inactive)
REMARK    1  A    between atoms: S1_2  and  N1_5 
REMARK    2  A    between atoms: N1_5  and  C2_6 
ROOT
HETATM    1  C2  UNL     1      26.218   0.131  52.632  1.00  0.00     0.043 A 
HETATM    2  C3  UNL     1      25.146  -0.376  53.368  1.00  0.00     0.031 A 
HETATM    3  C4  UNL     1      23.862   0.154  53.304  1.00  0.00     0.017 A 
HETATM    4  C5  UNL     1      23.718   1.244  52.440  1.00  0.00     0.004 A 
HETATM    5  C6  UNL     1      24.804   1.763  51.683  1.00  0.00    -0.017 A 
HETATM    6  C7  UNL     1      26.032   1.223  51.776  1.00  0.00     0.040 A 
HETATM    7  C8  UNL     1      24.279   2.788  50.805  1.00  0.00     0.139 C 
HETATM    8  C9  UNL     1      25.041   3.508  49.838  1.00  0.00     0.003 C 
HETATM    9  C10 UNL     1      24.649   4.715  49.424  1.00  0.00    -0.002 C 
HETATM   10  C11 UNL     1      23.669   5.750  49.551  1.00  0.00    -0.003 C 
HETATM   11  C12 UNL     1      22.574   6.175  50.192  1.00  0.00    -0.007 C 
HETATM   12  C13 UNL     1      21.791   5.600  51.300  1.00  0.00     0.148 C 
HETATM   13  N2  UNL     1      20.585   4.924  51.034  1.00  0.00    -0.369 N 
HETATM   14  C14 UNL     1      20.866   3.675  51.722  1.00  0.00     0.154 A 
HETATM   15  N3  UNL     1      19.875   2.966  52.285  1.00  0.00    -0.222 NA
HETATM   16  C15 UNL     1      20.092   1.802  52.933  1.00  0.00     0.236 A 
HETATM   17  N4  UNL     1      21.330   1.236  53.073  1.00  0.00    -0.239 NA
HETATM   18  C16 UNL     1      22.381   1.895  52.524  1.00  0.00     0.099 A 
HETATM   19  C17 UNL     1      22.106   3.079  51.882  1.00  0.00     0.105 A 
HETATM   20  N5  UNL     1      23.430   3.617  51.595  1.00  0.00    -0.373 N 
HETATM   21  H15 UNL     1      19.681   5.037  50.561  1.00  0.00     0.161 HD
HETATM   22  H17 UNL     1      24.170   4.379  51.707  1.00  0.00     0.161 HD
ENDROOT
BRANCH   1  23
HETATM   23  N1  UNL     1      27.528  -0.413  52.704  1.00  0.00    -0.285 N 
HETATM   24  H4  UNL     1      27.715  -1.192  52.010  1.00  0.00     0.178 HD
BRANCH  23  25
HETATM   25  S1  UNL     1      28.751   0.106  53.801  1.00  0.00     0.227 S 
HETATM   26  C1  UNL     1      28.998   1.849  53.799  1.00  0.00     0.186 C 
HETATM   27  O1  UNL     1      28.363  -0.343  55.201  1.00  0.00    -0.206 OA
HETATM   28  O2  UNL     1      30.014  -0.636  53.485  1.00  0.00    -0.206 OA
ENDBRANCH  23  25
ENDBRANCH   1  23
TORSDOF 2
ENDMDL
MODEL 4
REMARK VINA RESULT:      -8.7      5.311      7.751
REMARK  2 active torsions:
REMARK  status: ('A' for Active; 'I' for Inactive)
REMARK    1  A    between atoms: S1_2  and  N1_5 
REMARK    2  A    between atoms: N1_5  and  C2_6 
ROOT
HETATM    1  C2  UNL     1      19.637   0.731  51.759  1.00  0.00     0.043 A 
HETATM    2  C3  UNL     1      19.467  -0.166  52.814  1.00  0.00     0.031 A 
HETATM    3  C4  UNL     1      20.510  -0.581  53.634  1.00  0.00     0.017 A 
HETATM    4  C5  UNL     1      21.757  -0.030  53.324  1.00  0.00     0.004 A 
HETATM    5  C6  UNL     1      21.938   0.889  52.254  1.00  0.00    -0.017 A 
HETATM    6  C7  UNL     1      20.903   1.263  51.483  1.00  0.00     0.040 A 
HETATM    7  C8  UNL     1      23.307   1.357  52.303  1.00  0.00     0.139 C 
HETATM    8  C9  UNL     1      23.869   2.339  51.434  1.00  0.00     0.003 C 
HETATM    9  C10 UNL     1      25.183   2.374  51.206  1.00  0.00    -0.002 C 
HETATM   10  C11 UNL     1      26.449   1.767  51.481  1.00  0.00    -0.003 C 
HETATM   11  C12 UNL     1      27.097   0.767  52.091  1.00  0.00    -0.007 C 
HETATM   12  C13 UNL     1      26.622  -0.382  52.880  1.00  0.00     0.148 C 
HETATM   13  N2  UNL     1      26.688  -0.346  54.286  1.00  0.00    -0.369 N 
HETATM   14  C14 UNL     1      25.301  -0.662  54.588  1.00  0.00     0.154 A 
HETATM   15  N3  UNL     1      24.980  -1.334  55.705  1.00  0.00    -0.222 NA
HETATM   16  C15 UNL     1      23.706  -1.647  56.024  1.00  0.00     0.236 A 
HETATM   17  N4  UNL     1      22.630  -1.309  55.250  1.00  0.00    -0.239 NA
HETATM   18  C16 UNL     1      22.878  -0.623  54.105  1.00  0.00     0.099 A 
HETATM   19  C17 UNL     1      24.193  -0.336  53.824  1.00  0.00     0.105 A 
HETATM   20  N5  UNL     1      24.133   0.208  52.473  1.00  0.00    -0.373 N 
HETATM   21  H15 UNL     1      27.340  -0.186  55.063  1.00  0.00     0.161 HD
HETATM   22  H17 UNL     1      24.398   0.164  51.440  1.00  0.00     0.161 HD
ENDROOT
BRANCH   1  23
HETATM   23  N1  UNL     1      18.568   1.149  50.922  1.00  0.00    -0.285 N 
HETATM   24  H4  UNL     1      18.319   0.460  50.157  1.00  0.00     0.178 HD
BRANCH  23  25
HETATM   25  S1  UNL     1      17.710   2.635  51.088  1.00  0.00     0.227 S 
HETATM   26  C1  UNL     1      16.049   2.426  51.630  1.00  0.00     0.186 C 
HETATM   27  O1  UNL     1      18.455   3.511  52.084  1.00  0.00    -0.206 OA
HETATM   28  O2  UNL     1      17.783   3.370  49.784  1.00  0.00    -0.206 OA
ENDBRANCH  23  25
ENDBRANCH   1  23
TORSDOF 2
ENDMDL
MODEL 5
REMARK VINA RESULT:      -8.7      4.370      7.249
REMARK  2 active torsions:
REMARK  status: ('A' for Active; 'I' for Inactive)
REMARK    1  A    between atoms: S1_2  and  N1_5 
REMARK    2  A    between atoms: N1_5  and  C2_6 
ROOT
HETATM    1  C2  UNL     1      25.482   2.970  51.293  1.00  0.00     0.043 A 
HETATM    2  C3  UNL     1      26.079   2.435  52.434  1.00  0.00     0.031 A 
HETATM    3  C4  UNL     1      25.473   1.463  53.224  1.00  0.00     0.017 A 
HETATM    4  C5  UNL     1      24.209   1.055  52.788  1.00  0.00     0.004 A 
HETATM    5  C6  UNL     1      23.597   1.593  51.623  1.00  0.00    -0.017 A 
HETATM    6  C7  UNL     1      24.215   2.533  50.888  1.00  0.00     0.040 A 
HETATM    7  C8  UNL     1      22.370   0.858  51.392  1.00  0.00     0.139 C 
HETATM    8  C9  UNL     1      21.495   1.053  50.282  1.00  0.00     0.003 C 
HETATM    9  C10 UNL     1      20.205   0.722  50.366  1.00  0.00    -0.002 C 
HETATM   10  C11 UNL     1      19.170   0.194  51.202  1.00  0.00    -0.003 C 
HETATM   11  C12 UNL     1      18.838  -0.245  52.422  1.00  0.00    -0.007 C 
HETATM   12  C13 UNL     1      19.602  -0.350  53.677  1.00  0.00     0.148 C 
HETATM   13  N2  UNL     1      20.127  -1.592  54.080  1.00  0.00    -0.369 N 
HETATM   14  C14 UNL     1      21.515  -1.203  54.272  1.00  0.00     0.154 A 
HETATM   15  N3  UNL     1      22.274  -1.808  55.199  1.00  0.00    -0.222 NA
HETATM   16  C15 UNL     1      23.565  -1.477  55.410  1.00  0.00     0.236 A 
HETATM   17  N4  UNL     1      24.220  -0.507  54.703  1.00  0.00    -0.239 NA
HETATM   18  C16 UNL     1      23.516   0.147  53.744  1.00  0.00     0.099 A 
HETATM   19  C17 UNL     1      22.204  -0.223  53.575  1.00  0.00     0.105 A 
HETATM   20  N5  UNL     1      21.694   0.775  52.643  1.00  0.00    -0.373 N 
HETATM   21  H15 UNL     1      19.857  -2.567  54.258  1.00  0.00     0.161 HD
HETATM   22  H17 UNL     1      21.022   1.571  52.407  1.00  0.00     0.161 HD
ENDROOT
BRANCH   1  23
HETATM   23  N1  UNL     1      26.105   3.965  50.492  1.00  0.00    -0.285 N 
HETATM   24  H4  UNL     1      27.114   3.757  50.246  1.00  0.00     0.178 HD
BRANCH  23  25
HETATM   25  S1  UNL     1      25.338   5.405  49.937  1.00  0.00     0.227 S 
HETATM   26  C1  UNL     1      26.469   6.611  49.333  1.00  0.00     0.186 C 
HETATM   27  O1  UNL     1      24.363   5.034  48.831  1.00  0.00    -0.206 OA
HETATM   28  O2  UNL     1      24.488   5.944  51.047  1.00  0.00    -0.206 OA
ENDBRANCH  23  25
ENDBRANCH   1  23
TORSDOF 2
ENDMDL
MODEL 6
REMARK VINA RESULT:      -8.6      3.916      6.553
REMARK  2 active torsions:
REMARK  status: ('A' for Active; 'I' for Inactive)
REMARK    1  A    between atoms: S1_2  and  N1_5 
REMARK    2  A    between atoms: N1_5  and  C2_6 
ROOT
HETATM    1  C2  UNL     1      24.598   0.520  52.693  1.00  0.00     0.043 A 
HETATM    2  C3  UNL     1      24.542   1.751  52.039  1.00  0.00     0.031 A 
HETATM    3  C4  UNL     1      23.347   2.388  51.721  1.00  0.00     0.017 A 
HETATM    4  C5  UNL     1      22.192   1.701  52.107  1.00  0.00     0.004 A 
HETATM    5  C6  UNL     1      22.242   0.449  52.779  1.00  0.00    -0.017 A 
HETATM    6  C7  UNL     1      23.418  -0.135  53.066  1.00  0.00     0.040 A 
HETATM    7  C8  UNL     1      20.887   0.093  53.147  1.00  0.00     0.139 C 
HETATM    8  C9  UNL     1      20.518  -1.065  53.893  1.00  0.00     0.003 C 
HETATM    9  C10 UNL     1      19.292  -1.581  53.787  1.00  0.00    -0.002 C 
HETATM   10  C11 UNL     1      18.012  -1.472  53.157  1.00  0.00    -0.003 C 
HETATM   11  C12 UNL     1      17.266  -0.825  52.254  1.00  0.00    -0.007 C 
HETATM   12  C13 UNL     1      17.573   0.274  51.322  1.00  0.00     0.148 C 
HETATM   13  N2  UNL     1      17.183   1.590  51.633  1.00  0.00    -0.369 N 
HETATM   14  C14 UNL     1      18.469   2.252  51.485  1.00  0.00     0.154 A 
HETATM   15  N3  UNL     1      18.539   3.528  51.073  1.00  0.00    -0.222 NA
HETATM   16  C15 UNL     1      19.712   4.179  50.923  1.00  0.00     0.236 A 
HETATM   17  N4  UNL     1      20.929   3.609  51.177  1.00  0.00    -0.239 NA
HETATM   18  C16 UNL     1      20.936   2.321  51.601  1.00  0.00     0.099 A 
HETATM   19  C17 UNL     1      19.716   1.701  51.731  1.00  0.00     0.105 A 
HETATM   20  N5  UNL     1      20.074   0.314  51.998  1.00  0.00    -0.373 N 
HETATM   21  H15 UNL     1      16.364   2.152  51.896  1.00  0.00     0.161 HD
HETATM   22  H17 UNL     1      20.056  -0.720  51.731  1.00  0.00     0.161 HD
ENDROOT
BRANCH   1  23
HETATM   23  N1  UNL     1      25.821  -0.128  53.013  1.00  0.00    -0.285 N 
HETATM   24  H4  UNL     1      26.128  -0.852  52.304  1.00  0.00     0.178 HD
BRANCH  23  25
HETATM   25  S1  UNL     1      26.769   0.195  54.415  1.00  0.00     0.227 S 
HETATM   26  C1  UNL     1      28.474  -0.196  54.212  1.00  0.00     0.186 C 
HETATM   27  O1  UNL     1      26.631   1.670  54.760  1.00  0.00    -0.206 OA
HETATM   28  O2  UNL     1      26.164  -0.539  55.573  1.00  0.00    -0.206 OA
ENDBRANCH  23  25
ENDBRANCH   1  23
TORSDOF 2
ENDMDL
MODEL 7
REMARK VINA RESULT:      -8.3      4.931      7.185
REMARK  2 active torsions:
REMARK  status: ('A' for Active; 'I' for Inactive)
REMARK    1  A    between atoms: S1_2  and  N1_5 
REMARK    2  A    between atoms: N1_5  and  C2_6 
ROOT
HETATM    1  C2  UNL     1      21.500   1.696  49.622  1.00  0.00     0.043 A 
HETATM    2  C3  UNL     1      20.726   0.832  50.395  1.00  0.00     0.031 A 
HETATM    3  C4  UNL     1      21.183   0.248  51.572  1.00  0.00     0.017 A 
HETATM    4  C5  UNL     1      22.490   0.593  51.930  1.00  0.00     0.004 A 
HETATM    5  C6  UNL     1      23.284   1.478  51.150  1.00  0.00    -0.017 A 
HETATM    6  C7  UNL     1      22.804   2.019  50.017  1.00  0.00     0.040 A 
HETATM    7  C8  UNL     1      24.515   1.719  51.874  1.00  0.00     0.139 C 
HETATM    8  C9  UNL     1      25.552   2.603  51.454  1.00  0.00     0.003 C 
HETATM    9  C10 UNL     1      26.807   2.428  51.873  1.00  0.00    -0.002 C 
HETATM   10  C11 UNL     1      27.691   1.623  52.659  1.00  0.00    -0.003 C 
HETATM   11  C12 UNL     1      27.825   0.528  53.416  1.00  0.00    -0.007 C 
HETATM   12  C13 UNL     1      26.877  -0.535  53.793  1.00  0.00     0.148 C 
HETATM   13  N2  UNL     1      26.270  -0.519  55.062  1.00  0.00    -0.369 N 
HETATM   14  C14 UNL     1      24.878  -0.610  54.652  1.00  0.00     0.154 A 
HETATM   15  N3  UNL     1      23.974  -1.228  55.428  1.00  0.00    -0.222 NA
HETATM   16  C15 UNL     1      22.673  -1.335  55.085  1.00  0.00     0.236 A 
HETATM   17  N4  UNL     1      22.154  -0.823  53.927  1.00  0.00    -0.239 NA
HETATM   18  C16 UNL     1      23.010  -0.178  53.094  1.00  0.00     0.099 A 
HETATM   19  C17 UNL     1      24.325  -0.105  53.487  1.00  0.00     0.105 A 
HETATM   20  N5  UNL     1      24.991   0.451  52.316  1.00  0.00    -0.373 N 
HETATM   21  H15 UNL     1      26.489  -0.471  56.065  1.00  0.00     0.161 HD
HETATM   22  H17 UNL     1      25.708   0.372  51.528  1.00  0.00     0.161 HD
ENDROOT
BRANCH   1  23
HETATM   23  N1  UNL     1      21.028   2.287  48.419  1.00  0.00    -0.285 N 
HETATM   24  H4  UNL     1      20.806   1.592  47.651  1.00  0.00     0.178 HD
BRANCH  23  25
HETATM   25  S1  UNL     1      20.813   3.978  48.171  1.00  0.00     0.227 S 
HETATM   26  C1  UNL     1      22.204   4.758  47.426  1.00  0.00     0.186 C 
HETATM   27  O1  UNL     1      19.592   4.182  47.287  1.00  0.00    -0.206 OA
HETATM   28  O2  UNL     1      20.458   4.607  49.484  1.00  0.00    -0.206 OA
ENDBRANCH  23  25
ENDBRANCH   1  23
TORSDOF 2
ENDMDL
MODEL 8
REMARK VINA RESULT:      -8.2      3.933      7.624
REMARK  2 active torsions:
REMARK  status: ('A' for Active; 'I' for Inactive)
REMARK    1  A    between atoms: S1_2  and  N1_5 
REMARK    2  A    between atoms: N1_5  and  C2_6 
ROOT
HETATM    1  C2  UNL     1      24.514   3.888  49.806  1.00  0.00     0.043 A 
HETATM    2  C3  UNL     1      25.879   3.845  50.093  1.00  0.00     0.031 A 
HETATM    3  C4  UNL     1      26.445   2.912  50.955  1.00  0.00     0.017 A 
HETATM    4  C5  UNL     1      25.539   2.009  51.521  1.00  0.00     0.004 A 
HETATM    5  C6  UNL     1      24.148   2.043  51.229  1.00  0.00    -0.017 A 
HETATM    6  C7  UNL     1      23.641   2.964  50.391  1.00  0.00     0.040 A 
HETATM    7  C8  UNL     1      23.536   0.898  51.868  1.00  0.00     0.139 C 
HETATM    8  C9  UNL     1      22.159   0.540  51.764  1.00  0.00     0.003 C 
HETATM    9  C10 UNL     1      21.572  -0.193  52.712  1.00  0.00    -0.002 C 
HETATM   10  C11 UNL     1      21.741  -0.860  53.967  1.00  0.00    -0.003 C 
HETATM   11  C12 UNL     1      22.565  -1.121  54.989  1.00  0.00    -0.007 C 
HETATM   12  C13 UNL     1      23.942  -0.689  55.283  1.00  0.00     0.148 C 
HETATM   13  N2  UNL     1      25.021  -1.558  55.035  1.00  0.00    -0.369 N 
HETATM   14  C14 UNL     1      25.837  -0.679  54.211  1.00  0.00     0.154 A 
HETATM   15  N3  UNL     1      27.176  -0.775  54.227  1.00  0.00    -0.222 NA
HETATM   16  C15 UNL     1      27.970   0.020  53.479  1.00  0.00     0.236 A 
HETATM   17  N4  UNL     1      27.492   0.986  52.638  1.00  0.00    -0.239 NA
HETATM   18  C16 UNL     1      26.145   1.138  52.566  1.00  0.00     0.099 A 
HETATM   19  C17 UNL     1      25.383   0.309  53.354  1.00  0.00     0.105 A 
HETATM   20  N5  UNL     1      24.038   0.849  53.201  1.00  0.00    -0.373 N 
HETATM   21  H15 UNL     1      25.362  -2.505  55.237  1.00  0.00     0.161 HD
HETATM   22  H17 UNL     1      23.161   1.294  53.617  1.00  0.00     0.161 HD
ENDROOT
BRANCH   1  23
HETATM   23  N1  UNL     1      23.942   4.846  48.926  1.00  0.00    -0.285 N 
HETATM   24  H4  UNL     1      23.748   4.481  47.951  1.00  0.00     0.178 HD
BRANCH  23  25
HETATM   25  S1  UNL     1      23.570   6.474  49.351  1.00  0.00     0.227 S 
HETATM   26  C1  UNL     1      21.916   6.937  48.965  1.00  0.00     0.186 C 
HETATM   27  O1  UNL     1      23.803   6.646  50.844  1.00  0.00    -0.206 OA
HETATM   28  O2  UNL     1      24.570   7.374  48.690  1.00  0.00    -0.206 OA
ENDBRANCH  23  25
ENDBRANCH   1  23
TORSDOF 2
ENDMDL
MODEL 9
REMARK VINA RESULT:      -7.9      4.614      7.532
REMARK  2 active torsions:
REMARK  status: ('A' for Active; 'I' for Inactive)
REMARK    1  A    between atoms: S1_2  and  N1_5 
REMARK    2  A    between atoms: N1_5  and  C2_6 
ROOT
HETATM    1  C2  UNL     1      24.111   5.306  48.675  1.00  0.00     0.043 A 
HETATM    2  C3  UNL     1      25.420   5.366  49.153  1.00  0.00     0.031 A 
HETATM    3  C4  UNL     1      25.969   4.398  49.988  1.00  0.00     0.017 A 
HETATM    4  C5  UNL     1      25.107   3.348  50.318  1.00  0.00     0.004 A 
HETATM    5  C6  UNL     1      23.773   3.278  49.831  1.00  0.00    -0.017 A 
HETATM    6  C7  UNL     1      23.280   4.236  49.028  1.00  0.00     0.040 A 
HETATM    7  C8  UNL     1      23.217   2.009  50.252  1.00  0.00     0.139 C 
HETATM    8  C9  UNL     1      21.917   1.530  49.910  1.00  0.00     0.003 C 
HETATM    9  C10 UNL     1      21.297   0.635  50.682  1.00  0.00    -0.002 C 
HETATM   10  C11 UNL     1      21.372  -0.156  51.872  1.00  0.00    -0.003 C 
HETATM   11  C12 UNL     1      22.076  -0.453  52.971  1.00  0.00    -0.007 C 
HETATM   12  C13 UNL     1      23.341   0.077  53.507  1.00  0.00     0.148 C 
HETATM   13  N2  UNL     1      24.537  -0.644  53.331  1.00  0.00    -0.369 N 
HETATM   14  C14 UNL     1      25.349   0.403  52.731  1.00  0.00     0.154 A 
HETATM   15  N3  UNL     1      26.676   0.440  52.933  1.00  0.00    -0.222 NA
HETATM   16  C15 UNL     1      27.466   1.393  52.395  1.00  0.00     0.236 A 
HETATM   17  N4  UNL     1      26.996   2.400  51.598  1.00  0.00    -0.239 NA
HETATM   18  C16 UNL     1      25.663   2.424  51.346  1.00  0.00     0.099 A 
HETATM   19  C17 UNL     1      24.903   1.435  51.923  1.00  0.00     0.105 A 
HETATM   20  N5  UNL     1      23.537   1.853  51.632  1.00  0.00    -0.373 N 
HETATM   21  H15 UNL     1      24.955  -1.570  53.482  1.00  0.00     0.161 HD
HETATM   22  H17 UNL     1      22.567   2.156  51.959  1.00  0.00     0.161 HD
ENDROOT
BRANCH   1  23
HETATM   23  N1  UNL     1      23.555   6.299  47.825  1.00  0.00    -0.285 N 
HETATM   24  H4  UNL     1      23.345   5.964  46.843  1.00  0.00     0.178 HD
BRANCH  23  25
HETATM   25  S1  UNL     1      23.226   7.925  48.294  1.00  0.00     0.227 S 
HETATM   26  C1  UNL     1      22.816   8.091  49.997  1.00  0.00     0.186 C 
HETATM   27  O1  UNL     1      24.453   8.770  47.990  1.00  0.00    -0.206 OA
HETATM   28  O2  UNL     1      22.147   8.463  47.405  1.00  0.00    -0.206 OA
ENDBRANCH  23  25
ENDBRANCH   1  23
TORSDOF 2
ENDMDL
