MODEL 1
REMARK VINA RESULT:      -7.7      0.000      0.000
REMARK  3 active torsions:
REMARK  status: ('A' for Active; 'I' for Inactive)
REMARK    1  A    between atoms: C2_2  and  C3_3 
REMARK    2  A    between atoms: N3_10  and  C8_11 
REMARK    3  A    between atoms: C17_20  and  O1_21 
ROOT
HETATM    1  C3  UNL     1      24.646   3.009  52.220  1.00  0.00    -0.070 C 
HETATM    2  C4  UNL     1      25.241   3.262  53.413  1.00  0.00     0.033 C 
HETATM    3  C5  UNL     1      26.074   2.078  53.742  1.00  0.00     0.065 C 
HETATM    4  N1  UNL     1      26.446   1.426  54.760  1.00  0.00    -0.244 NA
HETATM    5  C6  UNL     1      27.277   0.283  54.746  1.00  0.00     0.229 C 
HETATM    6  N2  UNL     1      26.894  -0.705  54.072  1.00  0.00    -0.264 NA
HETATM    7  C7  UNL     1      25.762  -0.961  53.274  1.00  0.00     0.269 C 
HETATM    8  N3  UNL     1      24.694  -0.073  53.482  1.00  0.00    -0.386 N 
HETATM    9  C15 UNL     1      24.228   0.615  52.325  1.00  0.00     0.131 C 
HETATM   10  C16 UNL     1      25.118   1.645  51.730  1.00  0.00     0.067 C 
HETATM   11  C17 UNL     1      26.517   1.699  52.345  1.00  0.00     0.179 C 
ENDROOT
BRANCH   8  12
HETATM   12  C8  UNL     1      23.741  -0.321  54.487  1.00  0.00     0.118 A 
HETATM   13  C9  UNL     1      23.346  -1.651  54.951  1.00  0.00     0.065 A 
HETATM   14  C10 UNL     1      21.945  -1.412  54.487  1.00  0.00    -0.066 A 
HETATM   15  C11 UNL     1      22.311  -0.215  54.072  1.00  0.00    -0.033 A 
HETATM   16  C14 UNL     1      20.491  -1.576  54.180  1.00  0.00     0.062 A 
HETATM   17  C12 UNL     1      21.202   0.544  53.462  1.00  0.00     0.006 A 
HETATM   18  C13 UNL     1      20.145  -0.280  53.539  1.00  0.00    -0.022 A 
ENDBRANCH   8  12
BRANCH   1  19
HETATM   19  C2  UNL     1      23.707   3.946  51.562  1.00  0.00     0.030 C 
HETATM   20  C1  UNL     1      22.332   3.890  52.223  1.00  0.00     0.010 C 
ENDBRANCH   1  19
BRANCH  11  21
HETATM   21  O1  UNL     1      27.165   2.792  51.742  1.00  0.00    -0.389 OA
HETATM   22  H21 UNL     1      28.085   2.469  51.501  1.00  0.00     0.210 HD
ENDBRANCH  11  21
TORSDOF 3
ENDMDL
MODEL 2
REMARK VINA RESULT:      -7.7      1.797      3.833
REMARK  3 active torsions:
REMARK  status: ('A' for Active; 'I' for Inactive)
REMARK    1  A    between atoms: C2_2  and  C3_3 
REMARK    2  A    between atoms: N3_10  and  C8_11 
REMARK    3  A    between atoms: C17_20  and  O1_21 
ROOT
HETATM    1  C3  UNL     1      27.231   0.306  52.786  1.00  0.00    -0.070 C 
HETATM    2  C4  UNL     1      27.126   0.682  51.487  1.00  0.00     0.033 C 
HETATM    3  C5  UNL     1      26.296   1.912  51.457  1.00  0.00     0.065 C 
HETATM    4  N1  UNL     1      25.441   2.469  50.709  1.00  0.00    -0.244 NA
HETATM    5  C6  UNL     1      24.795   3.698  50.972  1.00  0.00     0.229 C 
HETATM    6  N2  UNL     1      24.139   3.793  52.039  1.00  0.00    -0.264 NA
HETATM    7  C7  UNL     1      23.879   2.909  53.105  1.00  0.00     0.269 C 
HETATM    8  N3  UNL     1      24.146   1.560  52.819  1.00  0.00    -0.386 N 
HETATM    9  C15 UNL     1      25.058   0.910  53.698  1.00  0.00     0.131 C 
HETATM   10  C16 UNL     1      26.485   1.324  53.640  1.00  0.00     0.067 C 
HETATM   11  C17 UNL     1      26.752   2.542  52.756  1.00  0.00     0.179 C 
ENDROOT
BRANCH   8  12
HETATM   12  C8  UNL     1      23.164   0.746  52.223  1.00  0.00     0.118 A 
HETATM   13  C9  UNL     1      21.832   1.202  51.828  1.00  0.00     0.065 A 
HETATM   14  C10 UNL     1      21.204   0.254  52.799  1.00  0.00    -0.066 A 
HETATM   15  C11 UNL     1      22.410  -0.149  53.149  1.00  0.00    -0.033 A 
HETATM   16  C14 UNL     1      20.212  -0.515  53.611  1.00  0.00     0.062 A 
HETATM   17  C12 UNL     1      22.385  -1.194  54.191  1.00  0.00     0.006 A 
HETATM   18  C13 UNL     1      21.081  -1.390  54.444  1.00  0.00    -0.022 A 
ENDBRANCH   8  12
BRANCH   1  19
HETATM   19  C2  UNL     1      27.964  -0.902  53.229  1.00  0.00     0.030 C 
HETATM   20  C1  UNL     1      29.407  -0.559  53.588  1.00  0.00     0.010 C 
ENDBRANCH   1  19
BRANCH  11  21
HETATM   21  O1  UNL     1      28.147   2.709  52.736  1.00  0.00    -0.389 OA
HETATM   22  H21 UNL     1      28.392   3.101  53.628  1.00  0.00     0.210 HD
ENDBRANCH  11  21
TORSDOF 3
ENDMDL
MODEL 3
REMARK VINA RESULT:      -7.3      3.348      6.268
REMARK  3 active torsions:
REMARK  status: ('A' for Active; 'I' for Inactive)
REMARK    1  A    between atoms: C2_2  and  C3_3 
REMARK    2  A    between atoms: N3_10  and  C8_11 
REMARK    3  A    between atoms: C17_20  and  O1_21 
ROOT
HETATM    1  C3  UNL     1      21.438  -0.060  52.825  1.00  0.00    -0.070 C 
HETATM    2  C4  UNL     1      21.037   0.996  53.577  1.00  0.00     0.033 C 
HETATM    3  C5  UNL     1      20.321   1.926  52.669  1.00  0.00     0.065 C 
HETATM    4  N1  UNL     1      20.150   3.171  52.519  1.00  0.00    -0.244 NA
HETATM    5  C6  UNL     1      19.377   3.779  51.503  1.00  0.00     0.229 C 
HETATM    6  N2  UNL     1      19.686   3.530  50.312  1.00  0.00    -0.264 NA
HETATM    7  C7  UNL     1      20.681   2.737  49.708  1.00  0.00     0.269 C 
HETATM    8  N3  UNL     1      21.730   2.370  50.567  1.00  0.00    -0.386 N 
HETATM    9  C15 UNL     1      21.970   0.971  50.688  1.00  0.00     0.131 C 
HETATM   10  C16 UNL     1      20.950   0.156  51.397  1.00  0.00     0.067 C 
HETATM   11  C17 UNL     1      19.671   0.914  51.749  1.00  0.00     0.179 C 
ENDROOT
BRANCH   8  12
HETATM   12  C8  UNL     1      22.845   3.212  50.737  1.00  0.00     0.118 A 
HETATM   13  C9  UNL     1      23.951   3.332  49.788  1.00  0.00     0.065 A 
HETATM   14  C10 UNL     1      24.908   2.818  50.816  1.00  0.00    -0.066 A 
HETATM   15  C11 UNL     1      23.903   2.714  51.664  1.00  0.00    -0.033 A 
HETATM   16  C14 UNL     1      26.147   2.362  51.518  1.00  0.00     0.062 A 
HETATM   17  C12 UNL     1      24.319   2.200  52.984  1.00  0.00     0.006 A 
HETATM   18  C13 UNL     1      25.642   2.002  52.870  1.00  0.00    -0.022 A 
ENDBRANCH   8  12
BRANCH   1  19
HETATM   19  C2  UNL     1      22.215  -1.199  53.367  1.00  0.00     0.030 C 
HETATM   20  C1  UNL     1      22.333  -1.101  54.885  1.00  0.00     0.010 C 
ENDBRANCH   1  19
BRANCH  11  21
HETATM   21  O1  UNL     1      18.886   0.025  52.505  1.00  0.00    -0.389 OA
HETATM   22  H21 UNL     1      18.748  -0.783  51.925  1.00  0.00     0.210 HD
ENDBRANCH  11  21
TORSDOF 3
ENDMDL
MODEL 4
REMARK VINA RESULT:      -7.3      2.928      4.770
REMARK  3 active torsions:
REMARK  status: ('A' for Active; 'I' for Inactive)
REMARK    1  A    between atoms: C2_2  and  C3_3 
REMARK    2  A    between atoms: N3_10  and  C8_11 
REMARK    3  A    between atoms: C17_20  and  O1_21 
ROOT
HETATM    1  C3  UNL     1      23.509   3.033  52.064  1.00  0.00    -0.070 C 
HETATM    2  C4  UNL     1      23.867   2.255  51.011  1.00  0.00     0.033 C 
HETATM    3  C5  UNL     1      22.718   2.240  50.073  1.00  0.00     0.065 C 
HETATM    4  N1  UNL     1      22.159   1.446  49.261  1.00  0.00    -0.244 NA
HETATM    5  C6  UNL     1      21.019   1.739  48.477  1.00  0.00     0.229 C 
HETATM    6  N2  UNL     1      19.975   2.092  49.079  1.00  0.00    -0.264 NA
HETATM    7  C7  UNL     1      19.649   2.279  50.437  1.00  0.00     0.269 C 
HETATM    8  N3  UNL     1      20.550   1.687  51.337  1.00  0.00    -0.386 N 
HETATM    9  C15 UNL     1      21.133   2.565  52.295  1.00  0.00     0.131 C 
HETATM   10  C16 UNL     1      22.108   3.574  51.803  1.00  0.00     0.067 C 
HETATM   11  C17 UNL     1      22.217   3.653  50.280  1.00  0.00     0.179 C 
ENDROOT
BRANCH   8  12
HETATM   12  C8  UNL     1      20.391   0.347  51.733  1.00  0.00     0.118 A 
HETATM   13  C9  UNL     1      19.442  -0.116  52.745  1.00  0.00     0.065 A 
HETATM   14  C10 UNL     1      20.569  -0.600  53.601  1.00  0.00    -0.066 A 
HETATM   15  C11 UNL     1      21.417  -0.180  52.682  1.00  0.00    -0.033 A 
HETATM   16  C14 UNL     1      21.365  -1.198  54.717  1.00  0.00     0.062 A 
HETATM   17  C12 UNL     1      22.825  -0.430  53.044  1.00  0.00     0.006 A 
HETATM   18  C13 UNL     1      22.766  -1.029  54.244  1.00  0.00    -0.022 A 
ENDBRANCH   8  12
BRANCH   1  19
HETATM   19  C2  UNL     1      24.383   3.276  53.234  1.00  0.00     0.030 C 
HETATM   20  C1  UNL     1      25.434   2.177  53.363  1.00  0.00     0.010 C 
ENDBRANCH   1  19
BRANCH  11  21
HETATM   21  O1  UNL     1      23.253   4.565  50.012  1.00  0.00    -0.389 OA
HETATM   22  H21 UNL     1      23.648   4.284  49.132  1.00  0.00     0.210 HD
ENDBRANCH  11  21
TORSDOF 3
ENDMDL
MODEL 5
REMARK VINA RESULT:      -7.3      2.499      4.386
REMARK  3 active torsions:
REMARK  status: ('A' for Active; 'I' for Inactive)
REMARK    1  A    between atoms: C2_2  and  C3_3 
REMARK    2  A    between atoms: N3_10  and  C8_11 
REMARK    3  A    between atoms: C17_20  and  O1_21 
ROOT
HETATM    1  C3  UNL     1      26.123   0.293  52.727  1.00  0.00    -0.070 C 
HETATM    2  C4  UNL     1      26.511   1.066  51.682  1.00  0.00     0.033 C 
HETATM    3  C5  UNL     1      25.678   2.293  51.718  1.00  0.00     0.065 C 
HETATM    4  N1  UNL     1      25.149   3.112  50.911  1.00  0.00    -0.244 NA
HETATM    5  C6  UNL     1      24.369   4.235  51.272  1.00  0.00     0.229 C 
HETATM    6  N2  UNL     1      23.343   4.030  51.966  1.00  0.00    -0.264 NA
HETATM    7  C7  UNL     1      22.747   2.875  52.507  1.00  0.00     0.269 C 
HETATM    8  N3  UNL     1      23.195   1.671  51.939  1.00  0.00    -0.386 N 
HETATM    9  C15 UNL     1      23.732   0.718  52.853  1.00  0.00     0.131 C 
HETATM   10  C16 UNL     1      25.035   1.036  53.493  1.00  0.00     0.067 C 
HETATM   11  C17 UNL     1      25.544   2.451  53.218  1.00  0.00     0.179 C 
ENDROOT
BRANCH   8  12
HETATM   12  C8  UNL     1      22.583   1.152  50.783  1.00  0.00     0.118 A 
HETATM   13  C9  UNL     1      22.149   1.952  49.640  1.00  0.00     0.065 A 
HETATM   14  C10 UNL     1      20.729   1.543  49.875  1.00  0.00    -0.066 A 
HETATM   15  C11 UNL     1      21.132   0.824  50.904  1.00  0.00    -0.033 A 
HETATM   16  C14 UNL     1      19.246   1.389  49.763  1.00  0.00     0.062 A 
HETATM   17  C12 UNL     1      20.024   0.126  51.584  1.00  0.00     0.006 A 
HETATM   18  C13 UNL     1      18.927   0.476  50.893  1.00  0.00    -0.022 A 
ENDBRANCH   8  12
BRANCH   1  19
HETATM   19  C2  UNL     1      26.704  -1.038  53.018  1.00  0.00     0.030 C 
HETATM   20  C1  UNL     1      28.213  -0.938  53.223  1.00  0.00     0.010 C 
ENDBRANCH   1  19
BRANCH  11  21
HETATM   21  O1  UNL     1      26.821   2.525  53.801  1.00  0.00    -0.389 OA
HETATM   22  H21 UNL     1      26.708   2.229  54.754  1.00  0.00     0.210 HD
ENDBRANCH  11  21
TORSDOF 3
ENDMDL
MODEL 6
REMARK VINA RESULT:      -7.2      2.468      4.776
REMARK  3 active torsions:
REMARK  status: ('A' for Active; 'I' for Inactive)
REMARK    1  A    between atoms: C2_2  and  C3_3 
REMARK    2  A    between atoms: N3_10  and  C8_11 
REMARK    3  A    between atoms: C17_20  and  O1_21 
ROOT
HETATM    1  C3  UNL     1      24.128   3.602  50.552  1.00  0.00    -0.070 C 
HETATM    2  C4  UNL     1      23.680   2.704  49.639  1.00  0.00     0.033 C 
HETATM    3  C5  UNL     1      22.452   2.089  50.201  1.00  0.00     0.065 C 
HETATM    4  N1  UNL     1      21.856   0.973  50.199  1.00  0.00    -0.244 NA
HETATM    5  C6  UNL     1      20.644   0.687  50.868  1.00  0.00     0.229 C 
HETATM    6  N2  UNL     1      20.610   0.868  52.111  1.00  0.00    -0.264 NA
HETATM    7  C7  UNL     1      21.552   1.320  53.056  1.00  0.00     0.269 C 
HETATM    8  N3  UNL     1      22.882   1.296  52.606  1.00  0.00    -0.386 N 
HETATM    9  C15 UNL     1      23.579   2.537  52.668  1.00  0.00     0.131 C 
HETATM   10  C16 UNL     1      23.160   3.610  51.729  1.00  0.00     0.067 C 
HETATM   11  C17 UNL     1      21.894   3.291  50.933  1.00  0.00     0.179 C 
ENDROOT
BRANCH   8  12
HETATM   12  C8  UNL     1      23.664   0.133  52.743  1.00  0.00     0.118 A 
HETATM   13  C9  UNL     1      23.994  -0.504  54.017  1.00  0.00     0.065 A 
HETATM   14  C10 UNL     1      25.449  -0.249  53.783  1.00  0.00    -0.066 A 
HETATM   15  C11 UNL     1      25.141   0.323  52.636  1.00  0.00    -0.033 A 
HETATM   16  C14 UNL     1      26.935  -0.193  53.936  1.00  0.00     0.062 A 
HETATM   17  C12 UNL     1      26.324   0.814  51.904  1.00  0.00     0.006 A 
HETATM   18  C13 UNL     1      27.365   0.498  52.691  1.00  0.00    -0.022 A 
ENDBRANCH   8  12
BRANCH   1  19
HETATM   19  C2  UNL     1      25.357   4.407  50.370  1.00  0.00     0.030 C 
HETATM   20  C1  UNL     1      26.379   3.653  49.523  1.00  0.00     0.010 C 
ENDBRANCH   1  19
BRANCH  11  21
HETATM   21  O1  UNL     1      21.724   4.356  50.031  1.00  0.00    -0.389 OA
HETATM   22  H21 UNL     1      22.591   4.436  49.530  1.00  0.00     0.210 HD
ENDBRANCH  11  21
TORSDOF 3
ENDMDL
MODEL 7
REMARK VINA RESULT:      -7.1      2.883      5.184
REMARK  3 active torsions:
REMARK  status: ('A' for Active; 'I' for Inactive)
REMARK    1  A    between atoms: C2_2  and  C3_3 
REMARK    2  A    between atoms: N3_10  and  C8_11 
REMARK    3  A    between atoms: C17_20  and  O1_21 
ROOT
HETATM    1  C3  UNL     1      21.442   1.686  51.309  1.00  0.00    -0.070 C 
HETATM    2  C4  UNL     1      21.462   2.542  52.362  1.00  0.00     0.033 C 
HETATM    3  C5  UNL     1      22.174   3.765  51.913  1.00  0.00     0.065 C 
HETATM    4  N1  UNL     1      22.945   4.648  52.387  1.00  0.00    -0.244 NA
HETATM    5  C6  UNL     1      23.485   5.740  51.669  1.00  0.00     0.229 C 
HETATM    6  N2  UNL     1      24.170   5.482  50.649  1.00  0.00    -0.264 NA
HETATM    7  C7  UNL     1      24.550   4.287  50.007  1.00  0.00     0.269 C 
HETATM    8  N3  UNL     1      24.397   3.133  50.792  1.00  0.00    -0.386 N 
HETATM    9  C15 UNL     1      23.583   2.107  50.233  1.00  0.00     0.131 C 
HETATM   10  C16 UNL     1      22.123   2.367  50.127  1.00  0.00     0.067 C 
HETATM   11  C17 UNL     1      21.712   3.798  50.472  1.00  0.00     0.179 C 
ENDROOT
BRANCH   8  12
HETATM   12  C8  UNL     1      25.427   2.712  51.655  1.00  0.00     0.118 A 
HETATM   13  C9  UNL     1      26.679   2.096  51.219  1.00  0.00     0.065 A 
HETATM   14  C10 UNL     1      26.334   0.841  51.957  1.00  0.00    -0.066 A 
HETATM   15  C11 UNL     1      25.208   1.406  52.344  1.00  0.00    -0.033 A 
HETATM   16  C14 UNL     1      26.374  -0.538  52.532  1.00  0.00     0.062 A 
HETATM   17  C12 UNL     1      24.384   0.522  53.191  1.00  0.00     0.006 A 
HETATM   18  C13 UNL     1      25.093  -0.614  53.285  1.00  0.00    -0.022 A 
ENDBRANCH   8  12
BRANCH   1  19
HETATM   19  C2  UNL     1      20.841   0.334  51.367  1.00  0.00     0.030 C 
HETATM   20  C1  UNL     1      20.727  -0.146  52.812  1.00  0.00     0.010 C 
ENDBRANCH   1  19
BRANCH  11  21
HETATM   21  O1  UNL     1      20.307   3.820  50.427  1.00  0.00    -0.389 OA
HETATM   22  H21 UNL     1      20.033   3.002  49.913  1.00  0.00     0.210 HD
ENDBRANCH  11  21
TORSDOF 3
ENDMDL
MODEL 8
REMARK VINA RESULT:      -7.1      8.794     11.183
REMARK  3 active torsions:
REMARK  status: ('A' for Active; 'I' for Inactive)
REMARK    1  A    between atoms: C2_2  and  C3_3 
REMARK    2  A    between atoms: N3_10  and  C8_11 
REMARK    3  A    between atoms: C17_20  and  O1_21 
ROOT
HETATM    1  C3  UNL     1      33.328   4.987  46.603  1.00  0.00    -0.070 C 
HETATM    2  C4  UNL     1      33.352   6.118  45.854  1.00  0.00     0.033 C 
HETATM    3  C5  UNL     1      33.029   7.247  46.761  1.00  0.00     0.065 C 
HETATM    4  N1  UNL     1      32.427   8.360  46.724  1.00  0.00    -0.244 NA
HETATM    5  C6  UNL     1      32.278   9.251  47.812  1.00  0.00     0.229 C 
HETATM    6  N2  UNL     1      31.715   8.815  48.846  1.00  0.00    -0.264 NA
HETATM    7  C7  UNL     1      31.163   7.569  49.204  1.00  0.00     0.269 C 
HETATM    8  N3  UNL     1      30.915   6.711  48.120  1.00  0.00    -0.386 N 
HETATM    9  C15 UNL     1      31.538   5.432  48.189  1.00  0.00     0.131 C 
HETATM   10  C16 UNL     1      33.016   5.376  48.044  1.00  0.00     0.067 C 
HETATM   11  C17 UNL     1      33.699   6.743  48.022  1.00  0.00     0.179 C 
ENDROOT
BRANCH   8  12
HETATM   12  C8  UNL     1      29.697   6.776  47.419  1.00  0.00     0.118 A 
HETATM   13  C9  UNL     1      28.787   7.921  47.435  1.00  0.00     0.065 A 
HETATM   14  C10 UNL     1      27.718   7.080  48.058  1.00  0.00    -0.066 A 
HETATM   15  C11 UNL     1      28.547   6.054  48.039  1.00  0.00    -0.033 A 
HETATM   16  C14 UNL     1      26.431   6.614  48.659  1.00  0.00     0.062 A 
HETATM   17  C12 UNL     1      27.951   4.825  48.597  1.00  0.00     0.006 A 
HETATM   18  C13 UNL     1      26.707   5.183  48.954  1.00  0.00    -0.022 A 
ENDBRANCH   8  12
BRANCH   1  19
HETATM   19  C2  UNL     1      33.574   3.636  46.050  1.00  0.00     0.030 C 
HETATM   20  C1  UNL     1      35.029   3.223  46.257  1.00  0.00     0.010 C 
ENDBRANCH   1  19
BRANCH  11  21
HETATM   21  O1  UNL     1      35.059   6.494  47.767  1.00  0.00    -0.389 OA
HETATM   22  H21 UNL     1      35.260   5.601  48.181  1.00  0.00     0.210 HD
ENDBRANCH  11  21
TORSDOF 3
ENDMDL
MODEL 9
REMARK VINA RESULT:      -6.9      3.442      5.465
REMARK  3 active torsions:
REMARK  status: ('A' for Active; 'I' for Inactive)
REMARK    1  A    between atoms: C2_2  and  C3_3 
REMARK    2  A    between atoms: N3_10  and  C8_11 
REMARK    3  A    between atoms: C17_20  and  O1_21 
ROOT
HETATM    1  C3  UNL     1      19.040   0.917  51.047  1.00  0.00    -0.070 C 
HETATM    2  C4  UNL     1      18.949   2.111  51.685  1.00  0.00     0.033 C 
HETATM    3  C5  UNL     1      20.010   2.984  51.124  1.00  0.00     0.065 C 
HETATM    4  N1  UNL     1      20.790   3.904  51.506  1.00  0.00    -0.244 NA
HETATM    5  C6  UNL     1      21.738   4.568  50.695  1.00  0.00     0.229 C 
HETATM    6  N2  UNL     1      22.609   3.865  50.126  1.00  0.00    -0.264 NA
HETATM    7  C7  UNL     1      22.882   2.483  50.101  1.00  0.00     0.269 C 
HETATM    8  N3  UNL     1      22.263   1.750  51.127  1.00  0.00    -0.386 N 
HETATM    9  C15 UNL     1      21.435   0.672  50.703  1.00  0.00     0.131 C 
HETATM   10  C16 UNL     1      20.160   1.009  50.018  1.00  0.00     0.067 C 
HETATM   11  C17 UNL     1      19.994   2.493  49.692  1.00  0.00     0.179 C 
ENDROOT
BRANCH   8  12
HETATM   12  C8  UNL     1      22.886   1.605  52.380  1.00  0.00     0.118 A 
HETATM   13  C9  UNL     1      24.028   0.730  52.646  1.00  0.00     0.065 A 
HETATM   14  C10 UNL     1      23.208  -0.070  53.607  1.00  0.00    -0.066 A 
HETATM   15  C11 UNL     1      22.185   0.724  53.360  1.00  0.00    -0.033 A 
HETATM   16  C14 UNL     1      22.760  -1.093  54.602  1.00  0.00     0.062 A 
HETATM   17  C12 UNL     1      20.975   0.356  54.122  1.00  0.00     0.006 A 
HETATM   18  C13 UNL     1      21.342  -0.715  54.843  1.00  0.00    -0.022 A 
ENDBRANCH   8  12
BRANCH   1  19
HETATM   19  C2  UNL     1      18.163  -0.238  51.349  1.00  0.00     0.030 C 
HETATM   20  C1  UNL     1      18.345  -0.694  52.794  1.00  0.00     0.010 C 
ENDBRANCH   1  19
BRANCH  11  21
HETATM   21  O1  UNL     1      18.701   2.632  49.160  1.00  0.00    -0.389 OA
HETATM   22  H21 UNL     1      18.501   3.617  49.170  1.00  0.00     0.210 HD
ENDBRANCH  11  21
TORSDOF 3
ENDMDL
