MODEL 1
REMARK VINA RESULT:      -6.4      0.000      0.000
REMARK  6 active torsions:
REMARK  status: ('A' for Active; 'I' for Inactive)
REMARK    1  A    between atoms: P1_2  and  N1_3 
REMARK    2  A    between atoms: N2_5  and  C3_6 
REMARK    3  A    between atoms: C3_6  and  N3_7 
REMARK    4  A    between atoms: N3_7  and  C4_8 
REMARK    5  A    between atoms: C11_16  and  C12_17 
REMARK    6  A    between atoms: C12_17  and  N4_18 
ROOT
HETATM    1  C1  UNL     1      21.004   0.591  50.032  1.00  0.00    -0.023 C 
HETATM    2  P1  UNL     1      22.135   1.722  50.202  1.00  0.00     0.038 P 
HETATM    3  C3  UNL     1      23.698   2.363  51.699  1.00  0.00     0.139 A 
HETATM    4  C10 UNL     1      22.596   2.179  50.287  1.00  0.00     0.082 A 
HETATM    5  C11 UNL     1      22.392   1.214  51.557  1.00  0.00     0.206 A 
ENDROOT
BRANCH   3   6
HETATM    6  N2  UNL     1      24.480   3.536  51.372  1.00  0.00    -0.152 NA
HETATM    7  C2  UNL     1      23.773   4.742  52.234  1.00  0.00     0.196 A 
HETATM    8  N1  UNL     1      23.785   4.087  52.057  1.00  0.00    -0.271 N 
ENDBRANCH   3   6
BRANCH   3   9
HETATM    9  N3  UNL     1      24.484   2.151  53.091  1.00  0.00    -0.364 N 
HETATM   10  H3  UNL     1      23.818   2.569  53.777  1.00  0.00     0.162 HD
BRANCH   9  11
HETATM   11  C4  UNL     1      25.691   1.538  53.191  1.00  0.00     0.031 A 
HETATM   12  C5  UNL     1      26.743   2.123  53.689  1.00  0.00     0.029 A 
HETATM   13  C6  UNL     1      27.839   1.330  53.740  1.00  0.00     0.004 A 
HETATM   14  C7  UNL     1      27.923   0.043  53.351  1.00  0.00     0.024 A 
HETATM   15  C8  UNL     1      26.831  -0.714  52.789  1.00  0.00     0.036 A 
HETATM   16 CL1  UNL     1      26.804  -2.261  52.251  1.00  0.00    -0.084 Cl
HETATM   17  C9  UNL     1      25.777   0.273  52.804  1.00  0.00     0.053 A 
ENDBRANCH   9  11
ENDBRANCH   3   9
BRANCH   5  18
HETATM   18  C12 UNL     1      22.056   0.195  52.676  1.00  0.00     0.153 C 
HETATM   19  C13 UNL     1      22.394  -1.087  53.080  1.00  0.00     0.021 C 
HETATM   20  C14 UNL     1      21.626  -1.372  54.313  1.00  0.00     0.012 C 
BRANCH  18  21
HETATM   21  N4  UNL     1      20.965   0.813  53.559  1.00  0.00     0.084 NA
HETATM   22  H9  UNL     1      20.277   0.588  52.792  1.00  0.00     0.313 HD
HETATM   23  H10 UNL     1      20.083   0.731  52.987  1.00  0.00     0.313 HD
ENDBRANCH  18  21
ENDBRANCH   5  18
TORSDOF 6
ENDMDL
MODEL 2
REMARK VINA RESULT:      -6.2      2.981      5.788
REMARK  6 active torsions:
REMARK  status: ('A' for Active; 'I' for Inactive)
REMARK    1  A    between atoms: P1_2  and  N1_3 
REMARK    2  A    between atoms: N2_5  and  C3_6 
REMARK    3  A    between atoms: C3_6  and  N3_7 
REMARK    4  A    between atoms: N3_7  and  C4_8 
REMARK    5  A    between atoms: C11_16  and  C12_17 
REMARK    6  A    between atoms: C12_17  and  N4_18 
ROOT
HETATM    1  C1  UNL     1      28.430   2.695  53.421  1.00  0.00    -0.023 C 
HETATM    2  P1  UNL     1      28.028   1.156  53.663  1.00  0.00     0.038 P 
HETATM    3  C3  UNL     1      26.310  -0.247  53.248  1.00  0.00     0.139 A 
HETATM    4  C10 UNL     1      27.850   0.534  53.759  1.00  0.00     0.082 A 
HETATM    5  C11 UNL     1      26.705   1.446  53.094  1.00  0.00     0.206 A 
ENDROOT
BRANCH   3   6
HETATM    6  N2  UNL     1      26.438  -1.604  53.734  1.00  0.00    -0.152 NA
HETATM    7  C2  UNL     1      26.954  -2.452  52.426  1.00  0.00     0.196 A 
HETATM    8  N1  UNL     1      26.765  -1.858  52.693  1.00  0.00    -0.271 N 
ENDBRANCH   3   6
BRANCH   3   9
HETATM    9  N3  UNL     1      24.863  -0.548  52.604  1.00  0.00    -0.364 N 
HETATM   10  H3  UNL     1      25.119  -0.848  51.638  1.00  0.00     0.162 HD
BRANCH   9  11
HETATM   11  C4  UNL     1      23.694  -0.424  53.283  1.00  0.00     0.031 A 
HETATM   12  C5  UNL     1      23.450  -1.057  54.394  1.00  0.00     0.029 A 
HETATM   13  C6  UNL     1      22.245  -0.767  54.939  1.00  0.00     0.004 A 
HETATM   14  C7  UNL     1      21.328   0.093  54.456  1.00  0.00     0.024 A 
HETATM   15  C8  UNL     1      21.481   0.855  53.240  1.00  0.00     0.036 A 
HETATM   16 CL1  UNL     1      20.441   1.902  52.530  1.00  0.00    -0.084 Cl
HETATM   17  C9  UNL     1      22.788   0.418  52.807  1.00  0.00     0.053 A 
ENDBRANCH   9  11
ENDBRANCH   3   9
BRANCH   5  18
HETATM   18  C12 UNL     1      25.730   2.473  52.463  1.00  0.00     0.153 C 
HETATM   19  C13 UNL     1      25.385   2.985  51.223  1.00  0.00     0.021 C 
HETATM   20  C14 UNL     1      24.300   3.968  51.443  1.00  0.00     0.012 C 
BRANCH  18  21
HETATM   21  N4  UNL     1      24.965   3.154  53.605  1.00  0.00     0.084 NA
HETATM   22  H9  UNL     1      25.616   2.665  54.275  1.00  0.00     0.313 HD
HETATM   23  H10 UNL     1      25.434   2.805  54.482  1.00  0.00     0.313 HD
ENDBRANCH  18  21
ENDBRANCH   5  18
TORSDOF 6
ENDMDL
MODEL 3
REMARK VINA RESULT:      -6.2      2.485      5.133
REMARK  6 active torsions:
REMARK  status: ('A' for Active; 'I' for Inactive)
REMARK    1  A    between atoms: P1_2  and  N1_3 
REMARK    2  A    between atoms: N2_5  and  C3_6 
REMARK    3  A    between atoms: C3_6  and  N3_7 
REMARK    4  A    between atoms: N3_7  and  C4_8 
REMARK    5  A    between atoms: C11_16  and  C12_17 
REMARK    6  A    between atoms: C12_17  and  N4_18 
ROOT
HETATM    1  C1  UNL     1      25.998   5.118  49.005  1.00  0.00    -0.023 C 
HETATM    2  P1  UNL     1      26.309   3.825  49.910  1.00  0.00     0.038 P 
HETATM    3  C3  UNL     1      25.361   2.640  51.581  1.00  0.00     0.139 A 
HETATM    4  C10 UNL     1      26.425   3.304  50.289  1.00  0.00     0.082 A 
HETATM    5  C11 UNL     1      25.087   4.107  50.676  1.00  0.00     0.206 A 
ENDROOT
BRANCH   3   6
HETATM    6  N2  UNL     1      26.113   1.518  52.099  1.00  0.00    -0.152 NA
HETATM    7  C2  UNL     1      26.619   2.022  53.578  1.00  0.00     0.196 A 
HETATM    8  N1  UNL     1      26.281   2.156  53.005  1.00  0.00    -0.271 N 
ENDBRANCH   3   6
BRANCH   3   9
HETATM    9  N3  UNL     1      24.135   2.366  52.592  1.00  0.00    -0.364 N 
HETATM   10  H3  UNL     1      24.398   2.960  53.410  1.00  0.00     0.162 HD
BRANCH   9  11
HETATM   11  C4  UNL     1      23.082   1.563  52.301  1.00  0.00     0.031 A 
HETATM   12  C5  UNL     1      22.494   1.558  51.139  1.00  0.00     0.029 A 
HETATM   13  C6  UNL     1      21.491   0.655  51.035  1.00  0.00     0.004 A 
HETATM   14  C7  UNL     1      21.079  -0.208  51.983  1.00  0.00     0.024 A 
HETATM   15  C8  UNL     1      21.650  -0.302  53.306  1.00  0.00     0.036 A 
HETATM   16 CL1  UNL     1      21.229  -1.275  54.554  1.00  0.00    -0.084 Cl
HETATM   17  C9  UNL     1      22.672   0.716  53.235  1.00  0.00     0.053 A 
ENDBRANCH   9  11
ENDBRANCH   3   9
BRANCH   5  18
HETATM   18  C12 UNL     1      23.842   5.002  50.902  1.00  0.00     0.153 C 
HETATM   19  C13 UNL     1      22.647   5.334  50.283  1.00  0.00     0.021 C 
HETATM   20  C14 UNL     1      21.949   6.293  51.169  1.00  0.00     0.012 C 
BRANCH  18  21
HETATM   21  N4  UNL     1      24.066   5.796  52.195  1.00  0.00     0.084 NA
HETATM   22  H9  UNL     1      23.746   6.654  51.673  1.00  0.00     0.313 HD
HETATM   23  H10 UNL     1      23.814   6.788  51.944  1.00  0.00     0.313 HD
ENDBRANCH  18  21
ENDBRANCH   5  18
TORSDOF 6
ENDMDL
MODEL 4
REMARK VINA RESULT:      -6.2      1.464      3.519
REMARK  6 active torsions:
REMARK  status: ('A' for Active; 'I' for Inactive)
REMARK    1  A    between atoms: P1_2  and  N1_3 
REMARK    2  A    between atoms: N2_5  and  C3_6 
REMARK    3  A    between atoms: C3_6  and  N3_7 
REMARK    4  A    between atoms: N3_7  and  C4_8 
REMARK    5  A    between atoms: C11_16  and  C12_17 
REMARK    6  A    between atoms: C12_17  and  N4_18 
ROOT
HETATM    1  C1  UNL     1      22.032   2.198  48.017  1.00  0.00    -0.023 C 
HETATM    2  P1  UNL     1      21.660   1.341  49.326  1.00  0.00     0.038 P 
HETATM    3  C3  UNL     1      22.230   1.217  51.507  1.00  0.00     0.139 A 
HETATM    4  C10 UNL     1      21.521   0.997  49.866  1.00  0.00     0.082 A 
HETATM    5  C11 UNL     1      22.712   2.061  50.057  1.00  0.00     0.206 A 
ENDROOT
BRANCH   3   6
HETATM    6  N2  UNL     1      21.591   0.186  52.295  1.00  0.00    -0.152 NA
HETATM    7  C2  UNL     1      20.530   1.006  53.243  1.00  0.00     0.196 A 
HETATM    8  N1  UNL     1      21.009   1.022  52.764  1.00  0.00    -0.271 N 
ENDBRANCH   3   6
BRANCH   3   9
HETATM    9  N3  UNL     1      23.066   1.757  52.776  1.00  0.00    -0.364 N 
HETATM   10  H3  UNL     1      22.319   2.218  53.341  1.00  0.00     0.162 HD
BRANCH   9  11
HETATM   11  C4  UNL     1      24.398   1.559  52.942  1.00  0.00     0.031 A 
HETATM   12  C5  UNL     1      25.198   2.477  53.404  1.00  0.00     0.029 A 
HETATM   13  C6  UNL     1      26.483   2.071  53.535  1.00  0.00     0.004 A 
HETATM   14  C7  UNL     1      26.975   0.849  53.254  1.00  0.00     0.024 A 
HETATM   15  C8  UNL     1      26.193  -0.250  52.742  1.00  0.00     0.036 A 
HETATM   16 CL1  UNL     1      26.667  -1.763  52.331  1.00  0.00    -0.084 Cl
HETATM   17  C9  UNL     1      24.886   0.359  52.661  1.00  0.00     0.053 A 
ENDBRANCH   9  11
ENDBRANCH   3   9
BRANCH   5  18
HETATM   18  C12 UNL     1      23.832   3.133  50.052  1.00  0.00     0.153 C 
HETATM   19  C13 UNL     1      25.158   3.280  49.678  1.00  0.00     0.021 C 
HETATM   20  C14 UNL     1      25.548   4.673  49.992  1.00  0.00     0.012 C 
BRANCH  18  21
HETATM   21  N4  UNL     1      23.279   4.390  50.733  1.00  0.00     0.084 NA
HETATM   22  H9  UNL     1      22.505   3.789  51.121  1.00  0.00     0.313 HD
HETATM   23  H10 UNL     1      22.411   4.062  51.233  1.00  0.00     0.313 HD
ENDBRANCH  18  21
ENDBRANCH   5  18
TORSDOF 6
ENDMDL
MODEL 5
REMARK VINA RESULT:      -6.1      2.532      4.568
REMARK  6 active torsions:
REMARK  status: ('A' for Active; 'I' for Inactive)
REMARK    1  A    between atoms: P1_2  and  N1_3 
REMARK    2  A    between atoms: N2_5  and  C3_6 
REMARK    3  A    between atoms: C3_6  and  N3_7 
REMARK    4  A    between atoms: N3_7  and  C4_8 
REMARK    5  A    between atoms: C11_16  and  C12_17 
REMARK    6  A    between atoms: C12_17  and  N4_18 
ROOT
HETATM    1  C1  UNL     1      26.715   3.333  49.509  1.00  0.00    -0.023 C 
HETATM    2  P1  UNL     1      25.164   3.585  49.851  1.00  0.00     0.038 P 
HETATM    3  C3  UNL     1      23.672   3.105  51.475  1.00  0.00     0.139 A 
HETATM    4  C10 UNL     1      24.533   3.676  50.001  1.00  0.00     0.082 A 
HETATM    5  C11 UNL     1      25.321   2.736  51.040  1.00  0.00     0.206 A 
ENDROOT
BRANCH   3   6
HETATM    6  N2  UNL     1      22.313   3.558  51.274  1.00  0.00    -0.152 NA
HETATM    7  C2  UNL     1      22.184   4.880  52.241  1.00  0.00     0.196 A 
HETATM    8  N1  UNL     1      22.564   4.370  52.005  1.00  0.00    -0.271 N 
ENDBRANCH   3   6
BRANCH   3   9
HETATM    9  N3  UNL     1      23.310   2.456  52.907  1.00  0.00    -0.364 N 
HETATM   10  H3  UNL     1      23.530   3.243  53.557  1.00  0.00     0.162 HD
BRANCH   9  11
HETATM   11  C4  UNL     1      22.824   1.200  53.065  1.00  0.00     0.031 A 
HETATM   12  C5  UNL     1      23.567   0.193  53.425  1.00  0.00     0.029 A 
HETATM   13  C6  UNL     1      22.887  -0.969  53.569  1.00  0.00     0.004 A 
HETATM   14  C7  UNL     1      21.564  -1.156  53.393  1.00  0.00     0.024 A 
HETATM   15  C8  UNL     1      20.637  -0.123  53.000  1.00  0.00     0.036 A 
HETATM   16 CL1  UNL     1      19.025  -0.220  52.723  1.00  0.00    -0.084 Cl
HETATM   17  C9  UNL     1      21.524   1.012  52.888  1.00  0.00     0.053 A 
ENDBRANCH   9  11
ENDBRANCH   3   9
BRANCH   5  18
HETATM   18  C12 UNL     1      26.239   1.857  51.928  1.00  0.00     0.153 C 
HETATM   19  C13 UNL     1      26.797   0.588  51.948  1.00  0.00     0.021 C 
HETATM   20  C14 UNL     1      27.611   0.490  53.180  1.00  0.00     0.012 C 
BRANCH  18  21
HETATM   21  N4  UNL     1      26.566   2.655  53.196  1.00  0.00     0.084 NA
HETATM   22  H9  UNL     1      25.577   3.019  53.170  1.00  0.00     0.313 HD
HETATM   23  H10 UNL     1      25.678   3.178  53.417  1.00  0.00     0.313 HD
ENDBRANCH  18  21
ENDBRANCH   5  18
TORSDOF 6
ENDMDL
MODEL 6
REMARK VINA RESULT:      -6.0      2.254      4.202
REMARK  6 active torsions:
REMARK  status: ('A' for Active; 'I' for Inactive)
REMARK    1  A    between atoms: P1_2  and  N1_3 
REMARK    2  A    between atoms: N2_5  and  C3_6 
REMARK    3  A    between atoms: C3_6  and  N3_7 
REMARK    4  A    between atoms: N3_7  and  C4_8 
REMARK    5  A    between atoms: C11_16  and  C12_17 
REMARK    6  A    between atoms: C12_17  and  N4_18 
ROOT
HETATM    1  C1  UNL     1      22.371   5.788  51.241  1.00  0.00    -0.023 C 
HETATM    2  P1  UNL     1      21.834   4.423  51.903  1.00  0.00     0.038 P 
HETATM    3  C3  UNL     1      22.474   2.271  52.138  1.00  0.00     0.139 A 
HETATM    4  C10 UNL     1      21.626   3.860  52.163  1.00  0.00     0.082 A 
HETATM    5  C11 UNL     1      22.991   3.726  51.324  1.00  0.00     0.206 A 
ENDROOT
BRANCH   3   6
HETATM    6  N2  UNL     1      21.560   1.386  52.828  1.00  0.00    -0.152 NA
HETATM    7  C2  UNL     1      20.921   0.459  51.631  1.00  0.00     0.196 A 
HETATM    8  N1  UNL     1      21.340   0.961  51.814  1.00  0.00    -0.271 N 
ENDBRANCH   3   6
BRANCH   3   9
HETATM    9  N3  UNL     1      23.551   1.091  51.920  1.00  0.00    -0.364 N 
HETATM   10  H3  UNL     1      23.307   0.756  50.962  1.00  0.00     0.162 HD
BRANCH   9  11
HETATM   11  C4  UNL     1      24.496   0.753  52.833  1.00  0.00     0.031 A 
HETATM   12  C5  UNL     1      24.380  -0.274  53.625  1.00  0.00     0.029 A 
HETATM   13  C6  UNL     1      25.448  -0.467  54.435  1.00  0.00     0.004 A 
HETATM   14  C7  UNL     1      26.573   0.272  54.476  1.00  0.00     0.024 A 
HETATM   15  C8  UNL     1      26.823   1.429  53.649  1.00  0.00     0.036 A 
HETATM   16 CL1  UNL     1      28.122   2.426  53.619  1.00  0.00    -0.084 Cl
HETATM   17  C9  UNL     1      25.602   1.482  52.879  1.00  0.00     0.053 A 
ENDBRANCH   9  11
ENDBRANCH   3   9
BRANCH   5  18
HETATM   18  C12 UNL     1      24.291   3.789  50.481  1.00  0.00     0.153 C 
HETATM   19  C13 UNL     1      25.567   4.327  50.537  1.00  0.00     0.021 C 
HETATM   20  C14 UNL     1      26.267   3.918  49.299  1.00  0.00     0.012 C 
BRANCH  18  21
HETATM   21  N4  UNL     1      24.022   3.069  49.154  1.00  0.00     0.084 NA
HETATM   22  H9  UNL     1      24.647   2.292  49.499  1.00  0.00     0.313 HD
HETATM   23  H10 UNL     1      24.584   2.179  49.217  1.00  0.00     0.313 HD
ENDBRANCH  18  21
ENDBRANCH   5  18
TORSDOF 6
ENDMDL
MODEL 7
REMARK VINA RESULT:      -5.9      2.750      4.575
REMARK  6 active torsions:
REMARK  status: ('A' for Active; 'I' for Inactive)
REMARK    1  A    between atoms: P1_2  and  N1_3 
REMARK    2  A    between atoms: N2_5  and  C3_6 
REMARK    3  A    between atoms: C3_6  and  N3_7 
REMARK    4  A    between atoms: N3_7  and  C4_8 
REMARK    5  A    between atoms: C11_16  and  C12_17 
REMARK    6  A    between atoms: C12_17  and  N4_18 
ROOT
HETATM    1  C1  UNL     1      20.771  -1.136  54.207  1.00  0.00    -0.023 C 
HETATM    2  P1  UNL     1      22.361  -0.973  54.384  1.00  0.00     0.038 P 
HETATM    3  C3  UNL     1      24.092   0.081  53.392  1.00  0.00     0.139 A 
HETATM    4  C10 UNL     1      23.009  -0.902  54.442  1.00  0.00     0.082 A 
HETATM    5  C11 UNL     1      22.388  -0.195  53.138  1.00  0.00     0.206 A 
ENDROOT
BRANCH   3   6
HETATM    6  N2  UNL     1      25.407  -0.142  53.953  1.00  0.00    -0.152 NA
HETATM    7  C2  UNL     1      26.169  -1.071  52.833  1.00  0.00     0.196 A 
HETATM    8  N1  UNL     1      25.609  -0.740  53.027  1.00  0.00    -0.271 N 
ENDBRANCH   3   6
BRANCH   3   9
HETATM    9  N3  UNL     1      24.674   1.075  52.263  1.00  0.00    -0.364 N 
HETATM   10  H3  UNL     1      25.341   0.452  51.755  1.00  0.00     0.162 HD
BRANCH   9  11
HETATM   11  C4  UNL     1      24.278   2.364  52.115  1.00  0.00     0.031 A 
HETATM   12  C5  UNL     1      24.073   3.162  53.124  1.00  0.00     0.029 A 
HETATM   13  C6  UNL     1      23.723   4.420  52.767  1.00  0.00     0.004 A 
HETATM   14  C7  UNL     1      23.592   4.896  51.514  1.00  0.00     0.024 A 
HETATM   15  C8  UNL     1      23.795   4.116  50.317  1.00  0.00     0.036 A 
HETATM   16 CL1  UNL     1      23.639   4.557  48.747  1.00  0.00    -0.084 Cl
HETATM   17  C9  UNL     1      24.143   2.833  50.883  1.00  0.00     0.053 A 
ENDBRANCH   9  11
ENDBRANCH   3   9
BRANCH   5  18
HETATM   18  C12 UNL     1      21.615   0.418  51.943  1.00  0.00     0.153 C 
HETATM   19  C13 UNL     1      21.447   0.231  50.579  1.00  0.00     0.021 C 
HETATM   20  C14 UNL     1      20.488   1.258  50.113  1.00  0.00     0.012 C 
BRANCH  18  21
HETATM   21  N4  UNL     1      20.853   1.645  52.458  1.00  0.00     0.084 NA
HETATM   22  H9  UNL     1      21.279   1.459  53.404  1.00  0.00     0.313 HD
HETATM   23  H10 UNL     1      21.102   1.702  53.480  1.00  0.00     0.313 HD
ENDBRANCH  18  21
ENDBRANCH   5  18
TORSDOF 6
ENDMDL
MODEL 8
REMARK VINA RESULT:      -5.9      9.291     10.796
REMARK  6 active torsions:
REMARK  status: ('A' for Active; 'I' for Inactive)
REMARK    1  A    between atoms: P1_2  and  N1_3 
REMARK    2  A    between atoms: N2_5  and  C3_6 
REMARK    3  A    between atoms: C3_6  and  N3_7 
REMARK    4  A    between atoms: N3_7  and  C4_8 
REMARK    5  A    between atoms: C11_16  and  C12_17 
REMARK    6  A    between atoms: C12_17  and  N4_18 
ROOT
HETATM    1  C1  UNL     1      30.003   9.438  49.122  1.00  0.00    -0.023 C 
HETATM    2  P1  UNL     1      31.321   9.186  48.236  1.00  0.00     0.038 P 
HETATM    3  C3  UNL     1      32.235   7.571  46.952  1.00  0.00     0.139 A 
HETATM    4  C10 UNL     1      31.855   9.069  47.876  1.00  0.00     0.082 A 
HETATM    5  C11 UNL     1      30.866   7.808  48.008  1.00  0.00     0.206 A 
ENDROOT
BRANCH   3   6
HETATM    6  N2  UNL     1      33.532   7.846  46.373  1.00  0.00    -0.152 NA
HETATM    7  C2  UNL     1      33.200   8.237  44.813  1.00  0.00     0.196 A 
HETATM    8  N1  UNL     1      32.973   8.048  45.423  1.00  0.00    -0.271 N 
ENDBRANCH   3   6
BRANCH   3   9
HETATM    9  N3  UNL     1      32.167   6.114  46.263  1.00  0.00    -0.364 N 
HETATM   10  H3  UNL     1      31.579   6.305  45.421  1.00  0.00     0.162 HD
BRANCH   9  11
HETATM   11  C4  UNL     1      32.793   5.016  46.755  1.00  0.00     0.031 A 
HETATM   12  C5  UNL     1      33.874   5.083  47.479  1.00  0.00     0.029 A 
HETATM   13  C6  UNL     1      34.321   3.880  47.910  1.00  0.00     0.004 A 
HETATM   14  C7  UNL     1      33.759   2.678  47.675  1.00  0.00     0.024 A 
HETATM   15  C8  UNL     1      32.563   2.474  46.893  1.00  0.00     0.036 A 
HETATM   16 CL1  UNL     1      31.798   1.078  46.506  1.00  0.00    -0.084 Cl
HETATM   17  C9  UNL     1      32.244   3.833  46.521  1.00  0.00     0.053 A 
ENDBRANCH   9  11
ENDBRANCH   3   9
BRANCH   5  18
HETATM   18  C12 UNL     1      29.799   6.709  48.246  1.00  0.00     0.153 C 
HETATM   19  C13 UNL     1      28.490   6.409  47.905  1.00  0.00     0.021 C 
HETATM   20  C14 UNL     1      28.161   5.111  48.536  1.00  0.00     0.012 C 
BRANCH  18  21
HETATM   21  N4  UNL     1      30.398   5.678  49.211  1.00  0.00     0.084 NA
HETATM   22  H9  UNL     1      29.504   5.128  49.110  1.00  0.00     0.313 HD
HETATM   23  H10 UNL     1      29.647   4.947  49.317  1.00  0.00     0.313 HD
ENDBRANCH  18  21
ENDBRANCH   5  18
TORSDOF 6
ENDMDL
MODEL 9
REMARK VINA RESULT:      -5.8      2.057      4.539
REMARK  6 active torsions:
REMARK  status: ('A' for Active; 'I' for Inactive)
REMARK    1  A    between atoms: P1_2  and  N1_3 
REMARK    2  A    between atoms: N2_5  and  C3_6 
REMARK    3  A    between atoms: C3_6  and  N3_7 
REMARK    4  A    between atoms: N3_7  and  C4_8 
REMARK    5  A    between atoms: C11_16  and  C12_17 
REMARK    6  A    between atoms: C12_17  and  N4_18 
ROOT
HETATM    1  C1  UNL     1      23.856   5.557  51.455  1.00  0.00    -0.023 C 
HETATM    2  P1  UNL     1      22.656   4.589  50.997  1.00  0.00     0.038 P 
HETATM    3  C3  UNL     1      22.164   2.387  50.937  1.00  0.00     0.139 A 
HETATM    4  C10 UNL     1      22.177   4.183  50.810  1.00  0.00     0.082 A 
HETATM    5  C11 UNL     1      23.505   3.435  51.321  1.00  0.00     0.206 A 
ENDROOT
BRANCH   3   6
HETATM    6  N2  UNL     1      20.891   2.013  50.360  1.00  0.00    -0.152 NA
HETATM    7  C2  UNL     1      21.287   1.329  48.921  1.00  0.00     0.196 A 
HETATM    8  N1  UNL     1      21.490   1.630  49.494  1.00  0.00    -0.271 N 
ENDBRANCH   3   6
BRANCH   3   9
HETATM    9  N3  UNL     1      22.541   0.852  51.255  1.00  0.00    -0.364 N 
HETATM   10  H3  UNL     1      23.015   0.562  50.371  1.00  0.00     0.162 HD
BRANCH   9  11
HETATM   11  C4  UNL     1      22.271   0.237  52.434  1.00  0.00     0.031 A 
HETATM   12  C5  UNL     1      21.063  -0.068  52.813  1.00  0.00     0.029 A 
HETATM   13  C6  UNL     1      21.007  -0.715  54.001  1.00  0.00     0.004 A 
HETATM   14  C7  UNL     1      22.050  -1.066  54.779  1.00  0.00     0.024 A 
HETATM   15  C8  UNL     1      23.432  -0.788  54.468  1.00  0.00     0.036 A 
HETATM   16 CL1  UNL     1      24.782  -1.128  55.332  1.00  0.00    -0.084 Cl
HETATM   17  C9  UNL     1      23.295  -0.105  53.203  1.00  0.00     0.053 A 
ENDBRANCH   9  11
ENDBRANCH   3   9
BRANCH   5  18
HETATM   18  C12 UNL     1      24.861   2.893  51.842  1.00  0.00     0.153 C 
HETATM   19  C13 UNL     1      26.007   2.270  51.372  1.00  0.00     0.021 C 
HETATM   20  C14 UNL     1      26.906   2.078  52.532  1.00  0.00     0.012 C 
BRANCH  18  21
HETATM   21  N4  UNL     1      24.880   3.067  53.366  1.00  0.00     0.084 NA
HETATM   22  H9  UNL     1      25.688   2.390  53.391  1.00  0.00     0.313 HD
HETATM   23  H10 UNL     1      25.657   2.436  53.695  1.00  0.00     0.313 HD
ENDBRANCH  18  21
ENDBRANCH   5  18
TORSDOF 6
ENDMDL
