MODEL 1
REMARK VINA RESULT:      -9.3      0.000      0.000
REMARK  5 active torsions:
REMARK  status: ('A' for Active; 'I' for Inactive)
REMARK    1  A    between atoms: C6_7  and  C7_8 
REMARK    2  A    between atoms: C8_10  and  N2_11 
REMARK    3  A    between atoms: C8_10  and  C9_12 
REMARK    4  A    between atoms: C14_19  and  N5_20 
REMARK    5  A    between atoms: N5_20  and  C15_21 
ROOT
HETATM    1  C9  UNL     1      23.497  -0.795  54.441  1.00  0.00     0.011 A 
HETATM    2  C10 UNL     1      22.412  -1.437  54.983  1.00  0.00     0.014 A 
HETATM    3  C11 UNL     1      21.124  -1.372  54.504  1.00  0.00     0.033 A 
HETATM    4  C12 UNL     1      20.880  -0.602  53.386  1.00  0.00     0.072 A 
HETATM    5  N3  UNL     1      19.600  -0.578  52.965  1.00  0.00    -0.241 NA
HETATM    6  C13 UNL     1      19.339   0.159  51.884  1.00  0.00     0.236 A 
HETATM    7  N4  UNL     1      20.295   0.828  51.267  1.00  0.00    -0.224 NA
HETATM    8  C14 UNL     1      21.575   0.829  51.652  1.00  0.00     0.142 A 
HETATM    9  C21 UNL     1      21.906   0.087  52.760  1.00  0.00     0.039 A 
HETATM   10  C22 UNL     1      23.164  -0.036  53.308  1.00  0.00     0.030 A 
ENDROOT
BRANCH   1  11
HETATM   11  C8  UNL     1      24.889  -0.760  54.862  1.00  0.00     0.313 A 
HETATM   12  C7  UNL     1      26.030  -0.252  54.168  1.00  0.00     0.229 A 
HETATM   13  O1  UNL     1      25.778  -1.649  54.098  1.00  0.00    -0.334 OA
BRANCH  12  14
HETATM   14  C6  UNL     1      26.175   0.328  52.809  1.00  0.00     0.258 C 
HETATM   15  C2  UNL     1      26.440   1.792  52.882  1.00  0.00     0.017 C 
HETATM   16  C1  UNL     1      26.559   2.411  51.513  1.00  0.00     0.012 C 
HETATM   17  C3  UNL     1      27.600   2.091  53.779  1.00  0.00     0.008 C 
HETATM   18  C4  UNL     1      28.748   1.148  53.633  1.00  0.00     0.030 C 
HETATM   19  C5  UNL     1      28.440  -0.198  53.092  1.00  0.00     0.270 C 
HETATM   20  N1  UNL     1      27.357  -0.288  52.171  1.00  0.00     0.091 N 
HETATM   21  H11 UNL     1      27.532   0.096  51.237  1.00  0.00     0.316 HD
ENDBRANCH  12  14
BRANCH  11  22
HETATM   22  N2  UNL     1      25.085  -1.085  56.286  1.00  0.00     0.121 N 
HETATM   23  H14 UNL     1      25.775  -1.853  56.316  1.00  0.00     0.317 HD
HETATM   24  H15 UNL     1      25.363  -0.245  56.837  1.00  0.00     0.317 HD
ENDBRANCH  11  22
ENDBRANCH   1  11
BRANCH   8  25
HETATM   25  N5  UNL     1      22.601   1.545  50.989  1.00  0.00    -0.340 N 
HETATM   26  H19 UNL     1      23.195   1.112  50.274  1.00  0.00     0.167 HD
BRANCH  25  27
HETATM   27  C15 UNL     1      23.012   2.892  51.137  1.00  0.00     0.035 A 
HETATM   28  C16 UNL     1      23.090   3.586  52.337  1.00  0.00     0.029 A 
HETATM   29  C17 UNL     1      23.495   4.890  52.458  1.00  0.00     0.004 A 
HETATM   30  C18 UNL     1      23.856   5.600  51.343  1.00  0.00     0.019 A 
HETATM   31  C19 UNL     1      23.805   4.984  50.126  1.00  0.00     0.013 A 
HETATM   32 BR1  UNL     1      24.320   6.025  48.623  1.00  0.00    -0.051 Br
HETATM   33  C20 UNL     1      23.391   3.674  50.068  1.00  0.00     0.048 A 
ENDBRANCH  25  27
ENDBRANCH   8  25
TORSDOF 5
ENDMDL
MODEL 2
REMARK VINA RESULT:      -9.1      1.402      2.033
REMARK  5 active torsions:
REMARK  status: ('A' for Active; 'I' for Inactive)
REMARK    1  A    between atoms: C6_7  and  C7_8 
REMARK    2  A    between atoms: C8_10  and  N2_11 
REMARK    3  A    between atoms: C8_10  and  C9_12 
REMARK    4  A    between atoms: C14_19  and  N5_20 
REMARK    5  A    between atoms: N5_20  and  C15_21 
ROOT
HETATM    1  C9  UNL     1      23.662  -0.354  53.944  1.00  0.00     0.011 A 
HETATM    2  C10 UNL     1      22.471  -1.018  53.792  1.00  0.00     0.014 A 
HETATM    3  C11 UNL     1      21.371  -0.544  53.115  1.00  0.00     0.033 A 
HETATM    4  C12 UNL     1      21.450   0.703  52.532  1.00  0.00     0.072 A 
HETATM    5  N3  UNL     1      20.343   1.114  51.884  1.00  0.00    -0.241 NA
HETATM    6  C13 UNL     1      20.395   2.317  51.311  1.00  0.00     0.236 A 
HETATM    7  N4  UNL     1      21.484   3.061  51.382  1.00  0.00    -0.224 NA
HETATM    8  C14 UNL     1      22.601   2.690  52.015  1.00  0.00     0.142 A 
HETATM    9  C21 UNL     1      22.609   1.459  52.625  1.00  0.00     0.039 A 
HETATM   10  C22 UNL     1      23.660   0.905  53.321  1.00  0.00     0.030 A 
ENDROOT
BRANCH   1  11
HETATM   11  C8  UNL     1      24.877  -0.728  54.650  1.00  0.00     0.313 A 
HETATM   12  C7  UNL     1      26.218  -0.281  54.441  1.00  0.00     0.229 A 
HETATM   13  O1  UNL     1      25.828  -1.514  53.849  1.00  0.00    -0.334 OA
BRANCH  12  14
HETATM   14  C6  UNL     1      26.802   0.631  53.427  1.00  0.00     0.258 C 
HETATM   15  C2  UNL     1      27.825   1.523  54.041  1.00  0.00     0.017 C 
HETATM   16  C1  UNL     1      28.410   2.482  53.037  1.00  0.00     0.012 C 
HETATM   17  C3  UNL     1      28.854   0.735  54.789  1.00  0.00     0.008 C 
HETATM   18  C4  UNL     1      29.294  -0.512  54.098  1.00  0.00     0.030 C 
HETATM   19  C5  UNL     1      28.350  -1.099  53.116  1.00  0.00     0.270 C 
HETATM   20  N1  UNL     1      27.502  -0.191  52.418  1.00  0.00     0.091 N 
HETATM   21  H11 UNL     1      27.958   0.384  51.703  1.00  0.00     0.316 HD
ENDBRANCH  12  14
BRANCH  11  22
HETATM   22  N2  UNL     1      24.631  -1.492  55.887  1.00  0.00     0.121 N 
HETATM   23  H14 UNL     1      25.170  -1.020  56.631  1.00  0.00     0.317 HD
HETATM   24  H15 UNL     1      23.613  -1.578  56.090  1.00  0.00     0.317 HD
ENDBRANCH  11  22
ENDBRANCH   1  11
BRANCH   8  25
HETATM   25  N5  UNL     1      23.770   3.487  52.090  1.00  0.00    -0.340 N 
HETATM   26  H19 UNL     1      24.034   3.990  52.943  1.00  0.00     0.167 HD
BRANCH  25  27
HETATM   27  C15 UNL     1      24.753   3.754  51.106  1.00  0.00     0.035 A 
HETATM   28  C16 UNL     1      25.687   2.844  50.629  1.00  0.00     0.029 A 
HETATM   29  C17 UNL     1      26.628   3.124  49.672  1.00  0.00     0.004 A 
HETATM   30  C18 UNL     1      26.690   4.376  49.119  1.00  0.00     0.019 A 
HETATM   31  C19 UNL     1      25.803   5.325  49.540  1.00  0.00     0.013 A 
HETATM   32 BR1  UNL     1      25.944   7.039  48.732  1.00  0.00    -0.051 Br
HETATM   33  C20 UNL     1      24.882   4.985  50.502  1.00  0.00     0.048 A 
ENDBRANCH  25  27
ENDBRANCH   8  25
TORSDOF 5
ENDMDL
MODEL 3
REMARK VINA RESULT:      -9.1      2.066      5.490
REMARK  5 active torsions:
REMARK  status: ('A' for Active; 'I' for Inactive)
REMARK    1  A    between atoms: C6_7  and  C7_8 
REMARK    2  A    between atoms: C8_10  and  N2_11 
REMARK    3  A    between atoms: C8_10  and  C9_12 
REMARK    4  A    between atoms: C14_19  and  N5_20 
REMARK    5  A    between atoms: N5_20  and  C15_21 
ROOT
HETATM    1  C9  UNL     1      23.970  -0.118  53.660  1.00  0.00     0.011 A 
HETATM    2  C10 UNL     1      24.737  -0.507  54.729  1.00  0.00     0.014 A 
HETATM    3  C11 UNL     1      26.040  -0.128  54.959  1.00  0.00     0.033 A 
HETATM    4  C12 UNL     1      26.645   0.715  54.050  1.00  0.00     0.072 A 
HETATM    5  N3  UNL     1      27.920   1.051  54.329  1.00  0.00    -0.241 NA
HETATM    6  C13 UNL     1      28.527   1.866  53.465  1.00  0.00     0.236 A 
HETATM    7  N4  UNL     1      27.900   2.314  52.393  1.00  0.00    -0.224 NA
HETATM    8  C14 UNL     1      26.638   2.004  52.081  1.00  0.00     0.142 A 
HETATM    9  C21 UNL     1      25.959   1.168  52.935  1.00  0.00     0.039 A 
HETATM   10  C22 UNL     1      24.659   0.737  52.785  1.00  0.00     0.030 A 
ENDROOT
BRANCH   1  11
HETATM   11  C8  UNL     1      22.607  -0.466  53.291  1.00  0.00     0.313 A 
HETATM   12  C7  UNL     1      21.621   0.327  52.626  1.00  0.00     0.229 A 
HETATM   13  O1  UNL     1      21.570   0.256  54.046  1.00  0.00    -0.334 OA
BRANCH  12  14
HETATM   14  C6  UNL     1      21.642   1.738  52.167  1.00  0.00     0.258 C 
HETATM   15  C2  UNL     1      22.026   1.824  50.731  1.00  0.00     0.017 C 
HETATM   16  C1  UNL     1      22.086   3.250  50.249  1.00  0.00     0.012 C 
HETATM   17  C3  UNL     1      21.166   0.939  49.884  1.00  0.00     0.008 C 
HETATM   18  C4  UNL     1      19.720   0.953  50.254  1.00  0.00     0.030 C 
HETATM   19  C5  UNL     1      19.392   1.346  51.646  1.00  0.00     0.270 C 
HETATM   20  N1  UNL     1      20.269   2.276  52.275  1.00  0.00     0.091 N 
HETATM   21  H11 UNL     1      20.209   3.242  51.941  1.00  0.00     0.316 HD
ENDBRANCH  12  14
BRANCH  11  22
HETATM   22  N2  UNL     1      22.306  -1.902  53.424  1.00  0.00     0.121 N 
HETATM   23  H14 UNL     1      22.060  -2.057  54.415  1.00  0.00     0.317 HD
HETATM   24  H15 UNL     1      21.568  -2.204  52.752  1.00  0.00     0.317 HD
ENDBRANCH  11  22
ENDBRANCH   1  11
BRANCH   8  25
HETATM   25  N5  UNL     1      25.965   2.486  50.933  1.00  0.00    -0.340 N 
HETATM   26  H19 UNL     1      25.261   1.929  50.438  1.00  0.00     0.167 HD
BRANCH  25  27
HETATM   27  C15 UNL     1      26.090   3.726  50.259  1.00  0.00     0.035 A 
HETATM   28  C16 UNL     1      27.034   4.026  49.287  1.00  0.00     0.029 A 
HETATM   29  C17 UNL     1      27.134   5.233  48.645  1.00  0.00     0.004 A 
HETATM   30  C18 UNL     1      26.263   6.245  48.951  1.00  0.00     0.019 A 
HETATM   31  C19 UNL     1      25.306   6.024  49.899  1.00  0.00     0.013 A 
HETATM   32 BR1  UNL     1      24.131   7.469  50.275  1.00  0.00    -0.051 Br
HETATM   33  C20 UNL     1      25.254   4.792  50.509  1.00  0.00     0.048 A 
ENDBRANCH  25  27
ENDBRANCH   8  25
TORSDOF 5
ENDMDL
MODEL 4
REMARK VINA RESULT:      -9.0      2.908      5.899
REMARK  5 active torsions:
REMARK  status: ('A' for Active; 'I' for Inactive)
REMARK    1  A    between atoms: C6_7  and  C7_8 
REMARK    2  A    between atoms: C8_10  and  N2_11 
REMARK    3  A    between atoms: C8_10  and  C9_12 
REMARK    4  A    between atoms: C14_19  and  N5_20 
REMARK    5  A    between atoms: N5_20  and  C15_21 
ROOT
HETATM    1  C9  UNL     1      20.634   0.802  51.831  1.00  0.00     0.011 A 
HETATM    2  C10 UNL     1      19.806   0.112  52.680  1.00  0.00     0.014 A 
HETATM    3  C11 UNL     1      20.212  -0.631  53.764  1.00  0.00     0.033 A 
HETATM    4  C12 UNL     1      21.561  -0.702  54.039  1.00  0.00     0.072 A 
HETATM    5  N3  UNL     1      21.898  -1.444  55.113  1.00  0.00    -0.241 NA
HETATM    6  C13 UNL     1      23.197  -1.528  55.400  1.00  0.00     0.236 A 
HETATM    7  N4  UNL     1      24.101  -0.911  54.661  1.00  0.00    -0.224 NA
HETATM    8  C14 UNL     1      23.809  -0.167  53.590  1.00  0.00     0.142 A 
HETATM    9  C21 UNL     1      22.485  -0.042  53.244  1.00  0.00     0.039 A 
HETATM   10  C22 UNL     1      21.988   0.678  52.180  1.00  0.00     0.030 A 
ENDROOT
BRANCH   1  11
HETATM   11  C8  UNL     1      20.338   1.593  50.647  1.00  0.00     0.313 A 
HETATM   12  C7  UNL     1      20.959   2.793  50.183  1.00  0.00     0.229 A 
HETATM   13  O1  UNL     1      19.754   2.913  50.929  1.00  0.00    -0.334 OA
BRANCH  12  14
HETATM   14  C6  UNL     1      22.031   3.634  50.771  1.00  0.00     0.258 C 
HETATM   15  C2  UNL     1      23.375   3.165  50.331  1.00  0.00     0.017 C 
HETATM   16  C1  UNL     1      24.483   3.984  50.941  1.00  0.00     0.012 C 
HETATM   17  C3  UNL     1      23.454   3.063  48.840  1.00  0.00     0.008 C 
HETATM   18  C4  UNL     1      22.801   4.190  48.112  1.00  0.00     0.030 C 
HETATM   19  C5  UNL     1      21.739   4.927  48.840  1.00  0.00     0.270 C 
HETATM   20  N1  UNL     1      21.870   5.010  50.256  1.00  0.00     0.091 N 
HETATM   21  H11 UNL     1      22.603   5.637  50.601  1.00  0.00     0.316 HD
ENDBRANCH  12  14
BRANCH  11  22
HETATM   22  N2  UNL     1      19.430   0.922  49.698  1.00  0.00     0.121 N 
HETATM   23  H14 UNL     1      18.472   1.200  49.967  1.00  0.00     0.317 HD
HETATM   24  H15 UNL     1      19.674   1.144  48.710  1.00  0.00     0.317 HD
ENDBRANCH  11  22
ENDBRANCH   1  11
BRANCH   8  25
HETATM   25  N5  UNL     1      24.778   0.496  52.798  1.00  0.00    -0.340 N 
HETATM   26  H19 UNL     1      24.563   0.864  51.866  1.00  0.00     0.167 HD
BRANCH  25  27
HETATM   27  C15 UNL     1      26.137   0.782  53.075  1.00  0.00     0.035 A 
HETATM   28  C16 UNL     1      26.664   2.042  53.324  1.00  0.00     0.029 A 
HETATM   29  C17 UNL     1      27.984   2.295  53.594  1.00  0.00     0.004 A 
HETATM   30  C18 UNL     1      28.885   1.263  53.630  1.00  0.00     0.019 A 
HETATM   31  C19 UNL     1      28.440  -0.006  53.394  1.00  0.00     0.013 A 
HETATM   32 BR1  UNL     1      29.740  -1.389  53.461  1.00  0.00    -0.051 Br
HETATM   33  C20 UNL     1      27.104  -0.198  53.130  1.00  0.00     0.048 A 
ENDBRANCH  25  27
ENDBRANCH   8  25
TORSDOF 5
ENDMDL
MODEL 5
REMARK VINA RESULT:      -8.6      2.934      4.552
REMARK  5 active torsions:
REMARK  status: ('A' for Active; 'I' for Inactive)
REMARK    1  A    between atoms: C6_7  and  C7_8 
REMARK    2  A    between atoms: C8_10  and  N2_11 
REMARK    3  A    between atoms: C8_10  and  C9_12 
REMARK    4  A    between atoms: C14_19  and  N5_20 
REMARK    5  A    between atoms: N5_20  and  C15_21 
ROOT
HETATM    1  C9  UNL     1      23.613   2.249  51.508  1.00  0.00     0.011 A 
HETATM    2  C10 UNL     1      22.768   1.289  51.012  1.00  0.00     0.014 A 
HETATM    3  C11 UNL     1      22.120   1.344  49.799  1.00  0.00     0.033 A 
HETATM    4  C12 UNL     1      22.322   2.449  48.999  1.00  0.00     0.072 A 
HETATM    5  N3  UNL     1      21.662   2.445  47.825  1.00  0.00    -0.241 NA
HETATM    6  C13 UNL     1      21.843   3.503  47.033  1.00  0.00     0.236 A 
HETATM    7  N4  UNL     1      22.632   4.499  47.392  1.00  0.00    -0.224 NA
HETATM    8  C14 UNL     1      23.304   4.540  48.547  1.00  0.00     0.142 A 
HETATM    9  C21 UNL     1      23.158   3.477  49.405  1.00  0.00     0.039 A 
HETATM   10  C22 UNL     1      23.766   3.337  50.634  1.00  0.00     0.030 A 
ENDROOT
BRANCH   1  11
HETATM   11  C8  UNL     1      24.330   2.324  52.771  1.00  0.00     0.313 A 
HETATM   12  C7  UNL     1      25.066   1.307  53.453  1.00  0.00     0.229 A 
HETATM   13  O1  UNL     1      23.724   1.543  53.861  1.00  0.00    -0.334 OA
BRANCH  12  14
HETATM   14  C6  UNL     1      25.279  -0.129  53.140  1.00  0.00     0.258 C 
HETATM   15  C2  UNL     1      26.531  -0.321  52.356  1.00  0.00     0.017 C 
HETATM   16  C1  UNL     1      26.753  -1.768  51.998  1.00  0.00     0.012 C 
HETATM   17  C3  UNL     1      27.702   0.316  53.036  1.00  0.00     0.008 C 
HETATM   18  C4  UNL     1      27.732   0.123  54.516  1.00  0.00     0.030 C 
HETATM   19  C5  UNL     1      26.433  -0.150  55.179  1.00  0.00     0.270 C 
HETATM   20  N1  UNL     1      25.458  -0.855  54.415  1.00  0.00     0.091 N 
HETATM   21  H11 UNL     1      25.643  -1.851  54.266  1.00  0.00     0.316 HD
ENDBRANCH  12  14
BRANCH  11  22
HETATM   22  N2  UNL     1      24.498   3.698  53.277  1.00  0.00     0.121 N 
HETATM   23  H14 UNL     1      23.788   4.274  52.795  1.00  0.00     0.317 HD
HETATM   24  H15 UNL     1      24.440   3.735  54.316  1.00  0.00     0.317 HD
ENDBRANCH  11  22
ENDBRANCH   1  11
BRANCH   8  25
HETATM   25  N5  UNL     1      24.152   5.606  48.931  1.00  0.00    -0.340 N 
HETATM   26  H19 UNL     1      23.815   6.399  49.487  1.00  0.00     0.167 HD
BRANCH  25  27
HETATM   27  C15 UNL     1      25.528   5.814  48.669  1.00  0.00     0.035 A 
HETATM   28  C16 UNL     1      26.543   4.897  48.904  1.00  0.00     0.029 A 
HETATM   29  C17 UNL     1      27.870   5.118  48.638  1.00  0.00     0.004 A 
HETATM   30  C18 UNL     1      28.270   6.314  48.102  1.00  0.00     0.019 A 
HETATM   31  C19 UNL     1      27.327   7.266  47.843  1.00  0.00     0.013 A 
HETATM   32 BR1  UNL     1      27.949   8.900  47.100  1.00  0.00    -0.051 Br
HETATM   33  C20 UNL     1      26.011   6.987  48.131  1.00  0.00     0.048 A 
ENDBRANCH  25  27
ENDBRANCH   8  25
TORSDOF 5
ENDMDL
MODEL 6
REMARK VINA RESULT:      -8.5      3.021      6.697
REMARK  5 active torsions:
REMARK  status: ('A' for Active; 'I' for Inactive)
REMARK    1  A    between atoms: C6_7  and  C7_8 
REMARK    2  A    between atoms: C8_10  and  N2_11 
REMARK    3  A    between atoms: C8_10  and  C9_12 
REMARK    4  A    between atoms: C14_19  and  N5_20 
REMARK    5  A    between atoms: N5_20  and  C15_21 
ROOT
HETATM    1  C9  UNL     1      25.035   3.282  50.915  1.00  0.00     0.011 A 
HETATM    2  C10 UNL     1      26.279   2.712  50.810  1.00  0.00     0.014 A 
HETATM    3  C11 UNL     1      26.681   1.549  51.426  1.00  0.00     0.033 A 
HETATM    4  C12 UNL     1      25.772   0.883  52.221  1.00  0.00     0.072 A 
HETATM    5  N3  UNL     1      26.222  -0.248  52.797  1.00  0.00    -0.241 NA
HETATM    6  C13 UNL     1      25.361  -0.911  53.570  1.00  0.00     0.236 A 
HETATM    7  N4  UNL     1      24.130  -0.470  53.756  1.00  0.00    -0.224 NA
HETATM    8  C14 UNL     1      23.646   0.646  53.203  1.00  0.00     0.142 A 
HETATM    9  C21 UNL     1      24.487   1.373  52.394  1.00  0.00     0.039 A 
HETATM   10  C22 UNL     1      24.172   2.543  51.740  1.00  0.00     0.030 A 
ENDROOT
BRANCH   1  11
HETATM   11  C8  UNL     1      24.499   4.507  50.345  1.00  0.00     0.313 A 
HETATM   12  C7  UNL     1      23.570   4.674  49.272  1.00  0.00     0.229 A 
HETATM   13  O1  UNL     1      24.955   4.790  48.975  1.00  0.00    -0.334 OA
BRANCH  12  14
HETATM   14  C6  UNL     1      22.917   3.687  48.376  1.00  0.00     0.258 C 
HETATM   15  C2  UNL     1      21.885   2.903  49.112  1.00  0.00     0.017 C 
HETATM   16  C1  UNL     1      21.230   1.871  48.231  1.00  0.00     0.012 C 
HETATM   17  C3  UNL     1      20.913   3.803  49.807  1.00  0.00     0.008 C 
HETATM   18  C4  UNL     1      20.494   4.991  49.006  1.00  0.00     0.030 C 
HETATM   19  C5  UNL     1      21.423   5.436  47.939  1.00  0.00     0.270 C 
HETATM   20  N1  UNL     1      22.211   4.429  47.311  1.00  0.00     0.091 N 
HETATM   21  H11 UNL     1      21.710   3.803  46.675  1.00  0.00     0.316 HD
ENDBRANCH  12  14
BRANCH  11  22
HETATM   22  N2  UNL     1      24.791   5.710  51.145  1.00  0.00     0.121 N 
HETATM   23  H14 UNL     1      24.227   5.629  52.007  1.00  0.00     0.317 HD
HETATM   24  H15 UNL     1      25.812   5.820  51.316  1.00  0.00     0.317 HD
ENDBRANCH  11  22
ENDBRANCH   1  11
BRANCH   8  25
HETATM   25  N5  UNL     1      22.325   1.119  53.400  1.00  0.00    -0.340 N 
HETATM   26  H19 UNL     1      22.129   2.034  53.818  1.00  0.00     0.167 HD
BRANCH  25  27
HETATM   27  C15 UNL     1      21.086   0.503  53.099  1.00  0.00     0.035 A 
HETATM   28  C16 UNL     1      20.480  -0.500  53.842  1.00  0.00     0.029 A 
HETATM   29  C17 UNL     1      19.276  -1.079  53.534  1.00  0.00     0.004 A 
HETATM   30  C18 UNL     1      18.586  -0.672  52.422  1.00  0.00     0.019 A 
HETATM   31  C19 UNL     1      19.120   0.312  51.641  1.00  0.00     0.013 A 
HETATM   32 BR1  UNL     1      18.112   0.829  50.116  1.00  0.00    -0.051 Br
HETATM   33  C20 UNL     1      20.331   0.855  52.001  1.00  0.00     0.048 A 
ENDBRANCH  25  27
ENDBRANCH   8  25
TORSDOF 5
ENDMDL
MODEL 7
REMARK VINA RESULT:      -8.4      2.382      3.877
REMARK  5 active torsions:
REMARK  status: ('A' for Active; 'I' for Inactive)
REMARK    1  A    between atoms: C6_7  and  C7_8 
REMARK    2  A    between atoms: C8_10  and  N2_11 
REMARK    3  A    between atoms: C8_10  and  C9_12 
REMARK    4  A    between atoms: C14_19  and  N5_20 
REMARK    5  A    between atoms: N5_20  and  C15_21 
ROOT
HETATM    1  C9  UNL     1      24.739   1.102  53.119  1.00  0.00     0.011 A 
HETATM    2  C10 UNL     1      24.941  -0.195  53.519  1.00  0.00     0.014 A 
HETATM    3  C11 UNL     1      23.951  -1.100  53.827  1.00  0.00     0.033 A 
HETATM    4  C12 UNL     1      22.638  -0.689  53.734  1.00  0.00     0.072 A 
HETATM    5  N3  UNL     1      21.714  -1.618  54.048  1.00  0.00    -0.241 NA
HETATM    6  C13 UNL     1      20.437  -1.244  53.964  1.00  0.00     0.236 A 
HETATM    7  N4  UNL     1      20.105  -0.022  53.592  1.00  0.00    -0.224 NA
HETATM    8  C14 UNL     1      20.990   0.927  53.272  1.00  0.00     0.142 A 
HETATM    9  C21 UNL     1      22.324   0.602  53.338  1.00  0.00     0.039 A 
HETATM   10  C22 UNL     1      23.378   1.439  53.049  1.00  0.00     0.030 A 
ENDROOT
BRANCH   1  11
HETATM   11  C8  UNL     1      25.688   2.155  52.795  1.00  0.00     0.313 A 
HETATM   12  C7  UNL     1      25.904   2.825  51.551  1.00  0.00     0.229 A 
HETATM   13  O1  UNL     1      26.765   1.743  51.881  1.00  0.00    -0.334 OA
BRANCH  12  14
HETATM   14  C6  UNL     1      25.297   2.627  50.211  1.00  0.00     0.258 C 
HETATM   15  C2  UNL     1      23.957   3.274  50.135  1.00  0.00     0.017 C 
HETATM   16  C1  UNL     1      23.304   3.060  48.794  1.00  0.00     0.012 C 
HETATM   17  C3  UNL     1      24.022   4.711  50.549  1.00  0.00     0.008 C 
HETATM   18  C4  UNL     1      25.216   5.444  50.034  1.00  0.00     0.030 C 
HETATM   19  C5  UNL     1      26.402   4.625  49.685  1.00  0.00     0.270 C 
HETATM   20  N1  UNL     1      26.154   3.303  49.214  1.00  0.00     0.091 N 
HETATM   21  H11 UNL     1      25.769   3.232  48.267  1.00  0.00     0.316 HD
ENDBRANCH  12  14
BRANCH  11  22
HETATM   22  N2  UNL     1      26.339   2.752  53.975  1.00  0.00     0.121 N 
HETATM   23  H14 UNL     1      27.098   3.352  53.616  1.00  0.00     0.317 HD
HETATM   24  H15 UNL     1      25.654   3.252  54.580  1.00  0.00     0.317 HD
ENDBRANCH  11  22
ENDBRANCH   1  11
BRANCH   8  25
HETATM   25  N5  UNL     1      20.635   2.238  52.871  1.00  0.00    -0.340 N 
HETATM   26  H19 UNL     1      20.561   3.013  53.538  1.00  0.00     0.167 HD
BRANCH  25  27
HETATM   27  C15 UNL     1      20.328   2.743  51.584  1.00  0.00     0.035 A 
HETATM   28  C16 UNL     1      19.878   1.991  50.507  1.00  0.00     0.029 A 
HETATM   29  C17 UNL     1      19.583   2.502  49.269  1.00  0.00     0.004 A 
HETATM   30  C18 UNL     1      19.728   3.844  49.031  1.00  0.00     0.019 A 
HETATM   31  C19 UNL     1      20.168   4.647  50.043  1.00  0.00     0.013 A 
HETATM   32 BR1  UNL     1      20.345   6.496  49.645  1.00  0.00    -0.051 Br
HETATM   33  C20 UNL     1      20.447   4.077  51.263  1.00  0.00     0.048 A 
ENDBRANCH  25  27
ENDBRANCH   8  25
TORSDOF 5
ENDMDL
MODEL 8
REMARK VINA RESULT:      -8.3      3.636      6.811
REMARK  5 active torsions:
REMARK  status: ('A' for Active; 'I' for Inactive)
REMARK    1  A    between atoms: C6_7  and  C7_8 
REMARK    2  A    between atoms: C8_10  and  N2_11 
REMARK    3  A    between atoms: C8_10  and  C9_12 
REMARK    4  A    between atoms: C14_19  and  N5_20 
REMARK    5  A    between atoms: N5_20  and  C15_21 
ROOT
HETATM    1  C9  UNL     1      24.756   3.592  50.970  1.00  0.00     0.011 A 
HETATM    2  C10 UNL     1      26.031   3.136  50.746  1.00  0.00     0.014 A 
HETATM    3  C11 UNL     1      26.550   1.950  51.212  1.00  0.00     0.033 A 
HETATM    4  C12 UNL     1      25.737   1.135  51.972  1.00  0.00     0.072 A 
HETATM    5  N3  UNL     1      26.300  -0.012  52.399  1.00  0.00    -0.241 NA
HETATM    6  C13 UNL     1      25.533  -0.818  53.135  1.00  0.00     0.236 A 
HETATM    7  N4  UNL     1      24.286  -0.497  53.425  1.00  0.00    -0.224 NA
HETATM    8  C14 UNL     1      23.691   0.630  53.020  1.00  0.00     0.142 A 
HETATM    9  C21 UNL     1      24.431   1.501  52.257  1.00  0.00     0.039 A 
HETATM   10  C22 UNL     1      23.996   2.705  51.749  1.00  0.00     0.030 A 
ENDROOT
BRANCH   1  11
HETATM   11  C8  UNL     1      24.102   4.825  50.562  1.00  0.00     0.313 A 
HETATM   12  C7  UNL     1      24.681   6.033  50.066  1.00  0.00     0.229 A 
HETATM   13  O1  UNL     1      24.357   5.970  51.449  1.00  0.00    -0.334 OA
BRANCH  12  14
HETATM   14  C6  UNL     1      26.096   6.437  49.872  1.00  0.00     0.258 C 
HETATM   15  C2  UNL     1      26.424   6.542  48.423  1.00  0.00     0.017 C 
HETATM   16  C1  UNL     1      27.866   6.919  48.199  1.00  0.00     0.012 C 
HETATM   17  C3  UNL     1      25.454   7.429  47.708  1.00  0.00     0.008 C 
HETATM   18  C4  UNL     1      25.078   8.661  48.462  1.00  0.00     0.030 C 
HETATM   19  C5  UNL     1      25.230   8.612  49.937  1.00  0.00     0.270 C 
HETATM   20  N1  UNL     1      26.273   7.786  50.449  1.00  0.00     0.091 N 
HETATM   21  H11 UNL     1      27.226   8.138  50.317  1.00  0.00     0.316 HD
ENDBRANCH  12  14
BRANCH  11  22
HETATM   22  N2  UNL     1      22.639   4.705  50.434  1.00  0.00     0.121 N 
HETATM   23  H14 UNL     1      22.445   3.710  50.234  1.00  0.00     0.317 HD
HETATM   24  H15 UNL     1      22.148   5.070  51.278  1.00  0.00     0.317 HD
ENDBRANCH  11  22
ENDBRANCH   1  11
BRANCH   8  25
HETATM   25  N5  UNL     1      22.353   0.974  53.329  1.00  0.00    -0.340 N 
HETATM   26  H19 UNL     1      22.108   1.536  54.150  1.00  0.00     0.167 HD
BRANCH  25  27
HETATM   27  C15 UNL     1      21.152   0.655  52.648  1.00  0.00     0.035 A 
HETATM   28  C16 UNL     1      20.793   1.111  51.387  1.00  0.00     0.029 A 
HETATM   29  C17 UNL     1      19.626   0.786  50.745  1.00  0.00     0.004 A 
HETATM   30  C18 UNL     1      18.719  -0.042  51.352  1.00  0.00     0.019 A 
HETATM   31  C19 UNL     1      19.003  -0.530  52.595  1.00  0.00     0.013 A 
HETATM   32 BR1  UNL     1      17.703  -1.673  53.377  1.00  0.00    -0.051 Br
HETATM   33  C20 UNL     1      20.190  -0.169  53.188  1.00  0.00     0.048 A 
ENDBRANCH  25  27
ENDBRANCH   8  25
TORSDOF 5
ENDMDL
MODEL 9
REMARK VINA RESULT:      -8.3      8.198     11.098
REMARK  5 active torsions:
REMARK  status: ('A' for Active; 'I' for Inactive)
REMARK    1  A    between atoms: C6_7  and  C7_8 
REMARK    2  A    between atoms: C8_10  and  N2_11 
REMARK    3  A    between atoms: C8_10  and  C9_12 
REMARK    4  A    between atoms: C14_19  and  N5_20 
REMARK    5  A    between atoms: N5_20  and  C15_21 
ROOT
HETATM    1  C9  UNL     1      31.813   7.287  48.621  1.00  0.00     0.011 A 
HETATM    2  C10 UNL     1      32.720   8.064  47.946  1.00  0.00     0.014 A 
HETATM    3  C11 UNL     1      32.585   9.409  47.687  1.00  0.00     0.033 A 
HETATM    4  C12 UNL     1      31.448  10.050  48.135  1.00  0.00     0.072 A 
HETATM    5  N3  UNL     1      31.373  11.365  47.852  1.00  0.00    -0.241 NA
HETATM    6  C13 UNL     1      30.283  12.007  48.275  1.00  0.00     0.236 A 
HETATM    7  N4  UNL     1      29.332  11.375  48.937  1.00  0.00    -0.224 NA
HETATM    8  C14 UNL     1      29.369  10.073  49.238  1.00  0.00     0.142 A 
HETATM    9  C21 UNL     1      30.469   9.357  48.829  1.00  0.00     0.039 A 
HETATM   10  C22 UNL     1      30.688   8.014  49.042  1.00  0.00     0.030 A 
ENDROOT
BRANCH   1  11
HETATM   11  C8  UNL     1      31.823   5.867  48.933  1.00  0.00     0.313 A 
HETATM   12  C7  UNL     1      32.093   4.756  48.075  1.00  0.00     0.229 A 
HETATM   13  O1  UNL     1      30.733   5.100  48.310  1.00  0.00    -0.334 OA
BRANCH  12  14
HETATM   14  C6  UNL     1      32.377   4.685  46.620  1.00  0.00     0.258 C 
HETATM   15  C2  UNL     1      33.803   5.012  46.341  1.00  0.00     0.017 C 
HETATM   16  C1  UNL     1      34.109   4.978  44.866  1.00  0.00     0.012 C 
HETATM   17  C3  UNL     1      34.725   4.169  47.165  1.00  0.00     0.008 C 
HETATM   18  C4  UNL     1      34.314   2.739  47.279  1.00  0.00     0.030 C 
HETATM   19  C5  UNL     1      32.875   2.442  47.075  1.00  0.00     0.270 C 
HETATM   20  N1  UNL     1      32.164   3.290  46.178  1.00  0.00     0.091 N 
HETATM   21  H11 UNL     1      32.377   3.167  45.184  1.00  0.00     0.316 HD
ENDBRANCH  12  14
BRANCH  11  22
HETATM   22  N2  UNL     1      31.775   5.576  50.377  1.00  0.00     0.121 N 
HETATM   23  H14 UNL     1      32.208   4.647  50.501  1.00  0.00     0.317 HD
HETATM   24  H15 UNL     1      32.225   6.331  50.937  1.00  0.00     0.317 HD
ENDBRANCH  11  22
ENDBRANCH   1  11
BRANCH   8  25
HETATM   25  N5  UNL     1      28.350   9.395  49.950  1.00  0.00    -0.340 N 
HETATM   26  H19 UNL     1      28.289   9.420  50.973  1.00  0.00     0.167 HD
BRANCH  25  27
HETATM   27  C15 UNL     1      27.281   8.600  49.470  1.00  0.00     0.035 A 
HETATM   28  C16 UNL     1      27.037   8.291  48.139  1.00  0.00     0.029 A 
HETATM   29  C17 UNL     1      25.996   7.516  47.697  1.00  0.00     0.004 A 
HETATM   30  C18 UNL     1      25.107   6.988  48.596  1.00  0.00     0.019 A 
HETATM   31  C19 UNL     1      25.282   7.250  49.924  1.00  0.00     0.013 A 
HETATM   32 BR1  UNL     1      24.014   6.486  51.115  1.00  0.00    -0.051 Br
HETATM   33  C20 UNL     1      26.345   8.033  50.307  1.00  0.00     0.048 A 
ENDBRANCH  25  27
ENDBRANCH   8  25
TORSDOF 5
ENDMDL
