MODEL 1
REMARK VINA RESULT:      -9.4      0.000      0.000
REMARK  3 active torsions:
REMARK  status: ('A' for Active; 'I' for Inactive)
REMARK    1  A    between atoms: C18_24  and  N4_25 
REMARK    2  A    between atoms: N4_25  and  C19_26 
REMARK    3  A    between atoms: C19_26  and  C20_27 
ROOT
HETATM    1  C1  UNL     1      26.138   2.288  51.217  1.00  0.00     0.049 C 
HETATM    2  C2  UNL     1      24.753   1.724  51.441  1.00  0.00    -0.048 C 
HETATM    3  C3  UNL     1      24.084   2.214  50.491  1.00  0.00     0.007 C 
HETATM    4  C4  UNL     1      22.882   2.363  49.801  1.00  0.00     0.002 C 
HETATM    5  C5  UNL     1      21.916   2.654  49.009  1.00  0.00     0.038 C 
HETATM    6  C6  UNL     1      20.521   2.613  48.511  1.00  0.00     0.337 C 
HETATM    7  F1  UNL     1      20.388   3.337  47.401  1.00  0.00    -0.215 F 
HETATM    8  O1  UNL     1      19.640   3.007  49.606  1.00  0.00    -0.311 OA
HETATM    9  C7  UNL     1      19.756   2.109  50.720  1.00  0.00     0.094 A 
HETATM   10  C8  UNL     1      19.456   0.811  50.542  1.00  0.00     0.041 A 
HETATM   11  C9  UNL     1      19.778   0.277  51.797  1.00  0.00     0.034 A 
HETATM   12  C10 UNL     1      20.212   1.366  52.484  1.00  0.00     0.052 A 
HETATM   13  C11 UNL     1      20.417   2.691  52.397  1.00  0.00     0.057 A 
HETATM   14  C12 UNL     1      20.145   3.315  51.230  1.00  0.00     0.069 A 
HETATM   15 CL1  UNL     1      20.491   4.978  51.355  1.00  0.00    -0.081 Cl
HETATM   16  N1  UNL     1      20.728   0.518  53.517  1.00  0.00    -0.286 N 
HETATM   17  C13 UNL     1      21.033  -0.389  54.573  1.00  0.00     0.205 C 
HETATM   18  C14 UNL     1      21.968  -1.484  54.069  1.00  0.00     0.271 C 
HETATM   19  N2  UNL     1      22.815  -1.032  53.011  1.00  0.00    -0.236 NA
HETATM   20  C15 UNL     1      23.241   0.177  52.938  1.00  0.00     0.150 C 
HETATM   21  N3  UNL     1      22.072   0.977  53.224  1.00  0.00    -0.281 N 
HETATM   22  C16 UNL     1      24.533   0.837  52.599  1.00  0.00     0.015 C 
HETATM   23  C17 UNL     1      25.666   0.685  53.297  1.00  0.00     0.028 C 
HETATM   24  C18 UNL     1      26.011  -0.087  54.540  1.00  0.00     0.269 C 
HETATM   25  C21 UNL     1      24.751  -0.629  55.045  1.00  0.00     0.036 C 
HETATM   26  C22 UNL     1      23.663  -0.950  55.674  1.00  0.00     0.136 C 
HETATM   27  O3  UNL     1      22.756  -1.942  55.219  1.00  0.00    -0.334 OA
HETATM   28  H14 UNL     1      22.431   1.974  53.203  1.00  0.00     0.189 HD
ENDROOT
BRANCH  24  29
HETATM   29  N4  UNL     1      27.056  -1.014  54.260  1.00  0.00     0.101 N 
HETATM   30  H17 UNL     1      26.617  -1.950  54.021  1.00  0.00     0.317 HD
BRANCH  29  31
HETATM   31  C19 UNL     1      27.938  -0.591  53.204  1.00  0.00     0.339 C 
BRANCH  31  32
HETATM   32  C20 UNL     1      29.326  -1.132  53.422  1.00  0.00     0.261 C 
HETATM   33  O2  UNL     1      28.714  -2.183  53.399  1.00  0.00    -0.305 OA
ENDBRANCH  31  32
ENDBRANCH  29  31
ENDBRANCH  24  29
TORSDOF 3
ENDMDL
MODEL 2
REMARK VINA RESULT:      -9.2      2.517      4.145
REMARK  3 active torsions:
REMARK  status: ('A' for Active; 'I' for Inactive)
REMARK    1  A    between atoms: C18_24  and  N4_25 
REMARK    2  A    between atoms: N4_25  and  C19_26 
REMARK    3  A    between atoms: C19_26  and  C20_27 
ROOT
HETATM    1  C1  UNL     1      21.881  -0.989  53.888  1.00  0.00     0.049 C 
HETATM    2  C2  UNL     1      22.230   0.282  53.148  1.00  0.00    -0.048 C 
HETATM    3  C3  UNL     1      21.111   0.844  52.996  1.00  0.00     0.007 C 
HETATM    4  C4  UNL     1      20.336   1.902  52.523  1.00  0.00     0.002 C 
HETATM    5  C5  UNL     1      19.426   2.741  52.190  1.00  0.00     0.038 C 
HETATM    6  C6  UNL     1      18.892   3.983  51.582  1.00  0.00     0.337 C 
HETATM    7  F1  UNL     1      17.573   4.069  51.749  1.00  0.00    -0.215 F 
HETATM    8  O1  UNL     1      19.335   4.029  50.192  1.00  0.00    -0.311 OA
HETATM    9  C7  UNL     1      20.767   4.052  50.100  1.00  0.00     0.094 A 
HETATM   10  C8  UNL     1      21.439   5.070  50.666  1.00  0.00     0.041 A 
HETATM   11  C9  UNL     1      22.768   4.684  50.444  1.00  0.00     0.034 A 
HETATM   12  C10 UNL     1      22.631   3.503  49.786  1.00  0.00     0.052 A 
HETATM   13  C11 UNL     1      21.732   2.636  49.293  1.00  0.00     0.057 A 
HETATM   14  C12 UNL     1      20.416   2.902  49.452  1.00  0.00     0.069 A 
HETATM   15 CL1  UNL     1      19.475   1.664  48.759  1.00  0.00    -0.081 Cl
HETATM   16  N1  UNL     1      24.024   3.228  49.975  1.00  0.00    -0.286 N 
HETATM   17  C13 UNL     1      25.444   3.135  50.043  1.00  0.00     0.205 C 
HETATM   18  C14 UNL     1      25.906   3.232  51.495  1.00  0.00     0.271 C 
HETATM   19  N2  UNL     1      24.935   2.721  52.410  1.00  0.00    -0.236 NA
HETATM   20  C15 UNL     1      24.151   1.750  52.111  1.00  0.00     0.150 C 
HETATM   21  N3  UNL     1      23.687   2.071  50.781  1.00  0.00    -0.281 N 
HETATM   22  C16 UNL     1      23.643   0.534  52.807  1.00  0.00     0.015 C 
HETATM   23  C17 UNL     1      24.415  -0.474  53.231  1.00  0.00     0.028 C 
HETATM   24  C18 UNL     1      25.893  -0.739  53.151  1.00  0.00     0.269 C 
HETATM   25  C21 UNL     1      26.454   0.327  52.324  1.00  0.00     0.036 C 
HETATM   26  C22 UNL     1      26.987   1.096  51.425  1.00  0.00     0.136 C 
HETATM   27  O3  UNL     1      27.169   2.493  51.596  1.00  0.00    -0.334 OA
HETATM   28  H14 UNL     1      23.071   1.249  50.518  1.00  0.00     0.189 HD
ENDROOT
BRANCH  24  29
HETATM   29  N4  UNL     1      26.428  -0.898  54.463  1.00  0.00     0.101 N 
HETATM   30  H17 UNL     1      27.071  -1.743  54.462  1.00  0.00     0.317 HD
BRANCH  29  31
HETATM   31  C19 UNL     1      27.128   0.262  54.946  1.00  0.00     0.339 C 
BRANCH  31  32
HETATM   32  C20 UNL     1      28.614   0.019  54.957  1.00  0.00     0.261 C 
HETATM   33  O2  UNL     1      28.621   1.235  54.956  1.00  0.00    -0.305 OA
ENDBRANCH  31  32
ENDBRANCH  29  31
ENDBRANCH  24  29
TORSDOF 3
ENDMDL
MODEL 3
REMARK VINA RESULT:      -8.8      2.142      2.689
REMARK  3 active torsions:
REMARK  status: ('A' for Active; 'I' for Inactive)
REMARK    1  A    between atoms: C18_24  and  N4_25 
REMARK    2  A    between atoms: N4_25  and  C19_26 
REMARK    3  A    between atoms: C19_26  and  C20_27 
ROOT
HETATM    1  C1  UNL     1      26.594   3.581  49.833  1.00  0.00     0.049 C 
HETATM    2  C2  UNL     1      25.109   3.343  49.985  1.00  0.00    -0.048 C 
HETATM    3  C3  UNL     1      24.600   4.180  49.192  1.00  0.00     0.007 C 
HETATM    4  C4  UNL     1      23.484   4.771  48.601  1.00  0.00     0.002 C 
HETATM    5  C5  UNL     1      22.634   5.459  47.931  1.00  0.00     0.038 C 
HETATM    6  C6  UNL     1      21.282   5.876  47.492  1.00  0.00     0.337 C 
HETATM    7  F1  UNL     1      21.352   6.837  46.573  1.00  0.00    -0.215 F 
HETATM    8  O1  UNL     1      20.511   6.226  48.681  1.00  0.00    -0.311 OA
HETATM    9  C7  UNL     1      20.380   5.104  49.568  1.00  0.00     0.094 A 
HETATM   10  C8  UNL     1      19.767   3.993  49.125  1.00  0.00     0.041 A 
HETATM   11  C9  UNL     1      19.925   3.133  50.220  1.00  0.00     0.034 A 
HETATM   12  C10 UNL     1      20.607   3.901  51.109  1.00  0.00     0.052 A 
HETATM   13  C11 UNL     1      21.140   5.119  51.303  1.00  0.00     0.057 A 
HETATM   14  C12 UNL     1      21.051   6.033  50.312  1.00  0.00     0.069 A 
HETATM   15 CL1  UNL     1      21.801   7.488  50.781  1.00  0.00    -0.081 Cl
HETATM   16  N1  UNL     1      20.878   2.746  51.910  1.00  0.00    -0.286 N 
HETATM   17  C13 UNL     1      20.929   1.582  52.732  1.00  0.00     0.205 C 
HETATM   18  C14 UNL     1      21.568   0.427  51.964  1.00  0.00     0.271 C 
HETATM   19  N2  UNL     1      22.518   0.878  50.996  1.00  0.00    -0.236 NA
HETATM   20  C15 UNL     1      23.234   1.928  51.170  1.00  0.00     0.150 C 
HETATM   21  N3  UNL     1      22.298   2.910  51.670  1.00  0.00    -0.281 N 
HETATM   22  C16 UNL     1      24.655   2.305  50.931  1.00  0.00     0.015 C 
HETATM   23  C17 UNL     1      25.703   1.727  51.533  1.00  0.00     0.028 C 
HETATM   24  C18 UNL     1      25.824   0.640  52.564  1.00  0.00     0.269 C 
HETATM   25  C21 UNL     1      24.460   0.329  52.989  1.00  0.00     0.036 C 
HETATM   26  C22 UNL     1      23.317   0.157  53.577  1.00  0.00     0.136 C 
HETATM   27  O3  UNL     1      22.197  -0.453  52.954  1.00  0.00    -0.334 OA
HETATM   28  H14 UNL     1      22.897   3.766  51.852  1.00  0.00     0.189 HD
ENDROOT
BRANCH  24  29
HETATM   29  N4  UNL     1      26.607  -0.433  52.047  1.00  0.00     0.101 N 
HETATM   30  H17 UNL     1      27.138  -0.081  51.199  1.00  0.00     0.317 HD
BRANCH  29  31
HETATM   31  C19 UNL     1      27.517  -0.999  53.007  1.00  0.00     0.339 C 
BRANCH  31  32
HETATM   32  C20 UNL     1      28.423   0.064  53.571  1.00  0.00     0.261 C 
HETATM   33  O2  UNL     1      28.367  -0.671  54.538  1.00  0.00    -0.305 OA
ENDBRANCH  31  32
ENDBRANCH  29  31
ENDBRANCH  24  29
TORSDOF 3
ENDMDL
MODEL 4
REMARK VINA RESULT:      -8.6      3.389      6.322
REMARK  3 active torsions:
REMARK  status: ('A' for Active; 'I' for Inactive)
REMARK    1  A    between atoms: C18_24  and  N4_25 
REMARK    2  A    between atoms: N4_25  and  C19_26 
REMARK    3  A    between atoms: C19_26  and  C20_27 
ROOT
HETATM    1  C1  UNL     1      22.203  -1.086  54.847  1.00  0.00     0.049 C 
HETATM    2  C2  UNL     1      21.997  -0.249  53.605  1.00  0.00    -0.048 C 
HETATM    3  C3  UNL     1      23.138   0.246  53.398  1.00  0.00     0.007 C 
HETATM    4  C4  UNL     1      23.996   1.050  52.649  1.00  0.00     0.002 C 
HETATM    5  C5  UNL     1      24.964   1.716  52.135  1.00  0.00     0.038 C 
HETATM    6  C6  UNL     1      25.607   2.625  51.157  1.00  0.00     0.337 C 
HETATM    7  F1  UNL     1      26.901   2.783  51.429  1.00  0.00    -0.215 F 
HETATM    8  O1  UNL     1      24.836   3.864  51.119  1.00  0.00    -0.311 OA
HETATM    9  C7  UNL     1      23.483   3.626  50.704  1.00  0.00     0.094 A 
HETATM   10  C8  UNL     1      23.260   3.094  49.490  1.00  0.00     0.041 A 
HETATM   11  C9  UNL     1      21.867   2.938  49.506  1.00  0.00     0.034 A 
HETATM   12  C10 UNL     1      21.527   3.409  50.735  1.00  0.00     0.052 A 
HETATM   13  C11 UNL     1      22.019   3.948  51.863  1.00  0.00     0.057 A 
HETATM   14  C12 UNL     1      23.353   4.141  51.962  1.00  0.00     0.069 A 
HETATM   15 CL1  UNL     1      23.739   4.821  53.475  1.00  0.00    -0.081 Cl
HETATM   16  N1  UNL     1      20.212   2.862  50.588  1.00  0.00    -0.286 N 
HETATM   17  C13 UNL     1      18.883   2.454  50.272  1.00  0.00     0.205 C 
HETATM   18  C14 UNL     1      18.863   0.971  49.912  1.00  0.00     0.271 C 
HETATM   19  N2  UNL     1      19.884   0.234  50.586  1.00  0.00    -0.236 NA
HETATM   20  C15 UNL     1      20.295   0.542  51.762  1.00  0.00     0.150 C 
HETATM   21  N3  UNL     1      20.453   1.977  51.712  1.00  0.00    -0.281 N 
HETATM   22  C16 UNL     1      20.652  -0.206  53.000  1.00  0.00     0.015 C 
HETATM   23  C17 UNL     1      19.795  -0.955  53.706  1.00  0.00     0.028 C 
HETATM   24  C18 UNL     1      18.332  -1.262  53.552  1.00  0.00     0.269 C 
HETATM   25  C21 UNL     1      17.853  -0.424  52.455  1.00  0.00     0.036 C 
HETATM   26  C22 UNL     1      17.309   0.441  51.655  1.00  0.00     0.136 C 
HETATM   27  O3  UNL     1      17.530   0.463  50.253  1.00  0.00    -0.334 OA
HETATM   28  H14 UNL     1      20.754   2.238  52.695  1.00  0.00     0.189 HD
ENDROOT
BRANCH  24  29
HETATM   29  N4  UNL     1      18.142  -2.670  53.429  1.00  0.00     0.101 N 
HETATM   30  H17 UNL     1      18.492  -3.133  54.317  1.00  0.00     0.317 HD
BRANCH  29  31
HETATM   31  C19 UNL     1      16.779  -3.049  53.171  1.00  0.00     0.339 C 
BRANCH  31  32
HETATM   32  C20 UNL     1      16.442  -4.335  53.879  1.00  0.00     0.261 C 
HETATM   33  O2  UNL     1      17.303  -4.752  53.128  1.00  0.00    -0.305 OA
ENDBRANCH  31  32
ENDBRANCH  29  31
ENDBRANCH  24  29
TORSDOF 3
ENDMDL
MODEL 5
REMARK VINA RESULT:      -8.5      5.706      7.802
REMARK  3 active torsions:
REMARK  status: ('A' for Active; 'I' for Inactive)
REMARK    1  A    between atoms: C18_24  and  N4_25 
REMARK    2  A    between atoms: N4_25  and  C19_26 
REMARK    3  A    between atoms: C19_26  and  C20_27 
ROOT
HETATM    1  C1  UNL     1      26.630   2.785  49.609  1.00  0.00     0.049 C 
HETATM    2  C2  UNL     1      25.826   4.061  49.705  1.00  0.00    -0.048 C 
HETATM    3  C3  UNL     1      24.732   3.676  50.202  1.00  0.00     0.007 C 
HETATM    4  C4  UNL     1      23.444   3.946  50.661  1.00  0.00     0.002 C 
HETATM    5  C5  UNL     1      22.251   3.939  51.131  1.00  0.00     0.038 C 
HETATM    6  C6  UNL     1      20.955   4.535  51.533  1.00  0.00     0.337 C 
HETATM    7  F1  UNL     1      20.142   3.613  52.044  1.00  0.00    -0.215 F 
HETATM    8  O1  UNL     1      20.415   5.255  50.384  1.00  0.00    -0.311 OA
HETATM    9  C7  UNL     1      21.296   6.309  49.966  1.00  0.00     0.094 A 
HETATM   10  C8  UNL     1      21.586   7.295  50.832  1.00  0.00     0.041 A 
HETATM   11  C9  UNL     1      22.516   8.045  50.100  1.00  0.00     0.034 A 
HETATM   12  C10 UNL     1      22.602   7.356  48.932  1.00  0.00     0.052 A 
HETATM   13  C11 UNL     1      22.133   6.286  48.267  1.00  0.00     0.057 A 
HETATM   14  C12 UNL     1      21.232   5.486  48.878  1.00  0.00     0.069 A 
HETATM   15 CL1  UNL     1      20.795   4.199  47.852  1.00  0.00    -0.081 Cl
HETATM   16  N1  UNL     1      23.762   8.111  48.563  1.00  0.00    -0.286 N 
HETATM   17  C13 UNL     1      24.783   9.038  48.202  1.00  0.00     0.205 C 
HETATM   18  C14 UNL     1      25.888   9.036  49.256  1.00  0.00     0.271 C 
HETATM   19  N2  UNL     1      26.023   7.767  49.900  1.00  0.00    -0.236 NA
HETATM   20  C15 UNL     1      25.793   6.659  49.294  1.00  0.00     0.150 C 
HETATM   21  N3  UNL     1      24.559   6.900  48.581  1.00  0.00    -0.281 N 
HETATM   22  C16 UNL     1      26.439   5.318  49.237  1.00  0.00     0.015 C 
HETATM   23  C17 UNL     1      27.675   5.093  48.771  1.00  0.00     0.028 C 
HETATM   24  C18 UNL     1      28.729   5.988  48.181  1.00  0.00     0.269 C 
HETATM   25  C21 UNL     1      28.111   7.304  48.036  1.00  0.00     0.036 C 
HETATM   26  C22 UNL     1      27.573   8.426  47.668  1.00  0.00     0.136 C 
HETATM   27  O3  UNL     1      27.131   9.421  48.578  1.00  0.00    -0.334 OA
HETATM   28  H14 UNL     1      24.389   5.998  48.049  1.00  0.00     0.189 HD
ENDROOT
BRANCH  24  29
HETATM   29  N4  UNL     1      29.922   5.908  48.957  1.00  0.00     0.101 N 
HETATM   30  H17 UNL     1      29.917   4.987  49.484  1.00  0.00     0.317 HD
BRANCH  29  31
HETATM   31  C19 UNL     1      31.126   6.033  48.180  1.00  0.00     0.339 C 
BRANCH  31  32
HETATM   32  C20 UNL     1      31.424   4.750  47.452  1.00  0.00     0.261 C 
HETATM   33  O2  UNL     1      32.041   4.533  48.477  1.00  0.00    -0.305 OA
ENDBRANCH  31  32
ENDBRANCH  29  31
ENDBRANCH  24  29
TORSDOF 3
ENDMDL
MODEL 6
REMARK VINA RESULT:      -8.2      4.742      7.019
REMARK  3 active torsions:
REMARK  status: ('A' for Active; 'I' for Inactive)
REMARK    1  A    between atoms: C18_24  and  N4_25 
REMARK    2  A    between atoms: N4_25  and  C19_26 
REMARK    3  A    between atoms: C19_26  and  C20_27 
ROOT
HETATM    1  C1  UNL     1      26.792   3.032  49.976  1.00  0.00     0.049 C 
HETATM    2  C2  UNL     1      25.397   3.479  50.346  1.00  0.00    -0.048 C 
HETATM    3  C3  UNL     1      24.889   2.446  50.861  1.00  0.00     0.007 C 
HETATM    4  C4  UNL     1      23.816   1.789  51.461  1.00  0.00     0.002 C 
HETATM    5  C5  UNL     1      22.991   0.981  52.019  1.00  0.00     0.038 C 
HETATM    6  C6  UNL     1      21.699   0.573  52.618  1.00  0.00     0.337 C 
HETATM    7  F1  UNL     1      21.743  -0.692  53.035  1.00  0.00    -0.215 F 
HETATM    8  O1  UNL     1      20.644   0.859  51.651  1.00  0.00    -0.311 OA
HETATM    9  C7  UNL     1      20.584   2.260  51.342  1.00  0.00     0.094 A 
HETATM   10  C8  UNL     1      20.333   3.133  52.332  1.00  0.00     0.041 A 
HETATM   11  C9  UNL     1      20.449   4.357  51.659  1.00  0.00     0.034 A 
HETATM   12  C10 UNL     1      20.750   3.974  50.391  1.00  0.00     0.052 A 
HETATM   13  C11 UNL     1      20.951   2.907  49.600  1.00  0.00     0.057 A 
HETATM   14  C12 UNL     1      20.869   1.672  50.142  1.00  0.00     0.069 A 
HETATM   15 CL1  UNL     1      21.169   0.486  48.958  1.00  0.00    -0.081 Cl
HETATM   16  N1  UNL     1      21.098   5.323  50.058  1.00  0.00    -0.286 N 
HETATM   17  C13 UNL     1      21.234   6.713  49.773  1.00  0.00     0.205 C 
HETATM   18  C14 UNL     1      22.253   7.344  50.718  1.00  0.00     0.271 C 
HETATM   19  N2  UNL     1      23.258   6.416  51.131  1.00  0.00    -0.236 NA
HETATM   20  C15 UNL     1      23.675   5.469  50.372  1.00  0.00     0.150 C 
HETATM   21  N3  UNL     1      22.466   4.912  49.812  1.00  0.00    -0.281 N 
HETATM   22  C16 UNL     1      24.998   4.867  50.042  1.00  0.00     0.015 C 
HETATM   23  C17 UNL     1      26.001   5.524  49.446  1.00  0.00     0.028 C 
HETATM   24  C18 UNL     1      26.144   6.928  48.928  1.00  0.00     0.269 C 
HETATM   25  C21 UNL     1      24.825   7.544  49.052  1.00  0.00     0.036 C 
HETATM   26  C22 UNL     1      23.652   8.081  48.919  1.00  0.00     0.136 C 
HETATM   27  O3  UNL     1      22.844   8.487  50.014  1.00  0.00    -0.334 OA
HETATM   28  H14 UNL     1      22.812   4.155  49.154  1.00  0.00     0.189 HD
ENDROOT
BRANCH  24  29
HETATM   29  N4  UNL     1      27.233   7.577  49.581  1.00  0.00     0.101 N 
HETATM   30  H17 UNL     1      28.042   7.640  48.898  1.00  0.00     0.317 HD
BRANCH  29  31
HETATM   31  C19 UNL     1      26.906   8.882  50.091  1.00  0.00     0.339 C 
BRANCH  31  32
HETATM   32  C20 UNL     1      27.913   9.901  49.628  1.00  0.00     0.261 C 
HETATM   33  O2  UNL     1      26.894  10.495  49.333  1.00  0.00    -0.305 OA
ENDBRANCH  31  32
ENDBRANCH  29  31
ENDBRANCH  24  29
TORSDOF 3
ENDMDL
MODEL 7
REMARK VINA RESULT:      -7.9      4.621      6.641
REMARK  3 active torsions:
REMARK  status: ('A' for Active; 'I' for Inactive)
REMARK    1  A    between atoms: C18_24  and  N4_25 
REMARK    2  A    between atoms: N4_25  and  C19_26 
REMARK    3  A    between atoms: C19_26  and  C20_27 
ROOT
HETATM    1  C1  UNL     1      26.554   2.610  50.984  1.00  0.00     0.049 C 
HETATM    2  C2  UNL     1      25.614   3.649  50.415  1.00  0.00    -0.048 C 
HETATM    3  C3  UNL     1      26.377   4.384  49.731  1.00  0.00     0.007 C 
HETATM    4  C4  UNL     1      26.578   5.482  48.896  1.00  0.00     0.002 C 
HETATM    5  C5  UNL     1      27.013   6.416  48.132  1.00  0.00     0.038 C 
HETATM    6  C6  UNL     1      26.903   7.624  47.281  1.00  0.00     0.337 C 
HETATM    7  F1  UNL     1      28.086   7.959  46.770  1.00  0.00    -0.215 F 
HETATM    8  O1  UNL     1      26.261   8.672  48.069  1.00  0.00    -0.311 OA
HETATM    9  C7  UNL     1      24.944   8.282  48.485  1.00  0.00     0.094 A 
HETATM   10  C8  UNL     1      24.023   8.001  47.547  1.00  0.00     0.041 A 
HETATM   11  C9  UNL     1      22.941   7.586  48.334  1.00  0.00     0.034 A 
HETATM   12  C10 UNL     1      23.429   7.699  49.597  1.00  0.00     0.052 A 
HETATM   13  C11 UNL     1      24.508   8.055  50.314  1.00  0.00     0.057 A 
HETATM   14  C12 UNL     1      25.615   8.470  49.660  1.00  0.00     0.069 A 
HETATM   15 CL1  UNL     1      26.848   8.856  50.770  1.00  0.00    -0.081 Cl
HETATM   16  N1  UNL     1      22.311   6.959  50.103  1.00  0.00    -0.286 N 
HETATM   17  C13 UNL     1      21.076   6.389  50.529  1.00  0.00     0.205 C 
HETATM   18  C14 UNL     1      20.853   5.047  49.837  1.00  0.00     0.271 C 
HETATM   19  N2  UNL     1      22.081   4.385  49.527  1.00  0.00    -0.236 NA
HETATM   20  C15 UNL     1      23.128   4.495  50.261  1.00  0.00     0.150 C 
HETATM   21  N3  UNL     1      23.205   5.909  50.549  1.00  0.00    -0.281 N 
HETATM   22  C16 UNL     1      24.183   3.571  50.765  1.00  0.00     0.015 C 
HETATM   23  C17 UNL     1      23.955   2.536  51.583  1.00  0.00     0.028 C 
HETATM   24  C18 UNL     1      22.713   2.000  52.240  1.00  0.00     0.269 C 
HETATM   25  C21 UNL     1      21.649   2.956  51.940  1.00  0.00     0.036 C 
HETATM   26  C22 UNL     1      20.718   3.859  51.912  1.00  0.00     0.136 C 
HETATM   27  O3  UNL     1      20.023   4.234  50.732  1.00  0.00    -0.334 OA
HETATM   28  H14 UNL     1      24.048   5.995  51.188  1.00  0.00     0.189 HD
ENDROOT
BRANCH  24  29
HETATM   29  N4  UNL     1      22.504   0.646  51.849  1.00  0.00     0.101 N 
HETATM   30  H17 UNL     1      23.399   0.282  51.411  1.00  0.00     0.317 HD
BRANCH  29  31
HETATM   31  C19 UNL     1      22.092  -0.211  52.929  1.00  0.00     0.339 C 
BRANCH  31  32
HETATM   32  C20 UNL     1      23.220  -0.416  53.904  1.00  0.00     0.261 C 
HETATM   33  O2  UNL     1      22.399  -1.159  54.406  1.00  0.00    -0.305 OA
ENDBRANCH  31  32
ENDBRANCH  29  31
ENDBRANCH  24  29
TORSDOF 3
ENDMDL
MODEL 8
REMARK VINA RESULT:      -7.8      3.488      5.889
REMARK  3 active torsions:
REMARK  status: ('A' for Active; 'I' for Inactive)
REMARK    1  A    between atoms: C18_24  and  N4_25 
REMARK    2  A    between atoms: N4_25  and  C19_26 
REMARK    3  A    between atoms: C19_26  and  C20_27 
ROOT
HETATM    1  C1  UNL     1      18.738   3.697  51.059  1.00  0.00     0.049 C 
HETATM    2  C2  UNL     1      20.188   4.123  51.066  1.00  0.00    -0.048 C 
HETATM    3  C3  UNL     1      20.154   5.276  50.558  1.00  0.00     0.007 C 
HETATM    4  C4  UNL     1      20.798   6.438  50.134  1.00  0.00     0.002 C 
HETATM    5  C5  UNL     1      21.150   7.584  49.680  1.00  0.00     0.038 C 
HETATM    6  C6  UNL     1      22.106   8.662  49.332  1.00  0.00     0.337 C 
HETATM    7  F1  UNL     1      21.473   9.715  48.819  1.00  0.00    -0.215 F 
HETATM    8  O1  UNL     1      23.134   8.089  48.468  1.00  0.00    -0.311 OA
HETATM    9  C7  UNL     1      23.851   7.038  49.134  1.00  0.00     0.094 A 
HETATM   10  C8  UNL     1      24.525   7.324  50.261  1.00  0.00     0.041 A 
HETATM   11  C9  UNL     1      24.990   6.057  50.637  1.00  0.00     0.034 A 
HETATM   12  C10 UNL     1      24.498   5.255  49.656  1.00  0.00     0.052 A 
HETATM   13  C11 UNL     1      23.781   5.248  48.520  1.00  0.00     0.057 A 
HETATM   14  C12 UNL     1      23.277   6.415  48.063  1.00  0.00     0.069 A 
HETATM   15 CL1  UNL     1      22.402   6.157  46.625  1.00  0.00    -0.081 Cl
HETATM   16  N1  UNL     1      24.832   4.095  50.427  1.00  0.00    -0.286 N 
HETATM   17  C13 UNL     1      25.372   3.009  51.176  1.00  0.00     0.205 C 
HETATM   18  C14 UNL     1      24.815   3.026  52.598  1.00  0.00     0.271 C 
HETATM   19  N2  UNL     1      23.502   3.587  52.661  1.00  0.00    -0.236 NA
HETATM   20  C15 UNL     1      22.655   3.466  51.705  1.00  0.00     0.150 C 
HETATM   21  N3  UNL     1      23.427   3.748  50.516  1.00  0.00    -0.281 N 
HETATM   22  C16 UNL     1      21.195   3.185  51.599  1.00  0.00     0.015 C 
HETATM   23  C17 UNL     1      20.613   2.048  51.999  1.00  0.00     0.028 C 
HETATM   24  C18 UNL     1      21.145   0.779  52.604  1.00  0.00     0.269 C 
HETATM   25  C21 UNL     1      22.602   0.897  52.582  1.00  0.00     0.036 C 
HETATM   26  C22 UNL     1      23.883   0.829  52.393  1.00  0.00     0.136 C 
HETATM   27  O3  UNL     1      24.823   1.641  53.080  1.00  0.00    -0.334 OA
HETATM   28  H14 UNL     1      22.736   3.610  49.723  1.00  0.00     0.189 HD
ENDROOT
BRANCH  24  29
HETATM   29  N4  UNL     1      20.527   0.547  53.867  1.00  0.00     0.101 N 
HETATM   30  H17 UNL     1      19.591   0.076  53.700  1.00  0.00     0.317 HD
BRANCH  29  31
HETATM   31  C19 UNL     1      21.328  -0.239  54.767  1.00  0.00     0.339 C 
BRANCH  31  32
HETATM   32  C20 UNL     1      21.233  -1.702  54.424  1.00  0.00     0.261 C 
HETATM   33  O2  UNL     1      22.096  -1.764  55.278  1.00  0.00    -0.305 OA
ENDBRANCH  31  32
ENDBRANCH  29  31
ENDBRANCH  24  29
TORSDOF 3
ENDMDL
MODEL 9
REMARK VINA RESULT:      -7.7      6.174      8.628
REMARK  3 active torsions:
REMARK  status: ('A' for Active; 'I' for Inactive)
REMARK    1  A    between atoms: C18_24  and  N4_25 
REMARK    2  A    between atoms: N4_25  and  C19_26 
REMARK    3  A    between atoms: C19_26  and  C20_27 
ROOT
HETATM    1  C1  UNL     1      27.944   4.824  48.584  1.00  0.00     0.049 C 
HETATM    2  C2  UNL     1      26.513   5.198  48.894  1.00  0.00    -0.048 C 
HETATM    3  C3  UNL     1      26.063   4.170  49.469  1.00  0.00     0.007 C 
HETATM    4  C4  UNL     1      25.022   3.484  50.093  1.00  0.00     0.002 C 
HETATM    5  C5  UNL     1      24.240   2.662  50.690  1.00  0.00     0.038 C 
HETATM    6  C6  UNL     1      22.964   2.207  51.290  1.00  0.00     0.337 C 
HETATM    7  F1  UNL     1      23.083   0.981  51.796  1.00  0.00    -0.215 F 
HETATM    8  O1  UNL     1      21.917   2.352  50.284  1.00  0.00    -0.311 OA
HETATM    9  C7  UNL     1      21.770   3.721  49.876  1.00  0.00     0.094 A 
HETATM   10  C8  UNL     1      21.436   4.641  50.796  1.00  0.00     0.041 A 
HETATM   11  C9  UNL     1      21.485   5.821  50.040  1.00  0.00     0.034 A 
HETATM   12  C10 UNL     1      21.843   5.372  48.809  1.00  0.00     0.052 A 
HETATM   13  C11 UNL     1      22.136   4.269  48.100  1.00  0.00     0.057 A 
HETATM   14  C12 UNL     1      22.124   3.072  48.726  1.00  0.00     0.069 A 
HETATM   15 CL1  UNL     1      22.534   1.830  47.635  1.00  0.00    -0.081 Cl
HETATM   16  N1  UNL     1      22.107   6.716  48.388  1.00  0.00    -0.286 N 
HETATM   17  C13 UNL     1      22.157   8.089  48.008  1.00  0.00     0.205 C 
HETATM   18  C14 UNL     1      23.107   8.852  48.927  1.00  0.00     0.271 C 
HETATM   19  N2  UNL     1      24.162   8.027  49.425  1.00  0.00    -0.236 NA
HETATM   20  C15 UNL     1      24.661   7.061  48.744  1.00  0.00     0.150 C 
HETATM   21  N3  UNL     1      23.506   6.384  48.200  1.00  0.00    -0.281 N 
HETATM   22  C16 UNL     1      26.029   6.531  48.484  1.00  0.00     0.015 C 
HETATM   23  C17 UNL     1      27.000   7.213  47.864  1.00  0.00     0.028 C 
HETATM   24  C18 UNL     1      27.061   8.584  47.250  1.00  0.00     0.269 C 
HETATM   25  C21 UNL     1      25.700   9.115  47.303  1.00  0.00     0.036 C 
HETATM   26  C22 UNL     1      24.497   9.558  47.109  1.00  0.00     0.136 C 
HETATM   27  O3  UNL     1      23.637   9.982  48.156  1.00  0.00    -0.334 OA
HETATM   28  H14 UNL     1      23.919   5.609  47.605  1.00  0.00     0.189 HD
ENDROOT
BRANCH  24  29
HETATM   29  N4  UNL     1      28.086   9.350  47.877  1.00  0.00     0.101 N 
HETATM   30  H17 UNL     1      28.775   9.660  47.132  1.00  0.00     0.317 HD
BRANCH  29  31
HETATM   31  C19 UNL     1      27.593  10.489  48.605  1.00  0.00     0.339 C 
BRANCH  31  32
HETATM   32  C20 UNL     1      28.213  11.760  48.087  1.00  0.00     0.261 C 
HETATM   33  O2  UNL     1      27.986  12.112  49.229  1.00  0.00    -0.305 OA
ENDBRANCH  31  32
ENDBRANCH  29  31
ENDBRANCH  24  29
TORSDOF 3
ENDMDL
