MODEL 1
REMARK VINA RESULT:      -8.6      0.000      0.000
REMARK  1 active torsions:
REMARK  status: ('A' for Active; 'I' for Inactive)
REMARK    1  A    between atoms: C2_2  and  C3_3 
ROOT
HETATM    1  C3  UNL     1      24.478   0.342  52.455  1.00  0.00     0.167 C 
HETATM    2  O1  UNL     1      23.881   1.562  52.143  1.00  0.00    -0.341 OA
HETATM    3  C4  UNL     1      23.277   2.114  51.099  1.00  0.00     0.077 A 
HETATM    4  C5  UNL     1      22.823   1.743  49.866  1.00  0.00     0.037 A 
HETATM    5  C6  UNL     1      22.207   2.570  48.957  1.00  0.00     0.003 A 
HETATM    6  C7  UNL     1      22.048   3.880  49.348  1.00  0.00     0.001 A 
HETATM    7  C8  UNL     1      22.482   4.323  50.578  1.00  0.00     0.012 A 
HETATM    8  C9  UNL     1      23.105   3.462  51.483  1.00  0.00    -0.003 A 
HETATM    9  C10 UNL     1      23.473   4.224  52.740  1.00  0.00     0.215 C 
HETATM   10  N1  UNL     1      24.380   3.268  53.427  1.00  0.00    -0.186 NA
HETATM   11  N2  UNL     1      25.309   2.881  52.726  1.00  0.00    -0.129 NA
HETATM   12  C11 UNL     1      26.370   2.014  52.916  1.00  0.00     0.200 A 
HETATM   13  O2  UNL     1      27.643   2.048  53.189  1.00  0.00    -0.289 OA
HETATM   14  C12 UNL     1      28.148   0.840  53.234  1.00  0.00     0.089 A 
HETATM   15  C13 UNL     1      29.424   0.379  53.477  1.00  0.00     0.038 A 
HETATM   16  C14 UNL     1      29.705  -0.971  53.461  1.00  0.00     0.003 A 
HETATM   17  C15 UNL     1      28.668  -1.838  53.192  1.00  0.00     0.001 A 
HETATM   18  C16 UNL     1      27.412  -1.329  52.956  1.00  0.00     0.015 A 
HETATM   19  C17 UNL     1      27.085   0.008  52.965  1.00  0.00     0.011 A 
HETATM   20  C18 UNL     1      25.914   0.681  52.753  1.00  0.00     0.039 A 
ENDROOT
BRANCH   1  21
HETATM   21  C2  UNL     1      23.812  -0.202  53.726  1.00  0.00     0.033 C 
HETATM   22  C1  UNL     1      22.469  -0.789  53.535  1.00  0.00     0.008 C 
ENDBRANCH   1  21
TORSDOF 1
ENDMDL
MODEL 2
REMARK VINA RESULT:      -7.8      1.955      2.540
REMARK  1 active torsions:
REMARK  status: ('A' for Active; 'I' for Inactive)
REMARK    1  A    between atoms: C2_2  and  C3_3 
ROOT
HETATM    1  C3  UNL     1      24.064   2.410  52.361  1.00  0.00     0.167 C 
HETATM    2  O1  UNL     1      23.824   2.929  51.090  1.00  0.00    -0.341 OA
HETATM    3  C4  UNL     1      23.119   2.594  50.017  1.00  0.00     0.077 A 
HETATM    4  C5  UNL     1      22.189   1.663  49.654  1.00  0.00     0.037 A 
HETATM    5  C6  UNL     1      21.607   1.553  48.412  1.00  0.00     0.003 A 
HETATM    6  C7  UNL     1      22.017   2.472  47.474  1.00  0.00     0.001 A 
HETATM    7  C8  UNL     1      22.952   3.440  47.772  1.00  0.00     0.012 A 
HETATM    8  C9  UNL     1      23.527   3.529  49.041  1.00  0.00    -0.003 A 
HETATM    9  C10 UNL     1      24.515   4.677  49.072  1.00  0.00     0.215 C 
HETATM   10  N1  UNL     1      25.240   4.428  50.344  1.00  0.00    -0.186 NA
HETATM   11  N2  UNL     1      25.707   3.297  50.431  1.00  0.00    -0.129 NA
HETATM   12  C11 UNL     1      26.433   2.620  51.395  1.00  0.00     0.200 A 
HETATM   13  O2  UNL     1      27.663   2.284  51.657  1.00  0.00    -0.289 OA
HETATM   14  C12 UNL     1      27.738   1.599  52.771  1.00  0.00     0.089 A 
HETATM   15  C13 UNL     1      28.802   1.035  53.441  1.00  0.00     0.038 A 
HETATM   16  C14 UNL     1      28.612   0.343  54.619  1.00  0.00     0.003 A 
HETATM   17  C15 UNL     1      27.324   0.236  55.098  1.00  0.00     0.001 A 
HETATM   18  C16 UNL     1      26.296   0.817  54.394  1.00  0.00     0.015 A 
HETATM   19  C17 UNL     1      26.438   1.518  53.218  1.00  0.00     0.011 A 
HETATM   20  C18 UNL     1      25.546   2.147  52.395  1.00  0.00     0.039 A 
ENDROOT
BRANCH   1  21
HETATM   21  C2  UNL     1      23.719   3.496  53.390  1.00  0.00     0.033 C 
HETATM   22  C1  UNL     1      23.031   4.686  52.847  1.00  0.00     0.008 C 
ENDBRANCH   1  21
TORSDOF 1
ENDMDL
MODEL 3
REMARK VINA RESULT:      -7.7      8.212     10.395
REMARK  1 active torsions:
REMARK  status: ('A' for Active; 'I' for Inactive)
REMARK    1  A    between atoms: C2_2  and  C3_3 
ROOT
HETATM    1  C3  UNL     1      30.743   7.393  47.481  1.00  0.00     0.167 C 
HETATM    2  O1  UNL     1      31.705   6.435  47.169  1.00  0.00    -0.341 OA
HETATM    3  C4  UNL     1      32.414   6.073  46.107  1.00  0.00     0.077 A 
HETATM    4  C5  UNL     1      32.657   6.519  44.840  1.00  0.00     0.037 A 
HETATM    5  C6  UNL     1      33.476   5.909  43.919  1.00  0.00     0.003 A 
HETATM    6  C7  UNL     1      34.091   4.751  44.337  1.00  0.00     0.001 A 
HETATM    7  C8  UNL     1      33.891   4.244  45.602  1.00  0.00     0.012 A 
HETATM    8  C9  UNL     1      33.053   4.884  46.518  1.00  0.00    -0.003 A 
HETATM    9  C10 UNL     1      33.026   4.101  47.814  1.00  0.00     0.215 C 
HETATM   10  N1  UNL     1      31.879   4.722  48.527  1.00  0.00    -0.186 NA
HETATM   11  N2  UNL     1      30.843   4.737  47.871  1.00  0.00    -0.129 NA
HETATM   12  C11 UNL     1      29.559   5.200  48.099  1.00  0.00     0.200 A 
HETATM   13  O2  UNL     1      28.389   4.748  48.447  1.00  0.00    -0.289 OA
HETATM   14  C12 UNL     1      27.504   5.713  48.488  1.00  0.00     0.089 A 
HETATM   15  C13 UNL     1      26.159   5.724  48.792  1.00  0.00     0.038 A 
HETATM   16  C14 UNL     1      25.433   6.897  48.755  1.00  0.00     0.003 A 
HETATM   17  C15 UNL     1      26.098   8.051  48.402  1.00  0.00     0.001 A 
HETATM   18  C16 UNL     1      27.440   7.988  48.107  1.00  0.00     0.015 A 
HETATM   19  C17 UNL     1      28.205   6.844  48.134  1.00  0.00     0.011 A 
HETATM   20  C18 UNL     1      29.524   6.600  47.873  1.00  0.00     0.039 A 
ENDROOT
BRANCH   1  21
HETATM   21  C2  UNL     1      31.240   8.189  48.695  1.00  0.00     0.033 C 
HETATM   22  C1  UNL     1      30.753   9.582  48.780  1.00  0.00     0.008 C 
ENDBRANCH   1  21
TORSDOF 1
ENDMDL
MODEL 4
REMARK VINA RESULT:      -7.7      2.333      6.409
REMARK  1 active torsions:
REMARK  status: ('A' for Active; 'I' for Inactive)
REMARK    1  A    between atoms: C2_2  and  C3_3 
ROOT
HETATM    1  C3  UNL     1      21.912   1.930  51.168  1.00  0.00     0.167 C 
HETATM    2  O1  UNL     1      22.738   1.131  51.957  1.00  0.00    -0.341 OA
HETATM    3  C4  UNL     1      22.615   0.366  53.034  1.00  0.00     0.077 A 
HETATM    4  C5  UNL     1      21.622  -0.125  53.831  1.00  0.00     0.037 A 
HETATM    5  C6  UNL     1      21.803  -0.932  54.931  1.00  0.00     0.003 A 
HETATM    6  C7  UNL     1      23.106  -1.256  55.230  1.00  0.00     0.001 A 
HETATM    7  C8  UNL     1      24.157  -0.795  54.468  1.00  0.00     0.012 A 
HETATM    8  C9  UNL     1      23.946   0.023  53.357  1.00  0.00    -0.003 A 
HETATM    9  C10 UNL     1      25.277   0.373  52.723  1.00  0.00     0.215 C 
HETATM   10  N1  UNL     1      24.898   1.468  51.792  1.00  0.00    -0.186 NA
HETATM   11  N2  UNL     1      24.289   2.384  52.333  1.00  0.00    -0.129 NA
HETATM   12  C11 UNL     1      23.742   3.577  51.893  1.00  0.00     0.200 A 
HETATM   13  O2  UNL     1      24.025   4.847  51.866  1.00  0.00    -0.289 OA
HETATM   14  C12 UNL     1      23.065   5.532  51.297  1.00  0.00     0.089 A 
HETATM   15  C13 UNL     1      22.910   6.879  51.048  1.00  0.00     0.038 A 
HETATM   16  C14 UNL     1      21.777   7.360  50.426  1.00  0.00     0.003 A 
HETATM   17  C15 UNL     1      20.808   6.449  50.067  1.00  0.00     0.001 A 
HETATM   18  C16 UNL     1      21.008   5.115  50.337  1.00  0.00     0.015 A 
HETATM   19  C17 UNL     1      22.123   4.590  50.951  1.00  0.00     0.011 A 
HETATM   20  C18 UNL     1      22.483   3.317  51.296  1.00  0.00     0.039 A 
ENDROOT
BRANCH   1  21
HETATM   21  C2  UNL     1      22.046   1.460  49.713  1.00  0.00     0.033 C 
HETATM   22  C1  UNL     1      20.780   1.382  48.954  1.00  0.00     0.008 C 
ENDBRANCH   1  21
TORSDOF 1
ENDMDL
MODEL 5
REMARK VINA RESULT:      -7.7      2.199      3.731
REMARK  1 active torsions:
REMARK  status: ('A' for Active; 'I' for Inactive)
REMARK    1  A    between atoms: C2_2  and  C3_3 
ROOT
HETATM    1  C3  UNL     1      25.608   3.679  50.750  1.00  0.00     0.167 C 
HETATM    2  O1  UNL     1      24.295   3.886  50.329  1.00  0.00    -0.341 OA
HETATM    3  C4  UNL     1      23.378   4.838  50.428  1.00  0.00     0.077 A 
HETATM    4  C5  UNL     1      23.285   6.128  50.868  1.00  0.00     0.037 A 
HETATM    5  C6  UNL     1      22.149   6.903  50.843  1.00  0.00     0.003 A 
HETATM    6  C7  UNL     1      21.024   6.304  50.326  1.00  0.00     0.001 A 
HETATM    7  C8  UNL     1      21.046   5.006  49.863  1.00  0.00     0.012 A 
HETATM    8  C9  UNL     1      22.213   4.240  49.900  1.00  0.00    -0.003 A 
HETATM    9  C10 UNL     1      21.935   2.863  49.332  1.00  0.00     0.215 C 
HETATM   10  N1  UNL     1      23.151   2.111  49.736  1.00  0.00    -0.186 NA
HETATM   11  N2  UNL     1      23.392   2.173  50.938  1.00  0.00    -0.129 NA
HETATM   12  C11 UNL     1      24.383   1.659  51.755  1.00  0.00     0.200 A 
HETATM   13  O2  UNL     1      24.574   0.672  52.581  1.00  0.00    -0.289 OA
HETATM   14  C12 UNL     1      25.780   0.710  53.091  1.00  0.00     0.089 A 
HETATM   15  C13 UNL     1      26.429  -0.101  53.997  1.00  0.00     0.038 A 
HETATM   16  C14 UNL     1      27.725   0.165  54.386  1.00  0.00     0.003 A 
HETATM   17  C15 UNL     1      28.344   1.267  53.839  1.00  0.00     0.001 A 
HETATM   18  C16 UNL     1      27.655   2.047  52.939  1.00  0.00     0.015 A 
HETATM   19  C17 UNL     1      26.364   1.819  52.520  1.00  0.00     0.011 A 
HETATM   20  C18 UNL     1      25.537   2.477  51.653  1.00  0.00     0.039 A 
ENDROOT
BRANCH   1  21
HETATM   21  C2  UNL     1      26.454   3.337  49.517  1.00  0.00     0.033 C 
HETATM   22  C1  UNL     1      27.209   4.466  48.935  1.00  0.00     0.008 C 
ENDBRANCH   1  21
TORSDOF 1
ENDMDL
MODEL 6
REMARK VINA RESULT:      -7.6      3.121      4.976
REMARK  1 active torsions:
REMARK  status: ('A' for Active; 'I' for Inactive)
REMARK    1  A    between atoms: C2_2  and  C3_3 
ROOT
HETATM    1  C3  UNL     1      24.866   3.316  51.208  1.00  0.00     0.167 C 
HETATM    2  O1  UNL     1      24.326   4.254  50.330  1.00  0.00    -0.341 OA
HETATM    3  C4  UNL     1      24.043   5.550  50.341  1.00  0.00     0.077 A 
HETATM    4  C5  UNL     1      24.245   6.634  51.146  1.00  0.00     0.037 A 
HETATM    5  C6  UNL     1      23.817   7.915  50.886  1.00  0.00     0.003 A 
HETATM    6  C7  UNL     1      23.129   8.091  49.708  1.00  0.00     0.001 A 
HETATM    7  C8  UNL     1      22.889   7.042  48.848  1.00  0.00     0.012 A 
HETATM    8  C9  UNL     1      23.335   5.750  49.136  1.00  0.00    -0.003 A 
HETATM    9  C10 UNL     1      22.925   4.811  48.020  1.00  0.00     0.215 C 
HETATM   10  N1  UNL     1      23.185   3.479  48.626  1.00  0.00    -0.186 NA
HETATM   11  N2  UNL     1      22.636   3.317  49.711  1.00  0.00    -0.129 NA
HETATM   12  C11 UNL     1      22.589   2.281  50.627  1.00  0.00     0.200 A 
HETATM   13  O2  UNL     1      21.802   1.308  50.985  1.00  0.00    -0.289 OA
HETATM   14  C12 UNL     1      22.318   0.625  51.978  1.00  0.00     0.089 A 
HETATM   15  C13 UNL     1      21.863  -0.467  52.685  1.00  0.00     0.038 A 
HETATM   16  C14 UNL     1      22.607  -1.006  53.714  1.00  0.00     0.003 A 
HETATM   17  C15 UNL     1      23.816  -0.414  54.008  1.00  0.00     0.001 A 
HETATM   18  C16 UNL     1      24.226   0.675  53.274  1.00  0.00     0.015 A 
HETATM   19  C17 UNL     1      23.520   1.244  52.238  1.00  0.00     0.011 A 
HETATM   20  C18 UNL     1      23.767   2.308  51.417  1.00  0.00     0.039 A 
ENDROOT
BRANCH   1  21
HETATM   21  C2  UNL     1      26.049   2.635  50.507  1.00  0.00     0.033 C 
HETATM   22  C1  UNL     1      26.690   3.426  49.435  1.00  0.00     0.008 C 
ENDBRANCH   1  21
TORSDOF 1
ENDMDL
MODEL 7
REMARK VINA RESULT:      -7.5      3.862      5.400
REMARK  1 active torsions:
REMARK  status: ('A' for Active; 'I' for Inactive)
REMARK    1  A    between atoms: C2_2  and  C3_3 
ROOT
HETATM    1  C3  UNL     1      25.096   3.338  50.046  1.00  0.00     0.167 C 
HETATM    2  O1  UNL     1      23.723   3.444  50.258  1.00  0.00    -0.341 OA
HETATM    3  C4  UNL     1      22.618   2.876  49.793  1.00  0.00     0.077 A 
HETATM    4  C5  UNL     1      22.265   1.835  48.984  1.00  0.00     0.037 A 
HETATM    5  C6  UNL     1      20.979   1.465  48.667  1.00  0.00     0.003 A 
HETATM    6  C7  UNL     1      19.980   2.228  49.228  1.00  0.00     0.001 A 
HETATM    7  C8  UNL     1      20.263   3.293  50.055  1.00  0.00     0.012 A 
HETATM    8  C9  UNL     1      21.579   3.647  50.360  1.00  0.00    -0.003 A 
HETATM    9  C10 UNL     1      21.582   4.850  51.281  1.00  0.00     0.215 C 
HETATM   10  N1  UNL     1      23.006   5.270  51.238  1.00  0.00    -0.186 NA
HETATM   11  N2  UNL     1      23.433   5.446  50.101  1.00  0.00    -0.129 NA
HETATM   12  C11 UNL     1      24.655   5.822  49.573  1.00  0.00     0.200 A 
HETATM   13  O2  UNL     1      25.248   6.880  49.099  1.00  0.00    -0.289 OA
HETATM   14  C12 UNL     1      26.471   6.605  48.719  1.00  0.00     0.089 A 
HETATM   15  C13 UNL     1      27.464   7.382  48.162  1.00  0.00     0.038 A 
HETATM   16  C14 UNL     1      28.691   6.840  47.839  1.00  0.00     0.003 A 
HETATM   17  C15 UNL     1      28.885   5.500  48.091  1.00  0.00     0.001 A 
HETATM   18  C16 UNL     1      27.863   4.767  48.648  1.00  0.00     0.015 A 
HETATM   19  C17 UNL     1      26.626   5.264  48.990  1.00  0.00     0.011 A 
HETATM   20  C18 UNL     1      25.512   4.693  49.538  1.00  0.00     0.039 A 
ENDROOT
BRANCH   1  21
HETATM   21  C2  UNL     1      25.768   3.078  51.401  1.00  0.00     0.033 C 
HETATM   22  C1  UNL     1      26.735   1.961  51.424  1.00  0.00     0.008 C 
ENDBRANCH   1  21
TORSDOF 1
ENDMDL
MODEL 8
REMARK VINA RESULT:      -7.5      1.925      6.738
REMARK  1 active torsions:
REMARK  status: ('A' for Active; 'I' for Inactive)
REMARK    1  A    between atoms: C2_2  and  C3_3 
ROOT
HETATM    1  C3  UNL     1      24.142   3.375  51.057  1.00  0.00     0.167 C 
HETATM    2  O1  UNL     1      24.231   2.217  51.826  1.00  0.00    -0.341 OA
HETATM    3  C4  UNL     1      25.164   1.332  52.153  1.00  0.00     0.077 A 
HETATM    4  C5  UNL     1      26.513   1.170  52.017  1.00  0.00     0.037 A 
HETATM    5  C6  UNL     1      27.243   0.101  52.480  1.00  0.00     0.003 A 
HETATM    6  C7  UNL     1      26.527  -0.876  53.133  1.00  0.00     0.001 A 
HETATM    7  C8  UNL     1      25.164  -0.778  53.308  1.00  0.00     0.012 A 
HETATM    8  C9  UNL     1      24.447   0.320  52.827  1.00  0.00    -0.003 A 
HETATM    9  C10 UNL     1      22.979   0.153  53.160  1.00  0.00     0.215 C 
HETATM   10  N1  UNL     1      22.350   1.206  52.322  1.00  0.00    -0.186 NA
HETATM   11  N2  UNL     1      22.656   1.140  51.136  1.00  0.00    -0.129 NA
HETATM   12  C11 UNL     1      22.338   1.879  50.010  1.00  0.00     0.200 A 
HETATM   13  O2  UNL     1      21.540   1.828  48.983  1.00  0.00    -0.289 OA
HETATM   14  C12 UNL     1      21.707   2.868  48.204  1.00  0.00     0.089 A 
HETATM   15  C13 UNL     1      21.108   3.245  47.021  1.00  0.00     0.038 A 
HETATM   16  C14 UNL     1      21.475   4.410  46.380  1.00  0.00     0.003 A 
HETATM   17  C15 UNL     1      22.459   5.179  46.962  1.00  0.00     0.001 A 
HETATM   18  C16 UNL     1      23.027   4.760  48.143  1.00  0.00     0.015 A 
HETATM   19  C17 UNL     1      22.691   3.609  48.819  1.00  0.00     0.011 A 
HETATM   20  C18 UNL     1      23.144   3.045  49.979  1.00  0.00     0.039 A 
ENDROOT
BRANCH   1  21
HETATM   21  C2  UNL     1      23.578   4.493  51.944  1.00  0.00     0.033 C 
HETATM   22  C1  UNL     1      23.899   5.869  51.508  1.00  0.00     0.008 C 
ENDBRANCH   1  21
TORSDOF 1
ENDMDL
MODEL 9
REMARK VINA RESULT:      -7.2      8.952      9.814
REMARK  1 active torsions:
REMARK  status: ('A' for Active; 'I' for Inactive)
REMARK    1  A    between atoms: C2_2  and  C3_3 
ROOT
HETATM    1  C3  UNL     1      30.331   6.527  47.378  1.00  0.00     0.167 C 
HETATM    2  O1  UNL     1      30.211   7.886  47.662  1.00  0.00    -0.341 OA
HETATM    3  C4  UNL     1      29.963   9.005  46.992  1.00  0.00     0.077 A 
HETATM    4  C5  UNL     1      29.581   9.381  45.736  1.00  0.00     0.037 A 
HETATM    5  C6  UNL     1      29.395  10.676  45.310  1.00  0.00     0.003 A 
HETATM    6  C7  UNL     1      29.620  11.655  46.250  1.00  0.00     0.001 A 
HETATM    7  C8  UNL     1      30.008  11.347  47.535  1.00  0.00     0.012 A 
HETATM    8  C9  UNL     1      30.191  10.024  47.942  1.00  0.00    -0.003 A 
HETATM    9  C10 UNL     1      30.617   9.993  49.395  1.00  0.00     0.215 C 
HETATM   10  N1  UNL     1      31.064   8.585  49.557  1.00  0.00    -0.186 NA
HETATM   11  N2  UNL     1      31.901   8.236  48.730  1.00  0.00    -0.129 NA
HETATM   12  C11 UNL     1      32.586   7.060  48.482  1.00  0.00     0.200 A 
HETATM   13  O2  UNL     1      33.752   6.526  48.705  1.00  0.00    -0.289 OA
HETATM   14  C12 UNL     1      33.825   5.323  48.191  1.00  0.00     0.089 A 
HETATM   15  C13 UNL     1      34.838   4.388  48.166  1.00  0.00     0.038 A 
HETATM   16  C14 UNL     1      34.662   3.171  47.540  1.00  0.00     0.003 A 
HETATM   17  C15 UNL     1      33.445   2.927  46.943  1.00  0.00     0.001 A 
HETATM   18  C16 UNL     1      32.466   3.892  46.996  1.00  0.00     0.015 A 
HETATM   19  C17 UNL     1      32.594   5.117  47.610  1.00  0.00     0.011 A 
HETATM   20  C18 UNL     1      31.746   6.179  47.755  1.00  0.00     0.039 A 
ENDROOT
BRANCH   1  21
HETATM   21  C2  UNL     1      29.362   5.764  48.291  1.00  0.00     0.033 C 
HETATM   22  C1  UNL     1      27.951   6.201  48.222  1.00  0.00     0.008 C 
ENDBRANCH   1  21
TORSDOF 1
ENDMDL
