MODEL 1
REMARK VINA RESULT:      -7.5      0.000      0.000
REMARK  6 active torsions:
REMARK  status: ('A' for Active; 'I' for Inactive)
REMARK    1  A    between atoms: N1_1  and  C1_2 
REMARK    2  A    between atoms: C3_4  and  N2_5 
REMARK    3  A    between atoms: C4_6  and  N3_7 
REMARK    4  A    between atoms: N3_7  and  C5_8 
REMARK    5  A    between atoms: C8_11  and  S1_12 
REMARK    6  A    between atoms: S1_12  and  N4_13 
ROOT
HETATM    1  N3  UNL     1      25.798   3.281  49.673  1.00  0.00    -0.351 N 
HETATM    2  H5  UNL     1      25.404   2.780  48.818  1.00  0.00     0.166 HD
ENDROOT
BRANCH   1   3
HETATM    3  C4  UNL     1      26.016   2.524  50.857  1.00  0.00     0.209 C 
HETATM    4  N2  UNL     1      27.186   2.702  51.423  1.00  0.00    -0.224 NA
BRANCH   4   5
HETATM    5  C3  UNL     1      27.441   1.964  52.608  1.00  0.00     0.155 A 
HETATM    6  C2  UNL     1      26.675   1.016  53.272  1.00  0.00     0.102 A 
HETATM    7  C1  UNL     1      27.180   0.463  54.407  1.00  0.00     0.126 A 
HETATM    8  N6  UNL     1      28.382   0.786  54.921  1.00  0.00    -0.225 NA
HETATM    9  C11 UNL     1      29.122   1.720  54.257  1.00  0.00     0.237 A 
HETATM   10  N5  UNL     1      28.662   2.292  53.130  1.00  0.00    -0.222 NA
BRANCH   7  11
HETATM   11  N1  UNL     1      26.353  -0.502  55.045  1.00  0.00    -0.384 N 
HETATM   12  H1  UNL     1      25.314  -0.439  54.855  1.00  0.00     0.157 HD
HETATM   13  H2  UNL     1      26.741  -1.252  55.679  1.00  0.00     0.157 HD
ENDBRANCH   7  11
ENDBRANCH   4   5
ENDBRANCH   1   3
BRANCH   1  14
HETATM   14  C5  UNL     1      26.065   4.642  49.569  1.00  0.00     0.033 A 
HETATM   15  C6  UNL     1      27.032   5.224  48.791  1.00  0.00     0.031 A 
HETATM   16  C7  UNL     1      27.283   6.581  48.697  1.00  0.00     0.027 A 
HETATM   17  C8  UNL     1      26.510   7.454  49.440  1.00  0.00     0.074 A 
HETATM   18  C9  UNL     1      25.515   6.941  50.249  1.00  0.00     0.027 A 
HETATM   19  C10 UNL     1      25.321   5.576  50.293  1.00  0.00     0.031 A 
BRANCH  17  20
HETATM   20  S1  UNL     1      26.790   9.159  49.350  1.00  0.00     0.239 S 
HETATM   21  O1  UNL     1      27.928   9.368  48.378  1.00  0.00    -0.206 OA
HETATM   22  O2  UNL     1      25.581   9.909  48.852  1.00  0.00    -0.206 OA
BRANCH  20  23
HETATM   23  N4  UNL     1      27.306   9.775  50.891  1.00  0.00    -0.225 NA
HETATM   24  H8  UNL     1      26.520  10.382  51.277  1.00  0.00     0.136 HD
HETATM   25  H9  UNL     1      28.141  10.392  50.691  1.00  0.00     0.136 HD
ENDBRANCH  20  23
ENDBRANCH  17  20
ENDBRANCH   1  14
TORSDOF 6
ENDMDL
MODEL 2
REMARK VINA RESULT:      -7.2      6.581      7.620
REMARK  6 active torsions:
REMARK  status: ('A' for Active; 'I' for Inactive)
REMARK    1  A    between atoms: N1_1  and  C1_2 
REMARK    2  A    between atoms: C3_4  and  N2_5 
REMARK    3  A    between atoms: C4_6  and  N3_7 
REMARK    4  A    between atoms: N3_7  and  C5_8 
REMARK    5  A    between atoms: C8_11  and  S1_12 
REMARK    6  A    between atoms: S1_12  and  N4_13 
ROOT
HETATM    1  N3  UNL     1      23.894  -1.112  54.839  1.00  0.00    -0.351 N 
HETATM    2  H5  UNL     1      23.742  -2.001  55.409  1.00  0.00     0.166 HD
ENDROOT
BRANCH   1   3
HETATM    3  C4  UNL     1      25.196  -0.541  54.816  1.00  0.00     0.209 C 
HETATM    4  N2  UNL     1      26.037  -1.109  53.983  1.00  0.00    -0.224 NA
BRANCH   4   5
HETATM    5  C3  UNL     1      27.347  -0.565  53.931  1.00  0.00     0.155 A 
HETATM    6  C2  UNL     1      27.821   0.700  54.245  1.00  0.00     0.102 A 
HETATM    7  C1  UNL     1      29.151   0.944  54.096  1.00  0.00     0.126 A 
HETATM    8  N6  UNL     1      30.031   0.023  53.659  1.00  0.00    -0.225 NA
HETATM    9  C11 UNL     1      29.549  -1.216  53.354  1.00  0.00     0.237 A 
HETATM   10  N5  UNL     1      28.241  -1.501  53.487  1.00  0.00    -0.222 NA
BRANCH   7  11
HETATM   11  N1  UNL     1      29.580   2.256  54.433  1.00  0.00    -0.384 N 
HETATM   12  H1  UNL     1      30.278   2.712  53.782  1.00  0.00     0.157 HD
HETATM   13  H2  UNL     1      29.229   2.766  55.289  1.00  0.00     0.157 HD
ENDBRANCH   7  11
ENDBRANCH   4   5
ENDBRANCH   1   3
BRANCH   1  14
HETATM   14  C5  UNL     1      22.805  -0.573  54.164  1.00  0.00     0.033 A 
HETATM   15  C6  UNL     1      21.545  -0.385  54.671  1.00  0.00     0.031 A 
HETATM   16  C7  UNL     1      20.473   0.157  53.986  1.00  0.00     0.027 A 
HETATM   17  C8  UNL     1      20.652   0.554  52.674  1.00  0.00     0.074 A 
HETATM   18  C9  UNL     1      21.895   0.395  52.094  1.00  0.00     0.027 A 
HETATM   19  C10 UNL     1      22.920  -0.153  52.838  1.00  0.00     0.031 A 
BRANCH  17  20
HETATM   20  S1  UNL     1      19.337   1.237  51.782  1.00  0.00     0.239 S 
HETATM   21  O1  UNL     1      19.693   1.124  50.317  1.00  0.00    -0.206 OA
HETATM   22  O2  UNL     1      18.043   0.505  52.025  1.00  0.00    -0.206 OA
BRANCH  20  23
HETATM   23  N4  UNL     1      19.167   2.929  52.143  1.00  0.00    -0.225 NA
HETATM   24  H8  UNL     1      19.187   3.037  53.201  1.00  0.00     0.136 HD
HETATM   25  H9  UNL     1      18.207   3.204  51.794  1.00  0.00     0.136 HD
ENDBRANCH  20  23
ENDBRANCH  17  20
ENDBRANCH   1  14
TORSDOF 6
ENDMDL
MODEL 3
REMARK VINA RESULT:      -7.0      5.689      8.434
REMARK  6 active torsions:
REMARK  status: ('A' for Active; 'I' for Inactive)
REMARK    1  A    between atoms: N1_1  and  C1_2 
REMARK    2  A    between atoms: C3_4  and  N2_5 
REMARK    3  A    between atoms: C4_6  and  N3_7 
REMARK    4  A    between atoms: N3_7  and  C5_8 
REMARK    5  A    between atoms: C8_11  and  S1_12 
REMARK    6  A    between atoms: S1_12  and  N4_13 
ROOT
HETATM    1  N3  UNL     1      26.654   1.538  51.518  1.00  0.00    -0.351 N 
HETATM    2  H5  UNL     1      27.520   0.942  51.341  1.00  0.00     0.166 HD
ENDROOT
BRANCH   1   3
HETATM    3  C4  UNL     1      26.648   2.877  51.039  1.00  0.00     0.209 C 
HETATM    4  N2  UNL     1      26.743   3.001  49.736  1.00  0.00    -0.224 NA
BRANCH   4   5
HETATM    5  C3  UNL     1      26.740   4.324  49.220  1.00  0.00     0.155 A 
HETATM    6  C2  UNL     1      25.712   5.246  49.085  1.00  0.00     0.102 A 
HETATM    7  C1  UNL     1      26.004   6.460  48.547  1.00  0.00     0.126 A 
HETATM    8  N6  UNL     1      27.237   6.814  48.137  1.00  0.00    -0.225 NA
HETATM    9  C11 UNL     1      28.237   5.896  48.275  1.00  0.00     0.237 A 
HETATM   10  N5  UNL     1      27.992   4.683  48.804  1.00  0.00    -0.222 NA
BRANCH   7  11
HETATM   11  N1  UNL     1      24.913   7.364  48.433  1.00  0.00    -0.384 N 
HETATM   12  H1  UNL     1      24.956   8.065  47.643  1.00  0.00     0.157 HD
HETATM   13  H2  UNL     1      24.092   7.350  49.098  1.00  0.00     0.157 HD
ENDBRANCH   7  11
ENDBRANCH   4   5
ENDBRANCH   1   3
BRANCH   1  14
HETATM   14  C5  UNL     1      25.594   0.964  52.211  1.00  0.00     0.033 A 
HETATM   15  C6  UNL     1      24.273   1.317  52.116  1.00  0.00     0.031 A 
HETATM   16  C7  UNL     1      23.230   0.733  52.810  1.00  0.00     0.027 A 
HETATM   17  C8  UNL     1      23.508  -0.302  53.684  1.00  0.00     0.074 A 
HETATM   18  C9  UNL     1      24.818  -0.715  53.833  1.00  0.00     0.027 A 
HETATM   19  C10 UNL     1      25.808  -0.085  53.108  1.00  0.00     0.031 A 
BRANCH  17  20
HETATM   20  S1  UNL     1      22.232  -1.062  54.571  1.00  0.00     0.239 S 
HETATM   21  O1  UNL     1      21.601  -2.081  53.649  1.00  0.00    -0.206 OA
HETATM   22  O2  UNL     1      22.737  -1.768  55.803  1.00  0.00    -0.206 OA
BRANCH  20  23
HETATM   23  N4  UNL     1      21.001   0.094  54.983  1.00  0.00    -0.225 NA
HETATM   24  H8  UNL     1      20.176  -0.442  55.388  1.00  0.00     0.136 HD
HETATM   25  H9  UNL     1      20.701   0.536  54.070  1.00  0.00     0.136 HD
ENDBRANCH  20  23
ENDBRANCH  17  20
ENDBRANCH   1  14
TORSDOF 6
ENDMDL
MODEL 4
REMARK VINA RESULT:      -6.8      5.344      8.477
REMARK  6 active torsions:
REMARK  status: ('A' for Active; 'I' for Inactive)
REMARK    1  A    between atoms: N1_1  and  C1_2 
REMARK    2  A    between atoms: C3_4  and  N2_5 
REMARK    3  A    between atoms: C4_6  and  N3_7 
REMARK    4  A    between atoms: N3_7  and  C5_8 
REMARK    5  A    between atoms: C8_11  and  S1_12 
REMARK    6  A    between atoms: S1_12  and  N4_13 
ROOT
HETATM    1  N3  UNL     1      26.713   1.719  51.283  1.00  0.00    -0.351 N 
HETATM    2  H5  UNL     1      27.609   1.198  51.032  1.00  0.00     0.166 HD
ENDROOT
BRANCH   1   3
HETATM    3  C4  UNL     1      26.562   3.058  50.826  1.00  0.00     0.209 C 
HETATM    4  N2  UNL     1      26.870   3.253  49.566  1.00  0.00    -0.224 NA
BRANCH   4   5
HETATM    5  C3  UNL     1      26.730   4.577  49.073  1.00  0.00     0.155 A 
HETATM    6  C2  UNL     1      27.666   5.455  48.546  1.00  0.00     0.102 A 
HETATM    7  C1  UNL     1      27.241   6.684  48.147  1.00  0.00     0.126 A 
HETATM    8  N6  UNL     1      25.961   7.093  48.237  1.00  0.00    -0.225 NA
HETATM    9  C11 UNL     1      25.053   6.218  48.758  1.00  0.00     0.237 A 
HETATM   10  N5  UNL     1      25.430   4.992  49.164  1.00  0.00    -0.222 NA
BRANCH   7  11
HETATM   11  N1  UNL     1      28.243   7.541  47.615  1.00  0.00    -0.384 N 
HETATM   12  H1  UNL     1      28.959   7.917  48.296  1.00  0.00     0.157 HD
HETATM   13  H2  UNL     1      28.283   7.800  46.591  1.00  0.00     0.157 HD
ENDBRANCH   7  11
ENDBRANCH   4   5
ENDBRANCH   1   3
BRANCH   1  14
HETATM   14  C5  UNL     1      25.759   1.053  52.044  1.00  0.00     0.033 A 
HETATM   15  C6  UNL     1      25.957  -0.083  52.784  1.00  0.00     0.031 A 
HETATM   16  C7  UNL     1      24.996  -0.732  53.538  1.00  0.00     0.027 A 
HETATM   17  C8  UNL     1      23.715  -0.215  53.572  1.00  0.00     0.074 A 
HETATM   18  C9  UNL     1      23.438   0.930  52.851  1.00  0.00     0.027 A 
HETATM   19  C10 UNL     1      24.446   1.524  52.120  1.00  0.00     0.031 A 
BRANCH  17  20
HETATM   20  S1  UNL     1      22.483  -0.995  54.505  1.00  0.00     0.239 S 
HETATM   21  O1  UNL     1      21.520   0.082  54.950  1.00  0.00    -0.206 OA
HETATM   22  O2  UNL     1      21.727  -2.022  53.703  1.00  0.00    -0.206 OA
BRANCH  20  23
HETATM   23  N4  UNL     1      23.162  -1.706  55.938  1.00  0.00    -0.225 NA
HETATM   24  H8  UNL     1      22.522  -1.463  56.754  1.00  0.00     0.136 HD
HETATM   25  H9  UNL     1      24.094  -1.228  56.086  1.00  0.00     0.136 HD
ENDBRANCH  20  23
ENDBRANCH  17  20
ENDBRANCH   1  14
TORSDOF 6
ENDMDL
MODEL 5
REMARK VINA RESULT:      -6.8      2.072      2.343
REMARK  6 active torsions:
REMARK  status: ('A' for Active; 'I' for Inactive)
REMARK    1  A    between atoms: N1_1  and  C1_2 
REMARK    2  A    between atoms: C3_4  and  N2_5 
REMARK    3  A    between atoms: C4_6  and  N3_7 
REMARK    4  A    between atoms: N3_7  and  C5_8 
REMARK    5  A    between atoms: C8_11  and  S1_12 
REMARK    6  A    between atoms: S1_12  and  N4_13 
ROOT
HETATM    1  N3  UNL     1      24.650   1.872  51.360  1.00  0.00    -0.351 N 
HETATM    2  H5  UNL     1      23.641   1.566  51.523  1.00  0.00     0.166 HD
ENDROOT
BRANCH   1   3
HETATM    3  C4  UNL     1      25.688   0.930  51.602  1.00  0.00     0.209 C 
HETATM    4  N2  UNL     1      26.350   1.109  52.720  1.00  0.00    -0.224 NA
BRANCH   4   5
HETATM    5  C3  UNL     1      27.394   0.188  52.997  1.00  0.00     0.155 A 
HETATM    6  C2  UNL     1      27.434  -1.195  52.911  1.00  0.00     0.102 A 
HETATM    7  C1  UNL     1      28.590  -1.828  53.245  1.00  0.00     0.126 A 
HETATM    8  N6  UNL     1      29.698  -1.182  53.657  1.00  0.00    -0.225 NA
HETATM    9  C11 UNL     1      29.642   0.179  53.738  1.00  0.00     0.237 A 
HETATM   10  N5  UNL     1      28.519   0.844  53.416  1.00  0.00    -0.222 NA
BRANCH   7  11
HETATM   11  N1  UNL     1      28.574  -3.245  53.137  1.00  0.00    -0.384 N 
HETATM   12  H1  UNL     1      28.975  -3.790  53.950  1.00  0.00     0.157 HD
HETATM   13  H2  UNL     1      28.183  -3.745  52.292  1.00  0.00     0.157 HD
ENDBRANCH   7  11
ENDBRANCH   4   5
ENDBRANCH   1   3
BRANCH   1  14
HETATM   14  C5  UNL     1      24.877   3.174  50.926  1.00  0.00     0.033 A 
HETATM   15  C6  UNL     1      25.802   3.572  49.997  1.00  0.00     0.031 A 
HETATM   16  C7  UNL     1      26.013   4.872  49.575  1.00  0.00     0.027 A 
HETATM   17  C8  UNL     1      25.241   5.882  50.117  1.00  0.00     0.074 A 
HETATM   18  C9  UNL     1      24.286   5.558  51.061  1.00  0.00     0.027 A 
HETATM   19  C10 UNL     1      24.131   4.239  51.434  1.00  0.00     0.031 A 
BRANCH  17  20
HETATM   20  S1  UNL     1      25.471   7.522  49.615  1.00  0.00     0.239 S 
HETATM   21  O1  UNL     1      25.896   7.483  48.165  1.00  0.00    -0.206 OA
HETATM   22  O2  UNL     1      24.208   8.335  49.730  1.00  0.00    -0.206 OA
BRANCH  20  23
HETATM   23  N4  UNL     1      26.764   8.259  50.513  1.00  0.00    -0.225 NA
HETATM   24  H8  UNL     1      27.456   7.493  50.772  1.00  0.00     0.136 HD
HETATM   25  H9  UNL     1      26.324   8.631  51.400  1.00  0.00     0.136 HD
ENDBRANCH  20  23
ENDBRANCH  17  20
ENDBRANCH   1  14
TORSDOF 6
ENDMDL
MODEL 6
REMARK VINA RESULT:      -6.6      1.623      2.506
REMARK  6 active torsions:
REMARK  status: ('A' for Active; 'I' for Inactive)
REMARK    1  A    between atoms: N1_1  and  C1_2 
REMARK    2  A    between atoms: C3_4  and  N2_5 
REMARK    3  A    between atoms: C4_6  and  N3_7 
REMARK    4  A    between atoms: N3_7  and  C5_8 
REMARK    5  A    between atoms: C8_11  and  S1_12 
REMARK    6  A    between atoms: S1_12  and  N4_13 
ROOT
HETATM    1  N3  UNL     1      23.471   3.853  50.978  1.00  0.00    -0.351 N 
HETATM    2  H5  UNL     1      22.427   3.891  50.768  1.00  0.00     0.166 HD
ENDROOT
BRANCH   1   3
HETATM    3  C4  UNL     1      24.003   2.662  51.544  1.00  0.00     0.209 C 
HETATM    4  N2  UNL     1      24.642   2.823  52.679  1.00  0.00    -0.224 NA
BRANCH   4   5
HETATM    5  C3  UNL     1      25.187   1.655  53.275  1.00  0.00     0.155 A 
HETATM    6  C2  UNL     1      26.414   1.431  53.880  1.00  0.00     0.102 A 
HETATM    7  C1  UNL     1      26.671   0.190  54.373  1.00  0.00     0.126 A 
HETATM    8  N6  UNL     1      25.797  -0.833  54.302  1.00  0.00    -0.225 NA
HETATM    9  C11 UNL     1      24.595  -0.597  53.702  1.00  0.00     0.237 A 
HETATM   10  N5  UNL     1      24.300   0.617  53.203  1.00  0.00    -0.222 NA
BRANCH   7  11
HETATM   11  N1  UNL     1      27.943   0.018  54.983  1.00  0.00    -0.384 N 
HETATM   12  H1  UNL     1      28.785   0.034  54.343  1.00  0.00     0.157 HD
HETATM   13  H2  UNL     1      28.060  -0.121  56.024  1.00  0.00     0.157 HD
ENDBRANCH   7  11
ENDBRANCH   4   5
ENDBRANCH   1   3
BRANCH   1  14
HETATM   14  C5  UNL     1      24.238   4.977  50.689  1.00  0.00     0.033 A 
HETATM   15  C6  UNL     1      24.088   6.226  51.233  1.00  0.00     0.031 A 
HETATM   16  C7  UNL     1      24.862   7.333  50.936  1.00  0.00     0.027 A 
HETATM   17  C8  UNL     1      25.884   7.203  50.015  1.00  0.00     0.074 A 
HETATM   18  C9  UNL     1      26.097   5.973  49.423  1.00  0.00     0.027 A 
HETATM   19  C10 UNL     1      25.285   4.912  49.768  1.00  0.00     0.031 A 
BRANCH  17  20
HETATM   20  S1  UNL     1      26.877   8.563  49.615  1.00  0.00     0.239 S 
HETATM   21  O1  UNL     1      28.098   8.023  48.905  1.00  0.00    -0.206 OA
HETATM   22  O2  UNL     1      26.173   9.533  48.703  1.00  0.00    -0.206 OA
BRANCH  20  23
HETATM   23  N4  UNL     1      27.429   9.361  51.057  1.00  0.00    -0.225 NA
HETATM   24  H8  UNL     1      27.036   8.830  51.891  1.00  0.00     0.136 HD
HETATM   25  H9  UNL     1      26.996  10.326  51.037  1.00  0.00     0.136 HD
ENDBRANCH  20  23
ENDBRANCH  17  20
ENDBRANCH   1  14
TORSDOF 6
ENDMDL
MODEL 7
REMARK VINA RESULT:      -6.6      6.950      8.789
REMARK  6 active torsions:
REMARK  status: ('A' for Active; 'I' for Inactive)
REMARK    1  A    between atoms: N1_1  and  C1_2 
REMARK    2  A    between atoms: C3_4  and  N2_5 
REMARK    3  A    between atoms: C4_6  and  N3_7 
REMARK    4  A    between atoms: N3_7  and  C5_8 
REMARK    5  A    between atoms: C8_11  and  S1_12 
REMARK    6  A    between atoms: S1_12  and  N4_13 
ROOT
HETATM    1  N3  UNL     1      22.916   1.355  51.771  1.00  0.00    -0.351 N 
HETATM    2  H5  UNL     1      22.788   2.322  51.341  1.00  0.00     0.166 HD
ENDROOT
BRANCH   1   3
HETATM    3  C4  UNL     1      21.783   0.500  51.860  1.00  0.00     0.209 C 
HETATM    4  N2  UNL     1      20.675   1.086  52.249  1.00  0.00    -0.224 NA
BRANCH   4   5
HETATM    5  C3  UNL     1      19.521   0.265  52.350  1.00  0.00     0.155 A 
HETATM    6  C2  UNL     1      19.198  -0.745  53.244  1.00  0.00     0.102 A 
HETATM    7  C1  UNL     1      18.001  -1.373  53.100  1.00  0.00     0.126 A 
HETATM    8  N6  UNL     1      17.113  -1.067  52.135  1.00  0.00    -0.225 NA
HETATM    9  C11 UNL     1      17.446  -0.072  51.262  1.00  0.00     0.237 A 
HETATM   10  N5  UNL     1      18.620   0.576  51.369  1.00  0.00    -0.222 NA
BRANCH   7  11
HETATM   11  N1  UNL     1      17.723  -2.398  54.045  1.00  0.00    -0.384 N 
HETATM   12  H1  UNL     1      17.124  -3.204  53.711  1.00  0.00     0.157 HD
HETATM   13  H2  UNL     1      18.088  -2.371  55.036  1.00  0.00     0.157 HD
ENDBRANCH   7  11
ENDBRANCH   4   5
ENDBRANCH   1   3
BRANCH   1  14
HETATM   14  C5  UNL     1      24.185   1.000  52.218  1.00  0.00     0.033 A 
HETATM   15  C6  UNL     1      25.375   1.527  51.789  1.00  0.00     0.031 A 
HETATM   16  C7  UNL     1      26.629   1.165  52.248  1.00  0.00     0.027 A 
HETATM   17  C8  UNL     1      26.725   0.190  53.223  1.00  0.00     0.074 A 
HETATM   18  C9  UNL     1      25.567  -0.388  53.706  1.00  0.00     0.027 A 
HETATM   19  C10 UNL     1      24.351   0.023  53.202  1.00  0.00     0.031 A 
BRANCH  17  20
HETATM   20  S1  UNL     1      28.275  -0.291  53.825  1.00  0.00     0.239 S 
HETATM   21  O1  UNL     1      29.292   0.653  53.226  1.00  0.00    -0.206 OA
HETATM   22  O2  UNL     1      28.354  -0.202  55.328  1.00  0.00    -0.206 OA
BRANCH  20  23
HETATM   23  N4  UNL     1      28.671  -1.893  53.280  1.00  0.00    -0.225 NA
HETATM   24  H8  UNL     1      29.592  -2.171  53.736  1.00  0.00     0.136 HD
HETATM   25  H9  UNL     1      28.822  -1.814  52.236  1.00  0.00     0.136 HD
ENDBRANCH  20  23
ENDBRANCH  17  20
ENDBRANCH   1  14
TORSDOF 6
ENDMDL
MODEL 8
REMARK VINA RESULT:      -6.6      1.210      2.008
REMARK  6 active torsions:
REMARK  status: ('A' for Active; 'I' for Inactive)
REMARK    1  A    between atoms: N1_1  and  C1_2 
REMARK    2  A    between atoms: C3_4  and  N2_5 
REMARK    3  A    between atoms: C4_6  and  N3_7 
REMARK    4  A    between atoms: N3_7  and  C5_8 
REMARK    5  A    between atoms: C8_11  and  S1_12 
REMARK    6  A    between atoms: S1_12  and  N4_13 
ROOT
HETATM    1  N3  UNL     1      25.435   3.993  49.573  1.00  0.00    -0.351 N 
HETATM    2  H5  UNL     1      24.760   3.662  48.817  1.00  0.00     0.166 HD
ENDROOT
BRANCH   1   3
HETATM    3  C4  UNL     1      25.625   3.168  50.715  1.00  0.00     0.209 C 
HETATM    4  N2  UNL     1      26.833   2.674  50.849  1.00  0.00    -0.224 NA
BRANCH   4   5
HETATM    5  C3  UNL     1      27.061   1.845  51.979  1.00  0.00     0.155 A 
HETATM    6  C2  UNL     1      27.919   1.994  53.059  1.00  0.00     0.102 A 
HETATM    7  C1  UNL     1      27.928   1.024  54.012  1.00  0.00     0.126 A 
HETATM    8  N6  UNL     1      27.149  -0.074  53.962  1.00  0.00    -0.225 NA
HETATM    9  C11 UNL     1      26.311  -0.206  52.893  1.00  0.00     0.237 A 
HETATM   10  N5  UNL     1      26.270   0.730  51.928  1.00  0.00    -0.222 NA
BRANCH   7  11
HETATM   11  N1  UNL     1      28.825   1.229  55.095  1.00  0.00    -0.384 N 
HETATM   12  H1  UNL     1      29.250   2.194  55.185  1.00  0.00     0.157 HD
HETATM   13  H2  UNL     1      29.067   0.467  55.785  1.00  0.00     0.157 HD
ENDBRANCH   7  11
ENDBRANCH   4   5
ENDBRANCH   1   3
BRANCH   1  14
HETATM   14  C5  UNL     1      26.078   5.212  49.389  1.00  0.00     0.033 A 
HETATM   15  C6  UNL     1      25.710   6.416  49.930  1.00  0.00     0.031 A 
HETATM   16  C7  UNL     1      26.364   7.620  49.739  1.00  0.00     0.027 A 
HETATM   17  C8  UNL     1      27.490   7.646  48.937  1.00  0.00     0.074 A 
HETATM   18  C9  UNL     1      27.923   6.471  48.356  1.00  0.00     0.027 A 
HETATM   19  C10 UNL     1      27.221   5.307  48.591  1.00  0.00     0.031 A 
BRANCH  17  20
HETATM   20  S1  UNL     1      28.338   9.132  48.673  1.00  0.00     0.239 S 
HETATM   21  O1  UNL     1      29.279   8.901  47.512  1.00  0.00    -0.206 OA
HETATM   22  O2  UNL     1      27.407  10.264  48.326  1.00  0.00    -0.206 OA
BRANCH  20  23
HETATM   23  N4  UNL     1      29.311   9.534  50.056  1.00  0.00    -0.225 NA
HETATM   24  H8  UNL     1      30.226   8.995  49.975  1.00  0.00     0.136 HD
HETATM   25  H9  UNL     1      28.781   9.173  50.897  1.00  0.00     0.136 HD
ENDBRANCH  20  23
ENDBRANCH  17  20
ENDBRANCH   1  14
TORSDOF 6
ENDMDL
MODEL 9
REMARK VINA RESULT:      -6.5      6.993      8.694
REMARK  6 active torsions:
REMARK  status: ('A' for Active; 'I' for Inactive)
REMARK    1  A    between atoms: N1_1  and  C1_2 
REMARK    2  A    between atoms: C3_4  and  N2_5 
REMARK    3  A    between atoms: C4_6  and  N3_7 
REMARK    4  A    between atoms: N3_7  and  C5_8 
REMARK    5  A    between atoms: C8_11  and  S1_12 
REMARK    6  A    between atoms: S1_12  and  N4_13 
ROOT
HETATM    1  N3  UNL     1      22.261  -0.818  54.033  1.00  0.00    -0.351 N 
HETATM    2  H5  UNL     1      22.206  -1.449  54.890  1.00  0.00     0.166 HD
ENDROOT
BRANCH   1   3
HETATM    3  C4  UNL     1      23.524  -0.268  53.680  1.00  0.00     0.209 C 
HETATM    4  N2  UNL     1      24.539  -0.715  54.381  1.00  0.00    -0.224 NA
BRANCH   4   5
HETATM    5  C3  UNL     1      25.818  -0.189  54.057  1.00  0.00     0.155 A 
HETATM    6  C2  UNL     1      26.328   1.096  54.165  1.00  0.00     0.102 A 
HETATM    7  C1  UNL     1      27.611   1.314  53.772  1.00  0.00     0.126 A 
HETATM    8  N6  UNL     1      28.412   0.348  53.283  1.00  0.00    -0.225 NA
HETATM    9  C11 UNL     1      27.896  -0.911  53.182  1.00  0.00     0.237 A 
HETATM   10  N5  UNL     1      26.631  -1.170  53.561  1.00  0.00    -0.222 NA
BRANCH   7  11
HETATM   11  N1  UNL     1      28.081   2.649  53.906  1.00  0.00    -0.384 N 
HETATM   12  H1  UNL     1      28.994   2.783  54.423  1.00  0.00     0.157 HD
HETATM   13  H2  UNL     1      27.556   3.477  53.513  1.00  0.00     0.157 HD
ENDBRANCH   7  11
ENDBRANCH   4   5
ENDBRANCH   1   3
BRANCH   1  14
HETATM   14  C5  UNL     1      21.090  -0.572  53.324  1.00  0.00     0.033 A 
HETATM   15  C6  UNL     1      20.980   0.134  52.155  1.00  0.00     0.031 A 
HETATM   16  C7  UNL     1      19.806   0.366  51.460  1.00  0.00     0.027 A 
HETATM   17  C8  UNL     1      18.623  -0.144  51.962  1.00  0.00     0.074 A 
HETATM   18  C9  UNL     1      18.655  -0.868  53.138  1.00  0.00     0.027 A 
HETATM   19  C10 UNL     1      19.862  -1.060  53.777  1.00  0.00     0.031 A 
BRANCH  17  20
HETATM   20  S1  UNL     1      17.133   0.122  51.124  1.00  0.00     0.239 S 
HETATM   21  O1  UNL     1      16.284  -1.111  51.333  1.00  0.00    -0.206 OA
HETATM   22  O2  UNL     1      16.389   1.320  51.653  1.00  0.00    -0.206 OA
BRANCH  20  23
HETATM   23  N4  UNL     1      17.412   0.274  49.415  1.00  0.00    -0.225 NA
HETATM   24  H8  UNL     1      16.528   0.673  48.977  1.00  0.00     0.136 HD
HETATM   25  H9  UNL     1      17.550  -0.712  49.056  1.00  0.00     0.136 HD
ENDBRANCH  20  23
ENDBRANCH  17  20
ENDBRANCH   1  14
TORSDOF 6
ENDMDL
