MODEL 1
REMARK VINA RESULT:      -8.3      0.000      0.000
REMARK  5 active torsions:
REMARK  status: ('A' for Active; 'I' for Inactive)
REMARK    1  A    between atoms: O1_2  and  C2_3 
REMARK    2  A    between atoms: C5_6  and  C6_7 
REMARK    3  A    between atoms: C6_7  and  O2_8 
REMARK    4  A    between atoms: O2_8  and  C7_9 
REMARK    5  A    between atoms: C16_21  and  O3_22 
ROOT
HETATM    1  C2  UNL     1      24.374  -0.350  53.780  1.00  0.00     0.102 A 
HETATM    2  C3  UNL     1      24.892   0.542  52.867  1.00  0.00     0.055 A 
HETATM    3  C4  UNL     1      26.135   1.103  53.056  1.00  0.00     0.022 A 
HETATM    4  C5  UNL     1      26.678   2.009  52.140  1.00  0.00     0.072 A 
HETATM    5  N1  UNL     1      27.907   2.530  52.378  1.00  0.00    -0.243 NA
HETATM    6  C13 UNL     1      28.606   2.188  53.476  1.00  0.00     0.234 A 
HETATM    7  N2  UNL     1      28.117   1.313  54.388  1.00  0.00    -0.241 NA
HETATM    8  C14 UNL     1      26.900   0.777  54.184  1.00  0.00     0.073 A 
HETATM    9  C15 UNL     1      26.344  -0.126  55.081  1.00  0.00     0.072 A 
HETATM   10  C16 UNL     1      25.102  -0.701  54.915  1.00  0.00     0.101 A 
ENDROOT
BRANCH   4  11
HETATM   11  C6  UNL     1      25.905   2.390  50.924  1.00  0.00     0.236 C 
BRANCH  11  12
HETATM   12  O2  UNL     1      26.797   2.873  49.952  1.00  0.00    -0.345 OA
BRANCH  12  13
HETATM   13  C7  UNL     1      26.677   4.197  49.488  1.00  0.00     0.067 A 
HETATM   14  C8  UNL     1      25.745   5.152  49.567  1.00  0.00     0.034 A 
HETATM   15  C9  UNL     1      26.201   6.389  48.857  1.00  0.00     0.136 A 
HETATM   16 CL1  UNL     1      26.280   7.739  50.011  1.00  0.00    -0.116 Cl
HETATM   17  C10 UNL     1      27.536   6.021  48.353  1.00  0.00    -0.059 A 
HETATM   18  C11 UNL     1      28.401   6.940  47.568  1.00  0.00     0.045 C 
HETATM   19  C12 UNL     1      27.802   4.765  48.717  1.00  0.00     0.040 A 
ENDBRANCH  12  13
ENDBRANCH  11  12
ENDBRANCH   4  11
BRANCH   1  20
HETATM   20  O1  UNL     1      23.133  -0.963  53.671  1.00  0.00    -0.353 OA
HETATM   21  C1  UNL     1      21.928  -0.324  54.118  1.00  0.00     0.210 C 
ENDBRANCH   1  20
BRANCH  10  22
HETATM   22  O3  UNL     1      24.712  -1.582  55.917  1.00  0.00    -0.358 OA
HETATM   23  H15 UNL     1      25.322  -2.028  56.574  1.00  0.00     0.217 HD
ENDBRANCH  10  22
TORSDOF 5
ENDMDL
MODEL 2
REMARK VINA RESULT:      -8.2      1.814      2.899
REMARK  5 active torsions:
REMARK  status: ('A' for Active; 'I' for Inactive)
REMARK    1  A    between atoms: O1_2  and  C2_3 
REMARK    2  A    between atoms: C5_6  and  C6_7 
REMARK    3  A    between atoms: C6_7  and  O2_8 
REMARK    4  A    between atoms: O2_8  and  C7_9 
REMARK    5  A    between atoms: C16_21  and  O3_22 
ROOT
HETATM    1  C2  UNL     1      26.332  -0.077  54.303  1.00  0.00     0.102 A 
HETATM    2  C3  UNL     1      26.351   0.809  53.248  1.00  0.00     0.055 A 
HETATM    3  C4  UNL     1      25.202   1.089  52.543  1.00  0.00     0.022 A 
HETATM    4  C5  UNL     1      25.201   1.986  51.470  1.00  0.00     0.072 A 
HETATM    5  N1  UNL     1      24.040   2.224  50.812  1.00  0.00    -0.243 NA
HETATM    6  C13 UNL     1      22.897   1.613  51.175  1.00  0.00     0.234 A 
HETATM    7  N2  UNL     1      22.855   0.738  52.209  1.00  0.00    -0.241 NA
HETATM    8  C14 UNL     1      23.989   0.478  52.885  1.00  0.00     0.073 A 
HETATM    9  C15 UNL     1      24.011  -0.409  53.954  1.00  0.00     0.072 A 
HETATM   10  C16 UNL     1      25.147  -0.707  54.675  1.00  0.00     0.101 A 
ENDROOT
BRANCH   4  11
HETATM   11  C6  UNL     1      26.466   2.663  51.065  1.00  0.00     0.236 C 
BRANCH  11  12
HETATM   12  O2  UNL     1      26.388   2.992  49.702  1.00  0.00    -0.345 OA
BRANCH  12  13
HETATM   13  C7  UNL     1      26.472   4.339  49.301  1.00  0.00     0.067 A 
HETATM   14  C8  UNL     1      25.659   5.398  49.348  1.00  0.00     0.034 A 
HETATM   15  C9  UNL     1      26.324   6.598  48.749  1.00  0.00     0.136 A 
HETATM   16 CL1  UNL     1      26.457   7.878  49.975  1.00  0.00    -0.116 Cl
HETATM   17  C10 UNL     1      27.646   6.089  48.344  1.00  0.00    -0.059 A 
HETATM   18  C11 UNL     1      28.686   6.925  47.689  1.00  0.00     0.045 C 
HETATM   19  C12 UNL     1      27.724   4.795  48.663  1.00  0.00     0.040 A 
ENDBRANCH  12  13
ENDBRANCH  11  12
ENDBRANCH   4  11
BRANCH   1  20
HETATM   20  O1  UNL     1      27.440  -0.419  55.068  1.00  0.00    -0.353 OA
HETATM   21  C1  UNL     1      28.728   0.173  54.848  1.00  0.00     0.210 C 
ENDBRANCH   1  20
BRANCH  10  22
HETATM   22  O3  UNL     1      24.976  -1.618  55.711  1.00  0.00    -0.358 OA
HETATM   23  H15 UNL     1      24.268  -1.573  56.419  1.00  0.00     0.217 HD
ENDBRANCH  10  22
TORSDOF 5
ENDMDL
MODEL 3
REMARK VINA RESULT:      -8.0      2.470      3.619
REMARK  5 active torsions:
REMARK  status: ('A' for Active; 'I' for Inactive)
REMARK    1  A    between atoms: O1_2  and  C2_3 
REMARK    2  A    between atoms: C5_6  and  C6_7 
REMARK    3  A    between atoms: C6_7  and  O2_8 
REMARK    4  A    between atoms: O2_8  and  C7_9 
REMARK    5  A    between atoms: C16_21  and  O3_22 
ROOT
HETATM    1  C2  UNL     1      26.317   1.620  53.943  1.00  0.00     0.102 A 
HETATM    2  C3  UNL     1      25.285   2.076  53.154  1.00  0.00     0.055 A 
HETATM    3  C4  UNL     1      24.188   1.283  52.901  1.00  0.00     0.022 A 
HETATM    4  C5  UNL     1      23.129   1.728  52.103  1.00  0.00     0.072 A 
HETATM    5  N1  UNL     1      22.074   0.903  51.888  1.00  0.00    -0.243 NA
HETATM    6  C13 UNL     1      22.034  -0.328  52.429  1.00  0.00     0.234 A 
HETATM    7  N2  UNL     1      23.038  -0.798  53.208  1.00  0.00    -0.241 NA
HETATM    8  C14 UNL     1      24.101  -0.006  53.442  1.00  0.00     0.073 A 
HETATM    9  C15 UNL     1      25.162  -0.429  54.232  1.00  0.00     0.072 A 
HETATM   10  C16 UNL     1      26.270   0.344  54.501  1.00  0.00     0.101 A 
ENDROOT
BRANCH   4  11
HETATM   11  C6  UNL     1      23.173   3.092  51.503  1.00  0.00     0.236 C 
BRANCH  11  12
HETATM   12  O2  UNL     1      23.747   3.005  50.224  1.00  0.00    -0.345 OA
BRANCH  12  13
HETATM   13  C7  UNL     1      24.537   4.066  49.738  1.00  0.00     0.067 A 
HETATM   14  C8  UNL     1      24.327   5.354  49.451  1.00  0.00     0.034 A 
HETATM   15  C9  UNL     1      25.588   5.992  48.956  1.00  0.00     0.136 A 
HETATM   16 CL1  UNL     1      26.046   7.322  50.043  1.00  0.00    -0.116 Cl
HETATM   17  C10 UNL     1      26.567   4.892  48.996  1.00  0.00    -0.059 A 
HETATM   18  C11 UNL     1      27.989   5.040  48.589  1.00  0.00     0.045 C 
HETATM   19  C12 UNL     1      25.959   3.791  49.444  1.00  0.00     0.040 A 
ENDBRANCH  12  13
ENDBRANCH  11  12
ENDBRANCH   4  11
BRANCH   1  20
HETATM   20  O1  UNL     1      27.459   2.350  54.250  1.00  0.00    -0.353 OA
HETATM   21  C1  UNL     1      28.626   2.323  53.416  1.00  0.00     0.210 C 
ENDBRANCH   1  20
BRANCH  10  22
HETATM   22  O3  UNL     1      27.232  -0.247  55.312  1.00  0.00    -0.358 OA
HETATM   23  H15 UNL     1      28.194   0.025  55.372  1.00  0.00     0.217 HD
ENDBRANCH  10  22
TORSDOF 5
ENDMDL
MODEL 4
REMARK VINA RESULT:      -7.8      2.803      3.661
REMARK  5 active torsions:
REMARK  status: ('A' for Active; 'I' for Inactive)
REMARK    1  A    between atoms: O1_2  and  C2_3 
REMARK    2  A    between atoms: C5_6  and  C6_7 
REMARK    3  A    between atoms: C6_7  and  O2_8 
REMARK    4  A    between atoms: O2_8  and  C7_9 
REMARK    5  A    between atoms: C16_21  and  O3_22 
ROOT
HETATM    1  C2  UNL     1      24.614  -0.380  53.607  1.00  0.00     0.102 A 
HETATM    2  C3  UNL     1      25.238   0.494  52.743  1.00  0.00     0.055 A 
HETATM    3  C4  UNL     1      26.442   1.074  53.076  1.00  0.00     0.022 A 
HETATM    4  C5  UNL     1      27.091   1.961  52.212  1.00  0.00     0.072 A 
HETATM    5  N1  UNL     1      28.275   2.503  52.592  1.00  0.00    -0.243 NA
HETATM    6  C13 UNL     1      28.829   2.198  53.780  1.00  0.00     0.234 A 
HETATM    7  N2  UNL     1      28.233   1.342  54.645  1.00  0.00    -0.241 NA
HETATM    8  C14 UNL     1      27.057   0.787  54.301  1.00  0.00     0.073 A 
HETATM    9  C15 UNL     1      26.396  -0.097  55.144  1.00  0.00     0.072 A 
HETATM   10  C16 UNL     1      25.191  -0.691  54.836  1.00  0.00     0.101 A 
ENDROOT
BRANCH   4  11
HETATM   11  C6  UNL     1      26.479   2.300  50.896  1.00  0.00     0.236 C 
BRANCH  11  12
HETATM   12  O2  UNL     1      25.600   3.382  51.070  1.00  0.00    -0.345 OA
BRANCH  12  13
HETATM   13  C7  UNL     1      24.229   3.222  50.788  1.00  0.00     0.067 A 
HETATM   14  C8  UNL     1      23.512   2.909  49.705  1.00  0.00     0.034 A 
HETATM   15  C9  UNL     1      22.051   2.891  50.031  1.00  0.00     0.136 A 
HETATM   16 CL1  UNL     1      21.395   1.267  49.730  1.00  0.00    -0.116 Cl
HETATM   17  C10 UNL     1      22.016   3.239  51.462  1.00  0.00    -0.059 A 
HETATM   18  C11 UNL     1      20.762   3.349  52.253  1.00  0.00     0.045 C 
HETATM   19  C12 UNL     1      23.267   3.427  51.889  1.00  0.00     0.040 A 
ENDBRANCH  12  13
ENDBRANCH  11  12
ENDBRANCH   4  11
BRANCH   1  20
HETATM   20  O1  UNL     1      23.402  -1.009  53.355  1.00  0.00    -0.353 OA
HETATM   21  C1  UNL     1      22.239  -0.281  52.937  1.00  0.00     0.210 C 
ENDBRANCH   1  20
BRANCH  10  22
HETATM   22  O3  UNL     1      24.681  -1.549  55.803  1.00  0.00    -0.358 OA
HETATM   23  H15 UNL     1      25.180  -1.891  56.602  1.00  0.00     0.217 HD
ENDBRANCH  10  22
TORSDOF 5
ENDMDL
MODEL 5
REMARK VINA RESULT:      -7.6      3.452      7.126
REMARK  5 active torsions:
REMARK  status: ('A' for Active; 'I' for Inactive)
REMARK    1  A    between atoms: O1_2  and  C2_3 
REMARK    2  A    between atoms: C5_6  and  C6_7 
REMARK    3  A    between atoms: C6_7  and  O2_8 
REMARK    4  A    between atoms: O2_8  and  C7_9 
REMARK    5  A    between atoms: C16_21  and  O3_22 
ROOT
HETATM    1  C2  UNL     1      26.816   1.989  52.217  1.00  0.00     0.102 A 
HETATM    2  C3  UNL     1      25.567   1.428  52.365  1.00  0.00     0.055 A 
HETATM    3  C4  UNL     1      25.299   0.570  53.407  1.00  0.00     0.022 A 
HETATM    4  C5  UNL     1      24.036  -0.008  53.574  1.00  0.00     0.072 A 
HETATM    5  N1  UNL     1      23.830  -0.847  54.620  1.00  0.00    -0.243 NA
HETATM    6  C13 UNL     1      24.816  -1.127  55.492  1.00  0.00     0.234 A 
HETATM    7  N2  UNL     1      26.052  -0.587  55.367  1.00  0.00    -0.241 NA
HETATM    8  C14 UNL     1      26.293   0.249  54.341  1.00  0.00     0.073 A 
HETATM    9  C15 UNL     1      27.539   0.835  54.157  1.00  0.00     0.072 A 
HETATM   10  C16 UNL     1      27.834   1.696  53.123  1.00  0.00     0.101 A 
ENDROOT
BRANCH   4  11
HETATM   11  C6  UNL     1      22.943   0.300  52.609  1.00  0.00     0.236 C 
BRANCH  11  12
HETATM   12  O2  UNL     1      21.864   0.862  53.311  1.00  0.00    -0.345 OA
BRANCH  12  13
HETATM   13  C7  UNL     1      20.552   0.699  52.824  1.00  0.00     0.067 A 
HETATM   14  C8  UNL     1      19.755   1.379  51.995  1.00  0.00     0.034 A 
HETATM   15  C9  UNL     1      18.431   0.692  51.862  1.00  0.00     0.136 A 
HETATM   16 CL1  UNL     1      18.169   0.234  50.164  1.00  0.00    -0.116 Cl
HETATM   17  C10 UNL     1      18.568  -0.487  52.733  1.00  0.00    -0.059 A 
HETATM   18  C11 UNL     1      17.493  -1.494  52.932  1.00  0.00     0.045 C 
HETATM   19  C12 UNL     1      19.785  -0.478  53.281  1.00  0.00     0.040 A 
ENDBRANCH  12  13
ENDBRANCH  11  12
ENDBRANCH   4  11
BRANCH   1  20
HETATM   20  O1  UNL     1      27.176   2.863  51.198  1.00  0.00    -0.353 OA
HETATM   21  C1  UNL     1      26.285   3.181  50.120  1.00  0.00     0.210 C 
ENDBRANCH   1  20
BRANCH  10  22
HETATM   22  O3  UNL     1      29.135   2.184  53.101  1.00  0.00    -0.358 OA
HETATM   23  H15 UNL     1      29.962   1.637  52.956  1.00  0.00     0.217 HD
ENDBRANCH  10  22
TORSDOF 5
ENDMDL
MODEL 6
REMARK VINA RESULT:      -7.6      2.766      3.960
REMARK  5 active torsions:
REMARK  status: ('A' for Active; 'I' for Inactive)
REMARK    1  A    between atoms: O1_2  and  C2_3 
REMARK    2  A    between atoms: C5_6  and  C6_7 
REMARK    3  A    between atoms: C6_7  and  O2_8 
REMARK    4  A    between atoms: O2_8  and  C7_9 
REMARK    5  A    between atoms: C16_21  and  O3_22 
ROOT
HETATM    1  C2  UNL     1      24.236  -0.571  54.181  1.00  0.00     0.102 A 
HETATM    2  C3  UNL     1      23.967   0.256  53.113  1.00  0.00     0.055 A 
HETATM    3  C4  UNL     1      22.671   0.591  52.790  1.00  0.00     0.022 A 
HETATM    4  C5  UNL     1      22.379   1.430  51.711  1.00  0.00     0.072 A 
HETATM    5  N1  UNL     1      21.083   1.726  51.438  1.00  0.00    -0.243 NA
HETATM    6  C13 UNL     1      20.084   1.225  52.188  1.00  0.00     0.234 A 
HETATM    7  N2  UNL     1      20.325   0.410  53.243  1.00  0.00    -0.241 NA
HETATM    8  C14 UNL     1      21.599   0.095  53.542  1.00  0.00     0.073 A 
HETATM    9  C15 UNL     1      21.911  -0.737  54.610  1.00  0.00     0.072 A 
HETATM   10  C16 UNL     1      23.198  -1.087  54.954  1.00  0.00     0.101 A 
ENDROOT
BRANCH   4  11
HETATM   11  C6  UNL     1      23.484   1.985  50.878  1.00  0.00     0.236 C 
BRANCH  11  12
HETATM   12  O2  UNL     1      23.865   3.231  51.403  1.00  0.00    -0.345 OA
BRANCH  12  13
HETATM   13  C7  UNL     1      24.544   4.157  50.587  1.00  0.00     0.067 A 
HETATM   14  C8  UNL     1      24.283   5.380  50.118  1.00  0.00     0.034 A 
HETATM   15  C9  UNL     1      25.420   5.872  49.276  1.00  0.00     0.136 A 
HETATM   16 CL1  UNL     1      26.090   7.355  49.991  1.00  0.00    -0.116 Cl
HETATM   17  C10 UNL     1      26.384   4.759  49.320  1.00  0.00    -0.059 A 
HETATM   18  C11 UNL     1      27.695   4.776  48.620  1.00  0.00     0.045 C 
HETATM   19  C12 UNL     1      25.876   3.780  50.072  1.00  0.00     0.040 A 
ENDBRANCH  12  13
ENDBRANCH  11  12
ENDBRANCH   4  11
BRANCH   1  20
HETATM   20  O1  UNL     1      25.509  -0.961  54.579  1.00  0.00    -0.353 OA
HETATM   21  C1  UNL     1      26.487  -0.014  55.032  1.00  0.00     0.210 C 
ENDBRANCH   1  20
BRANCH  10  22
HETATM   22  O3  UNL     1      23.316  -1.929  56.054  1.00  0.00    -0.358 OA
HETATM   23  H15 UNL     1      24.089  -1.955  56.691  1.00  0.00     0.217 HD
ENDBRANCH  10  22
TORSDOF 5
ENDMDL
MODEL 7
REMARK VINA RESULT:      -7.3      1.597      2.065
REMARK  5 active torsions:
REMARK  status: ('A' for Active; 'I' for Inactive)
REMARK    1  A    between atoms: O1_2  and  C2_3 
REMARK    2  A    between atoms: C5_6  and  C6_7 
REMARK    3  A    between atoms: C6_7  and  O2_8 
REMARK    4  A    between atoms: O2_8  and  C7_9 
REMARK    5  A    between atoms: C16_21  and  O3_22 
ROOT
HETATM    1  C2  UNL     1      22.177   0.568  53.354  1.00  0.00     0.102 A 
HETATM    2  C3  UNL     1      22.999   1.470  52.716  1.00  0.00     0.055 A 
HETATM    3  C4  UNL     1      24.347   1.223  52.581  1.00  0.00     0.022 A 
HETATM    4  C5  UNL     1      25.197   2.126  51.936  1.00  0.00     0.072 A 
HETATM    5  N1  UNL     1      26.516   1.830  51.832  1.00  0.00    -0.243 NA
HETATM    6  C13 UNL     1      27.013   0.686  52.339  1.00  0.00     0.234 A 
HETATM    7  N2  UNL     1      26.224  -0.216  52.970  1.00  0.00    -0.241 NA
HETATM    8  C14 UNL     1      24.910   0.046  53.092  1.00  0.00     0.073 A 
HETATM    9  C15 UNL     1      24.048  -0.838  53.728  1.00  0.00     0.072 A 
HETATM   10  C16 UNL     1      22.696  -0.614  53.877  1.00  0.00     0.101 A 
ENDROOT
BRANCH   4  11
HETATM   11  C6  UNL     1      24.648   3.393  51.375  1.00  0.00     0.236 C 
BRANCH  11  12
HETATM   12  O2  UNL     1      24.880   3.413  49.990  1.00  0.00    -0.345 OA
BRANCH  12  13
HETATM   13  C7  UNL     1      25.607   4.475  49.417  1.00  0.00     0.067 A 
HETATM   14  C8  UNL     1      25.328   5.728  49.047  1.00  0.00     0.034 A 
HETATM   15  C9  UNL     1      26.546   6.392  48.484  1.00  0.00     0.136 A 
HETATM   16 CL1  UNL     1      26.954   7.815  49.468  1.00  0.00    -0.116 Cl
HETATM   17  C10 UNL     1      27.580   5.347  48.580  1.00  0.00    -0.059 A 
HETATM   18  C11 UNL     1      28.986   5.536  48.135  1.00  0.00     0.045 C 
HETATM   19  C12 UNL     1      27.036   4.251  49.114  1.00  0.00     0.040 A 
ENDBRANCH  12  13
ENDBRANCH  11  12
ENDBRANCH   4  11
BRANCH   1  20
HETATM   20  O1  UNL     1      20.810   0.735  53.536  1.00  0.00    -0.353 OA
HETATM   21  C1  UNL     1      20.053   1.691  52.780  1.00  0.00     0.210 C 
ENDBRANCH   1  20
BRANCH  10  22
HETATM   22  O3  UNL     1      21.994  -1.612  54.542  1.00  0.00    -0.358 OA
HETATM   23  H15 UNL     1      21.018  -1.813  54.432  1.00  0.00     0.217 HD
ENDBRANCH  10  22
TORSDOF 5
ENDMDL
MODEL 8
REMARK VINA RESULT:      -7.2      3.173      5.312
REMARK  5 active torsions:
REMARK  status: ('A' for Active; 'I' for Inactive)
REMARK    1  A    between atoms: O1_2  and  C2_3 
REMARK    2  A    between atoms: C5_6  and  C6_7 
REMARK    3  A    between atoms: C6_7  and  O2_8 
REMARK    4  A    between atoms: O2_8  and  C7_9 
REMARK    5  A    between atoms: C16_21  and  O3_22 
ROOT
HETATM    1  C2  UNL     1      26.803   2.025  52.153  1.00  0.00     0.102 A 
HETATM    2  C3  UNL     1      25.540   1.485  52.255  1.00  0.00     0.055 A 
HETATM    3  C4  UNL     1      25.226   0.614  53.274  1.00  0.00     0.022 A 
HETATM    4  C5  UNL     1      23.949   0.056  53.394  1.00  0.00     0.072 A 
HETATM    5  N1  UNL     1      23.697  -0.795  54.419  1.00  0.00    -0.243 NA
HETATM    6  C13 UNL     1      24.651  -1.107  55.315  1.00  0.00     0.234 A 
HETATM    7  N2  UNL     1      25.900  -0.588  55.235  1.00  0.00    -0.241 NA
HETATM    8  C14 UNL     1      26.186   0.260  54.231  1.00  0.00     0.073 A 
HETATM    9  C15 UNL     1      27.448   0.826  54.094  1.00  0.00     0.072 A 
HETATM   10  C16 UNL     1      27.788   1.699  53.084  1.00  0.00     0.101 A 
ENDROOT
BRANCH   4  11
HETATM   11  C6  UNL     1      22.891   0.400  52.402  1.00  0.00     0.236 C 
BRANCH  11  12
HETATM   12  O2  UNL     1      22.018   1.338  52.978  1.00  0.00    -0.345 OA
BRANCH  12  13
HETATM   13  C7  UNL     1      21.830   2.590  52.360  1.00  0.00     0.067 A 
HETATM   14  C8  UNL     1      22.560   3.701  52.220  1.00  0.00     0.034 A 
HETATM   15  C9  UNL     1      21.804   4.729  51.438  1.00  0.00     0.136 A 
HETATM   16 CL1  UNL     1      22.703   5.127  49.957  1.00  0.00    -0.116 Cl
HETATM   17  C10 UNL     1      20.526   4.061  51.140  1.00  0.00    -0.059 A 
HETATM   18  C11 UNL     1      19.425   4.695  50.369  1.00  0.00     0.045 C 
HETATM   19  C12 UNL     1      20.547   2.836  51.671  1.00  0.00     0.040 A 
ENDBRANCH  12  13
ENDBRANCH  11  12
ENDBRANCH   4  11
BRANCH   1  20
HETATM   20  O1  UNL     1      27.208   2.909  51.161  1.00  0.00    -0.353 OA
HETATM   21  C1  UNL     1      26.349   3.274  50.072  1.00  0.00     0.210 C 
ENDBRANCH   1  20
BRANCH  10  22
HETATM   22  O3  UNL     1      29.098   2.163  53.109  1.00  0.00    -0.358 OA
HETATM   23  H15 UNL     1      29.858   1.743  53.609  1.00  0.00     0.217 HD
ENDBRANCH  10  22
TORSDOF 5
ENDMDL
MODEL 9
REMARK VINA RESULT:      -6.9      3.473      6.159
REMARK  5 active torsions:
REMARK  status: ('A' for Active; 'I' for Inactive)
REMARK    1  A    between atoms: O1_2  and  C2_3 
REMARK    2  A    between atoms: C5_6  and  C6_7 
REMARK    3  A    between atoms: C6_7  and  O2_8 
REMARK    4  A    between atoms: O2_8  and  C7_9 
REMARK    5  A    between atoms: C16_21  and  O3_22 
ROOT
HETATM    1  C2  UNL     1      24.921   3.251  51.172  1.00  0.00     0.102 A 
HETATM    2  C3  UNL     1      24.174   2.329  51.871  1.00  0.00     0.055 A 
HETATM    3  C4  UNL     1      24.768   1.223  52.437  1.00  0.00     0.022 A 
HETATM    4  C5  UNL     1      24.026   0.277  53.152  1.00  0.00     0.072 A 
HETATM    5  N1  UNL     1      24.665  -0.793  53.687  1.00  0.00    -0.243 NA
HETATM    6  C13 UNL     1      25.993  -0.954  53.540  1.00  0.00     0.234 A 
HETATM    7  N2  UNL     1      26.748  -0.061  52.857  1.00  0.00    -0.241 NA
HETATM    8  C14 UNL     1      26.147   1.013  52.312  1.00  0.00     0.073 A 
HETATM    9  C15 UNL     1      26.866   1.964  51.599  1.00  0.00     0.072 A 
HETATM   10  C16 UNL     1      26.296   3.079  51.023  1.00  0.00     0.101 A 
ENDROOT
BRANCH   4  11
HETATM   11  C6  UNL     1      22.555   0.454  53.314  1.00  0.00     0.236 C 
BRANCH  11  12
HETATM   12  O2  UNL     1      21.896  -0.340  52.361  1.00  0.00    -0.345 OA
BRANCH  12  13
HETATM   13  C7  UNL     1      21.008   0.257  51.445  1.00  0.00     0.067 A 
HETATM   14  C8  UNL     1      19.684   0.424  51.375  1.00  0.00     0.034 A 
HETATM   15  C9  UNL     1      19.314   1.160  50.125  1.00  0.00     0.136 A 
HETATM   16 CL1  UNL     1      18.498   2.681  50.550  1.00  0.00    -0.116 Cl
HETATM   17  C10 UNL     1      20.613   1.400  49.473  1.00  0.00    -0.059 A 
HETATM   18  C11 UNL     1      20.765   2.111  48.176  1.00  0.00     0.045 C 
HETATM   19  C12 UNL     1      21.579   0.881  50.234  1.00  0.00     0.040 A 
ENDBRANCH  12  13
ENDBRANCH  11  12
ENDBRANCH   4  11
BRANCH   1  20
HETATM   20  O1  UNL     1      24.407   4.392  50.569  1.00  0.00    -0.353 OA
HETATM   21  C1  UNL     1      23.442   4.324  49.510  1.00  0.00     0.210 C 
ENDBRANCH   1  20
BRANCH  10  22
HETATM   22  O3  UNL     1      27.173   3.920  50.349  1.00  0.00    -0.358 OA
HETATM   23  H15 UNL     1      27.286   3.971  49.354  1.00  0.00     0.217 HD
ENDBRANCH  10  22
TORSDOF 5
ENDMDL
