MODEL 1
REMARK VINA RESULT:      -8.1      0.000      0.000
REMARK  7 active torsions:
REMARK  status: ('A' for Active; 'I' for Inactive)
REMARK    1  A    between atoms: C2_2  and  N1_4 
REMARK    2  A    between atoms: N1_4  and  C4_5 
REMARK    3  A    between atoms: N1_4  and  C19_28 
REMARK    4  A    between atoms: C4_5  and  C5_6 
REMARK       I    between atoms: C5_6  and  N2_8 
REMARK    5  A    between atoms: N2_8  and  C6_9 
REMARK    6  A    between atoms: C9_12  and  N3_13 
REMARK    7  A    between atoms: N3_13  and  C10_14 
ROOT
HETATM    1  C6  UNL     1      23.294   5.056  51.548  1.00  0.00     0.129 C 
HETATM    2  C7  UNL     1      23.930   3.924  52.017  1.00  0.00     0.054 C 
HETATM    3  C8  UNL     1      23.401   2.828  52.665  1.00  0.00     0.054 C 
HETATM    4  C9  UNL     1      23.453   1.490  52.324  1.00  0.00     0.129 C 
HETATM    5  N4  UNL     1      22.929   0.966  51.198  1.00  0.00    -0.225 NA
HETATM    6  C16 UNL     1      21.660   1.254  50.832  1.00  0.00     0.234 C 
HETATM    7  N5  UNL     1      20.992   2.374  50.499  1.00  0.00    -0.253 NA
HETATM    8  C17 UNL     1      20.576   3.283  51.409  1.00  0.00     0.137 C 
HETATM    9  C18 UNL     1      20.977   4.617  51.446  1.00  0.00     0.138 C 
HETATM   10  N6  UNL     1      22.043   5.137  52.083  1.00  0.00    -0.242 NA
ENDROOT
BRANCH   1  11
HETATM   11  N2  UNL     1      24.147   5.791  50.646  1.00  0.00    -0.310 N 
HETATM   12  C5  UNL     1      24.094   5.573  49.217  1.00  0.00     0.251 C 
HETATM   13  O1  UNL     1      23.188   4.682  49.231  1.00  0.00    -0.271 OA
HETATM   14  H10 UNL     1      24.688   6.407  51.336  1.00  0.00     0.170 HD
BRANCH  12  15
HETATM   15  C4  UNL     1      25.087   6.474  48.585  1.00  0.00     0.375 C 
BRANCH  15  16
HETATM   16  N1  UNL     1      26.429   6.342  49.024  1.00  0.00     0.105 N 
BRANCH  16  17
HETATM   17  C2  UNL     1      27.174   5.243  48.531  1.00  0.00     0.216 C 
HETATM   18  C1  UNL     1      26.995   3.980  49.348  1.00  0.00     0.042 C 
HETATM   19  C3  UNL     1      28.639   5.506  48.369  1.00  0.00     0.042 C 
ENDBRANCH  16  17
BRANCH  16  20
HETATM   20  C19 UNL     1      27.124   7.610  48.904  1.00  0.00     0.216 C 
HETATM   21  C20 UNL     1      26.806   8.524  50.073  1.00  0.00     0.042 C 
HETATM   22  C21 UNL     1      26.705   8.356  47.653  1.00  0.00     0.042 C 
ENDBRANCH  16  20
ENDBRANCH  15  16
ENDBRANCH  12  15
ENDBRANCH   1  11
BRANCH   4  23
HETATM   23  N3  UNL     1      24.165   1.082  53.484  1.00  0.00    -0.341 N 
HETATM   24  H13 UNL     1      23.701   1.117  54.425  1.00  0.00     0.167 HD
BRANCH  23  25
HETATM   25  C10 UNL     1      25.507   0.624  53.383  1.00  0.00     0.035 A 
HETATM   26  C11 UNL     1      25.805  -0.641  52.948  1.00  0.00     0.032 A 
HETATM   27  C12 UNL     1      27.105  -1.103  52.845  1.00  0.00     0.046 A 
HETATM   28  C13 UNL     1      28.165  -0.258  53.194  1.00  0.00     0.138 A 
HETATM   29  F1  UNL     1      29.484  -0.612  53.131  1.00  0.00    -0.204 F 
HETATM   30  C14 UNL     1      27.857   1.018  53.632  1.00  0.00     0.074 A 
HETATM   31 CL1  UNL     1      29.112   2.162  54.098  1.00  0.00    -0.081 Cl
HETATM   32  C15 UNL     1      26.552   1.459  53.728  1.00  0.00     0.056 A 
ENDBRANCH  23  25
ENDBRANCH   4  23
TORSDOF 7
ENDMDL
MODEL 2
REMARK VINA RESULT:      -8.0      3.786      6.557
REMARK  7 active torsions:
REMARK  status: ('A' for Active; 'I' for Inactive)
REMARK    1  A    between atoms: C2_2  and  N1_4 
REMARK    2  A    between atoms: N1_4  and  C4_5 
REMARK    3  A    between atoms: N1_4  and  C19_28 
REMARK    4  A    between atoms: C4_5  and  C5_6 
REMARK       I    between atoms: C5_6  and  N2_8 
REMARK    5  A    between atoms: N2_8  and  C6_9 
REMARK    6  A    between atoms: C9_12  and  N3_13 
REMARK    7  A    between atoms: N3_13  and  C10_14 
ROOT
HETATM    1  C6  UNL     1      23.188   3.932  52.045  1.00  0.00     0.129 C 
HETATM    2  C7  UNL     1      22.121   3.056  52.055  1.00  0.00     0.054 C 
HETATM    3  C8  UNL     1      21.086   2.926  51.154  1.00  0.00     0.054 C 
HETATM    4  C9  UNL     1      20.683   1.824  50.424  1.00  0.00     0.129 C 
HETATM    5  N4  UNL     1      21.443   1.194  49.507  1.00  0.00    -0.225 NA
HETATM    6  C16 UNL     1      22.081   1.895  48.543  1.00  0.00     0.234 C 
HETATM    7  N5  UNL     1      23.031   2.849  48.524  1.00  0.00    -0.253 NA
HETATM    8  C17 UNL     1      22.784   4.142  48.828  1.00  0.00     0.137 C 
HETATM    9  C18 UNL     1      23.379   4.844  49.876  1.00  0.00     0.138 C 
HETATM   10  N6  UNL     1      22.953   4.933  51.150  1.00  0.00    -0.242 NA
ENDROOT
BRANCH   1  11
HETATM   11  N2  UNL     1      24.207   3.515  52.976  1.00  0.00    -0.310 N 
HETATM   12  C5  UNL     1      25.203   2.532  52.611  1.00  0.00     0.251 C 
HETATM   13  O1  UNL     1      24.793   2.332  51.424  1.00  0.00    -0.271 OA
HETATM   14  H10 UNL     1      23.956   4.111  53.831  1.00  0.00     0.170 HD
BRANCH  12  15
HETATM   15  C4  UNL     1      26.090   2.329  53.780  1.00  0.00     0.375 C 
BRANCH  15  16
HETATM   16  N1  UNL     1      26.547   1.006  54.004  1.00  0.00     0.105 N 
BRANCH  16  17
HETATM   17  C2  UNL     1      25.794  -0.052  53.437  1.00  0.00     0.216 C 
HETATM   18  C1  UNL     1      25.014  -0.851  54.460  1.00  0.00     0.042 C 
HETATM   19  C3  UNL     1      26.590  -1.000  52.593  1.00  0.00     0.042 C 
ENDBRANCH  16  17
BRANCH  16  20
HETATM   20  C19 UNL     1      27.969   0.913  53.731  1.00  0.00     0.216 C 
HETATM   21  C20 UNL     1      28.713   0.282  54.894  1.00  0.00     0.042 C 
HETATM   22  C21 UNL     1      28.584   2.282  53.522  1.00  0.00     0.042 C 
ENDBRANCH  16  20
ENDBRANCH  15  16
ENDBRANCH  12  15
ENDBRANCH   1  11
BRANCH   4  23
HETATM   23  N3  UNL     1      19.391   1.741  51.007  1.00  0.00    -0.341 N 
HETATM   24  H13 UNL     1      18.691   2.508  50.849  1.00  0.00     0.167 HD
BRANCH  23  25
HETATM   25  C10 UNL     1      19.032   0.622  51.809  1.00  0.00     0.035 A 
HETATM   26  C11 UNL     1      17.766   0.095  51.783  1.00  0.00     0.032 A 
HETATM   27  C12 UNL     1      17.401  -0.992  52.557  1.00  0.00     0.046 A 
HETATM   28  C13 UNL     1      18.346  -1.585  53.401  1.00  0.00     0.138 A 
HETATM   29  F1  UNL     1      18.092  -2.660  54.207  1.00  0.00    -0.204 F 
HETATM   30  C14 UNL     1      19.621  -1.048  53.422  1.00  0.00     0.074 A 
HETATM   31 CL1  UNL     1      20.888  -1.715  54.448  1.00  0.00    -0.081 Cl
HETATM   32  C15 UNL     1      19.966   0.038  52.641  1.00  0.00     0.056 A 
ENDBRANCH  23  25
ENDBRANCH   4  23
TORSDOF 7
ENDMDL
MODEL 3
REMARK VINA RESULT:      -8.0      3.013      7.038
REMARK  7 active torsions:
REMARK  status: ('A' for Active; 'I' for Inactive)
REMARK    1  A    between atoms: C2_2  and  N1_4 
REMARK    2  A    between atoms: N1_4  and  C4_5 
REMARK    3  A    between atoms: N1_4  and  C19_28 
REMARK    4  A    between atoms: C4_5  and  C5_6 
REMARK       I    between atoms: C5_6  and  N2_8 
REMARK    5  A    between atoms: N2_8  and  C6_9 
REMARK    6  A    between atoms: C9_12  and  N3_13 
REMARK    7  A    between atoms: N3_13  and  C10_14 
ROOT
HETATM    1  C6  UNL     1      24.875   2.936  50.753  1.00  0.00     0.129 C 
HETATM    2  C7  UNL     1      25.731   3.841  50.158  1.00  0.00     0.054 C 
HETATM    3  C8  UNL     1      25.443   4.892  49.313  1.00  0.00     0.054 C 
HETATM    4  C9  UNL     1      25.735   6.237  49.445  1.00  0.00     0.129 C 
HETATM    5  N4  UNL     1      25.278   7.025  50.438  1.00  0.00    -0.225 NA
HETATM    6  C16 UNL     1      23.965   7.036  50.758  1.00  0.00     0.234 C 
HETATM    7  N5  UNL     1      23.085   6.126  51.216  1.00  0.00    -0.253 NA
HETATM    8  C17 UNL     1      22.538   5.169  50.433  1.00  0.00     0.137 C 
HETATM    9  C18 UNL     1      22.681   3.797  50.631  1.00  0.00     0.138 C 
HETATM   10  N6  UNL     1      23.652   2.995  50.155  1.00  0.00    -0.242 NA
ENDROOT
BRANCH   1  11
HETATM   11  N2  UNL     1      25.540   2.218  51.814  1.00  0.00    -0.310 N 
HETATM   12  C5  UNL     1      25.271   2.513  53.205  1.00  0.00     0.251 C 
HETATM   13  O1  UNL     1      24.420   3.436  53.004  1.00  0.00    -0.271 OA
HETATM   14  H10 UNL     1      26.155   1.547  51.249  1.00  0.00     0.170 HD
BRANCH  12  15
HETATM   15  C4  UNL     1      26.109   1.610  54.028  1.00  0.00     0.375 C 
BRANCH  15  16
HETATM   16  N1  UNL     1      26.991   0.752  53.325  1.00  0.00     0.105 N 
BRANCH  16  17
HETATM   17  C2  UNL     1      28.379   1.023  53.415  1.00  0.00     0.216 C 
HETATM   18  C1  UNL     1      29.092   0.178  54.450  1.00  0.00     0.042 C 
HETATM   19  C3  UNL     1      28.718   2.462  53.656  1.00  0.00     0.042 C 
ENDBRANCH  16  17
BRANCH  16  20
HETATM   20  C19 UNL     1      26.657  -0.636  53.587  1.00  0.00     0.216 C 
HETATM   21  C20 UNL     1      26.530  -1.423  52.296  1.00  0.00     0.042 C 
HETATM   22  C21 UNL     1      25.323  -0.760  54.296  1.00  0.00     0.042 C 
ENDBRANCH  16  20
ENDBRANCH  15  16
ENDBRANCH  12  15
ENDBRANCH   1  11
BRANCH   4  23
HETATM   23  N3  UNL     1      26.553   6.311  48.286  1.00  0.00    -0.341 N 
HETATM   24  H13 UNL     1      26.132   6.169  47.335  1.00  0.00     0.167 HD
BRANCH  23  25
HETATM   25  C10 UNL     1      27.945   6.580  48.402  1.00  0.00     0.035 A 
HETATM   26  C11 UNL     1      28.882   5.590  48.256  1.00  0.00     0.032 A 
HETATM   27  C12 UNL     1      30.240   5.834  48.366  1.00  0.00     0.046 A 
HETATM   28  C13 UNL     1      30.686   7.132  48.636  1.00  0.00     0.138 A 
HETATM   29  F1  UNL     1      32.001   7.483  48.766  1.00  0.00    -0.204 F 
HETATM   30  C14 UNL     1      29.734   8.126  48.783  1.00  0.00     0.074 A 
HETATM   31 CL1  UNL     1      30.185   9.794  49.125  1.00  0.00    -0.081 Cl
HETATM   32  C15 UNL     1      28.383   7.862  48.668  1.00  0.00     0.056 A 
ENDBRANCH  23  25
ENDBRANCH   4  23
TORSDOF 7
ENDMDL
MODEL 4
REMARK VINA RESULT:      -7.9      3.167      7.427
REMARK  7 active torsions:
REMARK  status: ('A' for Active; 'I' for Inactive)
REMARK    1  A    between atoms: C2_2  and  N1_4 
REMARK    2  A    between atoms: N1_4  and  C4_5 
REMARK    3  A    between atoms: N1_4  and  C19_28 
REMARK    4  A    between atoms: C4_5  and  C5_6 
REMARK       I    between atoms: C5_6  and  N2_8 
REMARK    5  A    between atoms: N2_8  and  C6_9 
REMARK    6  A    between atoms: C9_12  and  N3_13 
REMARK    7  A    between atoms: N3_13  and  C10_14 
ROOT
HETATM    1  C6  UNL     1      26.001   3.886  50.037  1.00  0.00     0.129 C 
HETATM    2  C7  UNL     1      27.083   4.584  49.540  1.00  0.00     0.054 C 
HETATM    3  C8  UNL     1      27.126   5.538  48.545  1.00  0.00     0.054 C 
HETATM    4  C9  UNL     1      27.588   6.840  48.588  1.00  0.00     0.129 C 
HETATM    5  N4  UNL     1      27.076   7.809  49.372  1.00  0.00    -0.225 NA
HETATM    6  C16 UNL     1      25.743   8.030  49.408  1.00  0.00     0.234 C 
HETATM    7  N5  UNL     1      24.663   7.311  49.768  1.00  0.00    -0.253 NA
HETATM    8  C17 UNL     1      24.137   6.334  48.996  1.00  0.00     0.137 C 
HETATM    9  C18 UNL     1      24.028   4.995  49.366  1.00  0.00     0.138 C 
HETATM   10  N6  UNL     1      24.939   4.018  49.194  1.00  0.00    -0.242 NA
ENDROOT
BRANCH   1  11
HETATM   11  N2  UNL     1      26.332   3.241  51.284  1.00  0.00    -0.310 N 
HETATM   12  C5  UNL     1      25.559   2.125  51.783  1.00  0.00     0.251 C 
HETATM   13  O1  UNL     1      24.726   2.074  50.823  1.00  0.00    -0.271 OA
HETATM   14  H10 UNL     1      27.186   3.814  51.588  1.00  0.00     0.170 HD
BRANCH  12  15
HETATM   15  C4  UNL     1      26.154   1.702  53.073  1.00  0.00     0.375 C 
BRANCH  15  16
HETATM   16  N1  UNL     1      27.161   0.706  53.006  1.00  0.00     0.105 N 
BRANCH  16  17
HETATM   17  C2  UNL     1      28.442   1.035  53.515  1.00  0.00     0.216 C 
HETATM   18  C1  UNL     1      28.763   0.348  54.826  1.00  0.00     0.042 C 
HETATM   19  C3  UNL     1      28.692   2.504  53.670  1.00  0.00     0.042 C 
ENDBRANCH  16  17
BRANCH  16  20
HETATM   20  C19 UNL     1      26.651  -0.558  53.501  1.00  0.00     0.216 C 
HETATM   21  C20 UNL     1      26.623  -1.607  52.405  1.00  0.00     0.042 C 
HETATM   22  C21 UNL     1      25.227  -0.424  54.001  1.00  0.00     0.042 C 
ENDBRANCH  16  20
ENDBRANCH  15  16
ENDBRANCH  12  15
ENDBRANCH   1  11
BRANCH   4  23
HETATM   23  N3  UNL     1      28.615   6.650  47.625  1.00  0.00    -0.341 N 
HETATM   24  H13 UNL     1      28.384   6.658  46.600  1.00  0.00     0.167 HD
BRANCH  23  25
HETATM   25  C10 UNL     1      29.962   6.449  48.036  1.00  0.00     0.035 A 
HETATM   26  C11 UNL     1      30.651   7.406  48.735  1.00  0.00     0.032 A 
HETATM   27  C12 UNL     1      31.962   7.227  49.141  1.00  0.00     0.046 A 
HETATM   28  C13 UNL     1      32.620   6.031  48.834  1.00  0.00     0.138 A 
HETATM   29  F1  UNL     1      33.911   5.750  49.184  1.00  0.00    -0.204 F 
HETATM   30  C14 UNL     1      31.918   5.070  48.127  1.00  0.00     0.074 A 
HETATM   31 CL1  UNL     1      32.650   3.529  47.686  1.00  0.00    -0.081 Cl
HETATM   32  C15 UNL     1      30.610   5.268  47.731  1.00  0.00     0.056 A 
ENDBRANCH  23  25
ENDBRANCH   4  23
TORSDOF 7
ENDMDL
MODEL 5
REMARK VINA RESULT:      -7.9      4.142      6.876
REMARK  7 active torsions:
REMARK  status: ('A' for Active; 'I' for Inactive)
REMARK    1  A    between atoms: C2_2  and  N1_4 
REMARK    2  A    between atoms: N1_4  and  C4_5 
REMARK    3  A    between atoms: N1_4  and  C19_28 
REMARK    4  A    between atoms: C4_5  and  C5_6 
REMARK       I    between atoms: C5_6  and  N2_8 
REMARK    5  A    between atoms: N2_8  and  C6_9 
REMARK    6  A    between atoms: C9_12  and  N3_13 
REMARK    7  A    between atoms: N3_13  and  C10_14 
ROOT
HETATM    1  C6  UNL     1      23.809   3.757  52.217  1.00  0.00     0.129 C 
HETATM    2  C7  UNL     1      22.681   2.963  52.268  1.00  0.00     0.054 C 
HETATM    3  C8  UNL     1      21.558   2.986  51.467  1.00  0.00     0.054 C 
HETATM    4  C9  UNL     1      21.000   1.981  50.700  1.00  0.00     0.129 C 
HETATM    5  N4  UNL     1      21.617   1.375  49.666  1.00  0.00    -0.225 NA
HETATM    6  C16 UNL     1      22.216   2.106  48.699  1.00  0.00     0.234 C 
HETATM    7  N5  UNL     1      23.235   2.985  48.657  1.00  0.00    -0.253 NA
HETATM    8  C17 UNL     1      23.123   4.263  49.082  1.00  0.00     0.137 C 
HETATM    9  C18 UNL     1      23.868   4.829  50.115  1.00  0.00     0.138 C 
HETATM   10  N6  UNL     1      23.574   4.843  51.429  1.00  0.00    -0.242 NA
ENDROOT
BRANCH   1  11
HETATM   11  N2  UNL     1      24.875   3.190  53.007  1.00  0.00    -0.310 N 
HETATM   12  C5  UNL     1      25.849   2.293  52.423  1.00  0.00     0.251 C 
HETATM   13  O1  UNL     1      25.377   2.302  51.243  1.00  0.00    -0.271 OA
HETATM   14  H10 UNL     1      24.669   3.623  53.965  1.00  0.00     0.170 HD
BRANCH  12  15
HETATM   15  C4  UNL     1      26.794   1.894  53.492  1.00  0.00     0.375 C 
BRANCH  15  16
HETATM   16  N1  UNL     1      27.660   0.811  53.197  1.00  0.00     0.105 N 
BRANCH  16  17
HETATM   17  C2  UNL     1      29.048   1.009  53.398  1.00  0.00     0.216 C 
HETATM   18  C1  UNL     1      29.807  -0.274  53.666  1.00  0.00     0.042 C 
HETATM   19  C3  UNL     1      29.388   2.000  54.469  1.00  0.00     0.042 C 
ENDBRANCH  16  17
BRANCH  16  20
HETATM   20  C19 UNL     1      27.159  -0.411  53.798  1.00  0.00     0.216 C 
HETATM   21  C20 UNL     1      26.411  -1.256  52.784  1.00  0.00     0.042 C 
HETATM   22  C21 UNL     1      26.179  -0.118  54.916  1.00  0.00     0.042 C 
ENDBRANCH  16  20
ENDBRANCH  15  16
ENDBRANCH  12  15
ENDBRANCH   1  11
BRANCH   4  23
HETATM   23  N3  UNL     1      19.766   1.944  51.402  1.00  0.00    -0.341 N 
HETATM   24  H13 UNL     1      19.143   2.789  51.416  1.00  0.00     0.167 HD
BRANCH  23  25
HETATM   25  C10 UNL     1      19.363   0.767  52.091  1.00  0.00     0.035 A 
HETATM   26  C11 UNL     1      20.171   0.166  53.021  1.00  0.00     0.032 A 
HETATM   27  C12 UNL     1      19.794  -0.981  53.699  1.00  0.00     0.046 A 
HETATM   28  C13 UNL     1      18.546  -1.557  53.436  1.00  0.00     0.138 A 
HETATM   29  F1  UNL     1      18.076  -2.686  54.046  1.00  0.00    -0.204 F 
HETATM   30  C14 UNL     1      17.736  -0.945  52.496  1.00  0.00     0.074 A 
HETATM   31 CL1  UNL     1      16.148  -1.586  52.087  1.00  0.00    -0.081 Cl
HETATM   32  C15 UNL     1      18.131   0.199  51.830  1.00  0.00     0.056 A 
ENDBRANCH  23  25
ENDBRANCH   4  23
TORSDOF 7
ENDMDL
MODEL 6
REMARK VINA RESULT:      -7.8      3.278      7.377
REMARK  7 active torsions:
REMARK  status: ('A' for Active; 'I' for Inactive)
REMARK    1  A    between atoms: C2_2  and  N1_4 
REMARK    2  A    between atoms: N1_4  and  C4_5 
REMARK    3  A    between atoms: N1_4  and  C19_28 
REMARK    4  A    between atoms: C4_5  and  C5_6 
REMARK       I    between atoms: C5_6  and  N2_8 
REMARK    5  A    between atoms: N2_8  and  C6_9 
REMARK    6  A    between atoms: C9_12  and  N3_13 
REMARK    7  A    between atoms: N3_13  and  C10_14 
ROOT
HETATM    1  C6  UNL     1      25.639   3.209  49.719  1.00  0.00     0.129 C 
HETATM    2  C7  UNL     1      26.319   4.359  49.371  1.00  0.00     0.054 C 
HETATM    3  C8  UNL     1      25.826   5.563  48.915  1.00  0.00     0.054 C 
HETATM    4  C9  UNL     1      25.984   6.835  49.433  1.00  0.00     0.129 C 
HETATM    5  N4  UNL     1      25.559   7.223  50.652  1.00  0.00    -0.225 NA
HETATM    6  C16 UNL     1      24.296   6.957  51.056  1.00  0.00     0.234 C 
HETATM    7  N5  UNL     1      23.577   5.841  51.275  1.00  0.00    -0.253 NA
HETATM    8  C17 UNL     1      23.053   5.094  50.277  1.00  0.00     0.137 C 
HETATM    9  C18 UNL     1      23.365   3.758  50.030  1.00  0.00     0.138 C 
HETATM   10  N6  UNL     1      24.357   3.275  49.260  1.00  0.00    -0.242 NA
ENDROOT
BRANCH   1  11
HETATM   11  N2  UNL     1      26.492   2.308  50.454  1.00  0.00    -0.310 N 
HETATM   12  C5  UNL     1      26.389   2.179  51.891  1.00  0.00     0.251 C 
HETATM   13  O1  UNL     1      25.450   3.020  52.054  1.00  0.00    -0.271 OA
HETATM   14  H10 UNL     1      27.077   1.890  49.659  1.00  0.00     0.170 HD
BRANCH  12  15
HETATM   15  C4  UNL     1      27.396   1.184  52.330  1.00  0.00     0.375 C 
BRANCH  15  16
HETATM   16  N1  UNL     1      27.248   0.674  53.645  1.00  0.00     0.105 N 
BRANCH  16  17
HETATM   17  C2  UNL     1      26.587  -0.570  53.795  1.00  0.00     0.216 C 
HETATM   18  C1  UNL     1      26.603  -1.415  52.538  1.00  0.00     0.042 C 
HETATM   19  C3  UNL     1      25.177  -0.470  54.288  1.00  0.00     0.042 C 
ENDBRANCH  16  17
BRANCH  16  20
HETATM   20  C19 UNL     1      28.511   0.746  54.356  1.00  0.00     0.216 C 
HETATM   21  C20 UNL     1      29.138   2.122  54.228  1.00  0.00     0.042 C 
HETATM   22  C21 UNL     1      29.520  -0.236  53.794  1.00  0.00     0.042 C 
ENDBRANCH  16  20
ENDBRANCH  15  16
ENDBRANCH  12  15
ENDBRANCH   1  11
BRANCH   4  23
HETATM   23  N3  UNL     1      26.654   7.362  48.297  1.00  0.00    -0.341 N 
HETATM   24  H13 UNL     1      26.105   7.655  47.451  1.00  0.00     0.167 HD
BRANCH  23  25
HETATM   25  C10 UNL     1      28.070   7.499  48.293  1.00  0.00     0.035 A 
HETATM   26  C11 UNL     1      28.882   6.554  47.721  1.00  0.00     0.032 A 
HETATM   27  C12 UNL     1      30.261   6.671  47.709  1.00  0.00     0.046 A 
HETATM   28  C13 UNL     1      30.861   7.789  48.300  1.00  0.00     0.138 A 
HETATM   29  F1  UNL     1      32.210   8.003  48.346  1.00  0.00    -0.204 F 
HETATM   30  C14 UNL     1      30.035   8.737  48.876  1.00  0.00     0.074 A 
HETATM   31 CL1  UNL     1      30.685  10.181  49.648  1.00  0.00    -0.081 Cl
HETATM   32  C15 UNL     1      28.661   8.602  48.877  1.00  0.00     0.056 A 
ENDBRANCH  23  25
ENDBRANCH   4  23
TORSDOF 7
ENDMDL
MODEL 7
REMARK VINA RESULT:      -7.7      3.371      7.801
REMARK  7 active torsions:
REMARK  status: ('A' for Active; 'I' for Inactive)
REMARK    1  A    between atoms: C2_2  and  N1_4 
REMARK    2  A    between atoms: N1_4  and  C4_5 
REMARK    3  A    between atoms: N1_4  and  C19_28 
REMARK    4  A    between atoms: C4_5  and  C5_6 
REMARK       I    between atoms: C5_6  and  N2_8 
REMARK    5  A    between atoms: N2_8  and  C6_9 
REMARK    6  A    between atoms: C9_12  and  N3_13 
REMARK    7  A    between atoms: N3_13  and  C10_14 
ROOT
HETATM    1  C6  UNL     1      26.462   5.972  49.065  1.00  0.00     0.129 C 
HETATM    2  C7  UNL     1      27.753   5.706  48.656  1.00  0.00     0.054 C 
HETATM    3  C8  UNL     1      28.571   6.431  47.816  1.00  0.00     0.054 C 
HETATM    4  C9  UNL     1      29.828   6.958  48.045  1.00  0.00     0.129 C 
HETATM    5  N4  UNL     1      30.109   7.889  48.978  1.00  0.00    -0.225 NA
HETATM    6  C16 UNL     1      29.361   9.011  49.077  1.00  0.00     0.234 C 
HETATM    7  N5  UNL     1      28.070   9.279  49.347  1.00  0.00    -0.253 NA
HETATM    8  C17 UNL     1      27.076   9.102  48.448  1.00  0.00     0.137 C 
HETATM    9  C18 UNL     1      25.992   8.241  48.614  1.00  0.00     0.138 C 
HETATM   10  N6  UNL     1      25.917   6.940  48.276  1.00  0.00    -0.242 NA
ENDROOT
BRANCH   1  11
HETATM   11  N2  UNL     1      26.099   5.149  50.193  1.00  0.00    -0.310 N 
HETATM   12  C5  UNL     1      24.979   4.235  50.128  1.00  0.00     0.251 C 
HETATM   13  O1  UNL     1      24.638   4.497  48.931  1.00  0.00    -0.271 OA
HETATM   14  H10 UNL     1      26.841   5.445  50.907  1.00  0.00     0.170 HD
BRANCH  12  15
HETATM   15  C4  UNL     1      24.876   3.552  51.439  1.00  0.00     0.375 C 
BRANCH  15  16
HETATM   16  N1  UNL     1      24.595   2.162  51.405  1.00  0.00     0.105 N 
BRANCH  16  17
HETATM   17  C2  UNL     1      25.277   1.334  52.330  1.00  0.00     0.216 C 
HETATM   18  C1  UNL     1      25.746   2.071  53.567  1.00  0.00     0.042 C 
HETATM   19  C3  UNL     1      26.435   0.579  51.754  1.00  0.00     0.042 C 
ENDBRANCH  16  17
BRANCH  16  20
HETATM   20  C19 UNL     1      23.161   1.940  51.379  1.00  0.00     0.216 C 
HETATM   21  C20 UNL     1      22.425   3.003  52.173  1.00  0.00     0.042 C 
HETATM   22  C21 UNL     1      22.795   0.609  52.006  1.00  0.00     0.042 C 
ENDBRANCH  16  20
ENDBRANCH  15  16
ENDBRANCH  12  15
ENDBRANCH   1  11
BRANCH   4  23
HETATM   23  N3  UNL     1      30.481   6.193  47.042  1.00  0.00    -0.341 N 
HETATM   24  H13 UNL     1      30.106   6.184  46.061  1.00  0.00     0.167 HD
BRANCH  23  25
HETATM   25  C10 UNL     1      31.643   5.436  47.354  1.00  0.00     0.035 A 
HETATM   26  C11 UNL     1      32.770   6.025  47.866  1.00  0.00     0.032 A 
HETATM   27  C12 UNL     1      33.910   5.303  48.174  1.00  0.00     0.046 A 
HETATM   28  C13 UNL     1      33.927   3.920  47.960  1.00  0.00     0.138 A 
HETATM   29  F1  UNL     1      34.997   3.113  48.227  1.00  0.00    -0.204 F 
HETATM   30  C14 UNL     1      32.786   3.332  47.442  1.00  0.00     0.074 A 
HETATM   31 CL1  UNL     1      32.699   1.600  47.132  1.00  0.00    -0.081 Cl
HETATM   32  C15 UNL     1      31.658   4.071  47.142  1.00  0.00     0.056 A 
ENDBRANCH  23  25
ENDBRANCH   4  23
TORSDOF 7
ENDMDL
MODEL 8
REMARK VINA RESULT:      -7.7      3.068      7.460
REMARK  7 active torsions:
REMARK  status: ('A' for Active; 'I' for Inactive)
REMARK    1  A    between atoms: C2_2  and  N1_4 
REMARK    2  A    between atoms: N1_4  and  C4_5 
REMARK    3  A    between atoms: N1_4  and  C19_28 
REMARK    4  A    between atoms: C4_5  and  C5_6 
REMARK       I    between atoms: C5_6  and  N2_8 
REMARK    5  A    between atoms: N2_8  and  C6_9 
REMARK    6  A    between atoms: C9_12  and  N3_13 
REMARK    7  A    between atoms: N3_13  and  C10_14 
ROOT
HETATM    1  C6  UNL     1      24.272   4.210  50.672  1.00  0.00     0.129 C 
HETATM    2  C7  UNL     1      25.409   4.721  50.079  1.00  0.00     0.054 C 
HETATM    3  C8  UNL     1      25.532   5.740  49.157  1.00  0.00     0.054 C 
HETATM    4  C9  UNL     1      26.263   6.911  49.226  1.00  0.00     0.129 C 
HETATM    5  N4  UNL     1      26.069   7.882  50.140  1.00  0.00    -0.225 NA
HETATM    6  C16 UNL     1      24.828   8.363  50.377  1.00  0.00     0.234 C 
HETATM    7  N5  UNL     1      23.672   7.845  50.833  1.00  0.00    -0.253 NA
HETATM    8  C17 UNL     1      22.859   7.074  50.076  1.00  0.00     0.137 C 
HETATM    9  C18 UNL     1      22.514   5.755  50.363  1.00  0.00     0.138 C 
HETATM   10  N6  UNL     1      23.168   4.636  49.997  1.00  0.00    -0.242 NA
ENDROOT
BRANCH   1  11
HETATM   11  N2  UNL     1      24.609   3.393  51.813  1.00  0.00    -0.310 N 
HETATM   12  C5  UNL     1      24.216   2.003  51.884  1.00  0.00     0.251 C 
HETATM   13  O1  UNL     1      23.622   1.954  50.761  1.00  0.00    -0.271 OA
HETATM   14  H10 UNL     1      25.141   4.101  52.418  1.00  0.00     0.170 HD
BRANCH  12  15
HETATM   15  C4  UNL     1      24.710   1.459  53.171  1.00  0.00     0.375 C 
BRANCH  15  16
HETATM   16  N1  UNL     1      24.626   0.053  53.336  1.00  0.00     0.105 N 
BRANCH  16  17
HETATM   17  C2  UNL     1      25.755  -0.611  53.875  1.00  0.00     0.216 C 
HETATM   18  C1  UNL     1      26.693   0.310  54.628  1.00  0.00     0.042 C 
HETATM   19  C3  UNL     1      26.552  -1.396  52.879  1.00  0.00     0.042 C 
ENDBRANCH  16  17
BRANCH  16  20
HETATM   20  C19 UNL     1      23.381  -0.303  53.989  1.00  0.00     0.216 C 
HETATM   21  C20 UNL     1      23.623  -1.222  55.172  1.00  0.00     0.042 C 
HETATM   22  C21 UNL     1      22.457  -1.052  53.049  1.00  0.00     0.042 C 
ENDBRANCH  16  20
ENDBRANCH  15  16
ENDBRANCH  12  15
ENDBRANCH   1  11
BRANCH   4  23
HETATM   23  N3  UNL     1      27.100   6.613  48.118  1.00  0.00    -0.341 N 
HETATM   24  H13 UNL     1      26.677   6.335  47.198  1.00  0.00     0.167 HD
BRANCH  23  25
HETATM   25  C10 UNL     1      28.515   6.688  48.241  1.00  0.00     0.035 A 
HETATM   26  C11 UNL     1      29.308   5.577  48.111  1.00  0.00     0.032 A 
HETATM   27  C12 UNL     1      30.686   5.633  48.230  1.00  0.00     0.046 A 
HETATM   28  C13 UNL     1      31.305   6.860  48.492  1.00  0.00     0.138 A 
HETATM   29  F1  UNL     1      32.655   7.028  48.629  1.00  0.00    -0.204 F 
HETATM   30  C14 UNL     1      30.498   7.976  48.623  1.00  0.00     0.074 A 
HETATM   31 CL1  UNL     1      31.172   9.570  48.955  1.00  0.00    -0.081 Cl
HETATM   32  C15 UNL     1      29.125   7.900  48.501  1.00  0.00     0.056 A 
ENDBRANCH  23  25
ENDBRANCH   4  23
TORSDOF 7
ENDMDL
MODEL 9
REMARK VINA RESULT:      -7.7      3.485      8.014
REMARK  7 active torsions:
REMARK  status: ('A' for Active; 'I' for Inactive)
REMARK    1  A    between atoms: C2_2  and  N1_4 
REMARK    2  A    between atoms: N1_4  and  C4_5 
REMARK    3  A    between atoms: N1_4  and  C19_28 
REMARK    4  A    between atoms: C4_5  and  C5_6 
REMARK       I    between atoms: C5_6  and  N2_8 
REMARK    5  A    between atoms: N2_8  and  C6_9 
REMARK    6  A    between atoms: C9_12  and  N3_13 
REMARK    7  A    between atoms: N3_13  and  C10_14 
ROOT
HETATM    1  C6  UNL     1      26.856   5.649  48.987  1.00  0.00     0.129 C 
HETATM    2  C7  UNL     1      28.160   5.554  48.546  1.00  0.00     0.054 C 
HETATM    3  C8  UNL     1      28.885   6.428  47.762  1.00  0.00     0.054 C 
HETATM    4  C9  UNL     1      30.084   7.063  48.024  1.00  0.00     0.129 C 
HETATM    5  N4  UNL     1      30.283   7.938  49.029  1.00  0.00    -0.225 NA
HETATM    6  C16 UNL     1      29.424   8.963  49.228  1.00  0.00     0.234 C 
HETATM    7  N5  UNL     1      28.117   9.071  49.530  1.00  0.00    -0.253 NA
HETATM    8  C17 UNL     1      27.132   8.866  48.628  1.00  0.00     0.137 C 
HETATM    9  C18 UNL     1      26.146   7.885  48.731  1.00  0.00     0.138 C 
HETATM   10  N6  UNL     1      26.201   6.616  48.285  1.00  0.00    -0.242 NA
ENDROOT
BRANCH   1  11
HETATM   11  N2  UNL     1      26.599   4.702  50.045  1.00  0.00    -0.310 N 
HETATM   12  C5  UNL     1      25.410   3.878  50.045  1.00  0.00     0.251 C 
HETATM   13  O1  UNL     1      24.916   4.322  48.961  1.00  0.00    -0.271 OA
HETATM   14  H10 UNL     1      27.463   4.851  50.663  1.00  0.00     0.170 HD
BRANCH  12  15
HETATM   15  C4  UNL     1      25.449   3.028  51.258  1.00  0.00     0.375 C 
BRANCH  15  16
HETATM   16  N1  UNL     1      24.214   2.477  51.683  1.00  0.00     0.105 N 
BRANCH  16  17
HETATM   17  C2  UNL     1      23.066   2.767  50.904  1.00  0.00     0.216 C 
HETATM   18  C1  UNL     1      21.975   3.475  51.681  1.00  0.00     0.042 C 
HETATM   19  C3  UNL     1      22.468   1.581  50.211  1.00  0.00     0.042 C 
ENDBRANCH  16  17
BRANCH  16  20
HETATM   20  C19 UNL     1      24.369   1.065  51.979  1.00  0.00     0.216 C 
HETATM   21  C20 UNL     1      23.769   0.717  53.329  1.00  0.00     0.042 C 
HETATM   22  C21 UNL     1      25.830   0.670  52.045  1.00  0.00     0.042 C 
ENDBRANCH  16  20
ENDBRANCH  15  16
ENDBRANCH  12  15
ENDBRANCH   1  11
BRANCH   4  23
HETATM   23  N3  UNL     1      30.795   6.455  46.955  1.00  0.00    -0.341 N 
HETATM   24  H13 UNL     1      30.503   6.631  45.962  1.00  0.00     0.167 HD
BRANCH  23  25
HETATM   25  C10 UNL     1      31.906   5.606  47.217  1.00  0.00     0.035 A 
HETATM   26  C11 UNL     1      33.110   6.107  47.640  1.00  0.00     0.032 A 
HETATM   27  C12 UNL     1      34.200   5.294  47.899  1.00  0.00     0.046 A 
HETATM   28  C13 UNL     1      34.083   3.910  47.726  1.00  0.00     0.138 A 
HETATM   29  F1  UNL     1      35.095   3.019  47.951  1.00  0.00    -0.204 F 
HETATM   30  C14 UNL     1      32.865   3.413  47.298  1.00  0.00     0.074 A 
HETATM   31 CL1  UNL     1      32.609   1.688  47.047  1.00  0.00    -0.081 Cl
HETATM   32  C15 UNL     1      31.789   4.240  47.046  1.00  0.00     0.056 A 
ENDBRANCH  23  25
ENDBRANCH   4  23
TORSDOF 7
ENDMDL
