MODEL 1
REMARK VINA RESULT:      -8.7      0.000      0.000
REMARK  6 active torsions:
REMARK  status: ('A' for Active; 'I' for Inactive)
REMARK    1  A    between atoms: C4_5  and  N2_6 
REMARK    2  A    between atoms: N2_6  and  C5_7 
REMARK    3  A    between atoms: C15_20  and  O2_21 
REMARK    4  A    between atoms: O2_21  and  C16_22 
REMARK    5  A    between atoms: C16_22  and  C17_23 
REMARK    6  A    between atoms: C17_23  and  O3_24 
ROOT
HETATM    1  N1  UNL     1      24.056   8.479  49.292  1.00  0.00    -0.191 NA
HETATM    2  C1  UNL     1      24.927   7.725  49.114  1.00  0.00     0.102 C 
HETATM    3  C2  UNL     1      25.990   6.788  48.918  1.00  0.00     0.085 A 
HETATM    4  C3  UNL     1      25.827   5.476  49.242  1.00  0.00     0.055 A 
HETATM    5  C4  UNL     1      26.802   4.481  49.090  1.00  0.00     0.035 A 
HETATM    6  C19 UNL     1      27.968   4.992  48.565  1.00  0.00     0.032 A 
HETATM    7  C20 UNL     1      28.199   6.302  48.217  1.00  0.00     0.046 A 
HETATM    8  C21 UNL     1      27.189   7.222  48.397  1.00  0.00     0.137 A 
HETATM    9  F1  UNL     1      27.305   8.533  48.089  1.00  0.00    -0.204 F 
ENDROOT
BRANCH   5  10
HETATM   10  N2  UNL     1      26.586   3.138  49.440  1.00  0.00    -0.340 N 
HETATM   11  H2  UNL     1      26.581   2.508  48.627  1.00  0.00     0.167 HD
BRANCH  10  12
HETATM   12  C5  UNL     1      26.396   2.672  50.766  1.00  0.00     0.141 A 
HETATM   13  N3  UNL     1      27.212   2.484  51.780  1.00  0.00    -0.224 NA
HETATM   14  C6  UNL     1      26.867   2.040  52.971  1.00  0.00     0.235 A 
HETATM   15  N4  UNL     1      25.561   1.730  53.234  1.00  0.00    -0.245 NA
HETATM   16  C7  UNL     1      24.644   1.884  52.269  1.00  0.00     0.060 A 
HETATM   17  C8  UNL     1      25.145   2.354  51.087  1.00  0.00     0.035 A 
HETATM   18  C18 UNL     1      23.390   1.462  52.819  1.00  0.00     0.122 C 
HETATM   19  C9  UNL     1      24.024   2.493  50.215  1.00  0.00     0.013 C 
HETATM   20  C10 UNL     1      22.935   2.062  49.682  1.00  0.00    -0.026 C 
HETATM   21  C11 UNL     1      21.691   1.859  48.916  1.00  0.00     0.027 C 
HETATM   22  C12 UNL     1      20.600   1.771  50.001  1.00  0.00     0.006 C 
HETATM   23  C13 UNL     1      20.680   0.549  50.834  1.00  0.00     0.027 C 
HETATM   24  C14 UNL     1      19.928   0.686  52.179  1.00  0.00     0.171 C 
HETATM   25  O1  UNL     1      20.734   1.700  52.833  1.00  0.00    -0.350 OA
HETATM   26  C15 UNL     1      22.100   1.407  52.999  1.00  0.00     0.233 C 
BRANCH  26  27
HETATM   27  O2  UNL     1      22.568   0.474  53.904  1.00  0.00    -0.348 OA
BRANCH  27  28
HETATM   28  C16 UNL     1      22.711  -0.894  53.711  1.00  0.00     0.197 C 
BRANCH  28  29
HETATM   29  C17 UNL     1      22.060  -1.712  54.813  1.00  0.00     0.190 C 
BRANCH  29  30
HETATM   30  O3  UNL     1      22.922  -2.010  55.840  1.00  0.00    -0.399 OA
HETATM   31  H18 UNL     1      22.529  -1.979  56.746  1.00  0.00     0.209 HD
ENDBRANCH  29  30
ENDBRANCH  28  29
ENDBRANCH  27  28
ENDBRANCH  26  27
ENDBRANCH  10  12
ENDBRANCH   5  10
TORSDOF 6
ENDMDL
MODEL 2
REMARK VINA RESULT:      -8.5      1.807      3.565
REMARK  6 active torsions:
REMARK  status: ('A' for Active; 'I' for Inactive)
REMARK    1  A    between atoms: C4_5  and  N2_6 
REMARK    2  A    between atoms: N2_6  and  C5_7 
REMARK    3  A    between atoms: C15_20  and  O2_21 
REMARK    4  A    between atoms: O2_21  and  C16_22 
REMARK    5  A    between atoms: C16_22  and  C17_23 
REMARK    6  A    between atoms: C17_23  and  O3_24 
ROOT
HETATM    1  N1  UNL     1      25.164   9.450  47.691  1.00  0.00    -0.191 NA
HETATM    2  C1  UNL     1      25.954   8.598  47.781  1.00  0.00     0.102 C 
HETATM    3  C2  UNL     1      26.918   7.549  47.914  1.00  0.00     0.085 A 
HETATM    4  C3  UNL     1      26.600   6.394  48.560  1.00  0.00     0.055 A 
HETATM    5  C4  UNL     1      27.467   5.309  48.746  1.00  0.00     0.035 A 
HETATM    6  C19 UNL     1      28.703   5.550  48.189  1.00  0.00     0.032 A 
HETATM    7  C20 UNL     1      29.090   6.691  47.525  1.00  0.00     0.046 A 
HETATM    8  C21 UNL     1      28.178   7.714  47.384  1.00  0.00     0.137 A 
HETATM    9  F1  UNL     1      28.449   8.877  46.751  1.00  0.00    -0.204 F 
ENDROOT
BRANCH   5  10
HETATM   10  N2  UNL     1      27.092   4.136  49.421  1.00  0.00    -0.340 N 
HETATM   11  H2  UNL     1      27.895   3.540  49.663  1.00  0.00     0.167 HD
BRANCH  10  12
HETATM   12  C5  UNL     1      25.758   3.787  49.751  1.00  0.00     0.141 A 
HETATM   13  N3  UNL     1      24.587   4.197  49.313  1.00  0.00    -0.224 NA
HETATM   14  C6  UNL     1      23.417   3.759  49.730  1.00  0.00     0.235 A 
HETATM   15  N4  UNL     1      23.351   2.797  50.699  1.00  0.00    -0.245 NA
HETATM   16  C7  UNL     1      24.487   2.308  51.216  1.00  0.00     0.060 A 
HETATM   17  C8  UNL     1      25.625   2.854  50.688  1.00  0.00     0.035 A 
HETATM   18  C18 UNL     1      24.111   1.351  52.212  1.00  0.00     0.122 C 
HETATM   19  C9  UNL     1      26.711   2.182  51.323  1.00  0.00     0.013 C 
HETATM   20  C10 UNL     1      27.312   1.716  52.361  1.00  0.00    -0.026 C 
HETATM   21  C11 UNL     1      28.228   1.086  53.330  1.00  0.00     0.027 C 
HETATM   22  C12 UNL     1      27.411  -0.090  53.899  1.00  0.00     0.006 C 
HETATM   23  C13 UNL     1      26.269   0.326  54.744  1.00  0.00     0.027 C 
HETATM   24  C14 UNL     1      25.202  -0.784  54.904  1.00  0.00     0.171 C 
HETATM   25  O1  UNL     1      24.711  -0.881  53.543  1.00  0.00    -0.350 OA
HETATM   26  C15 UNL     1      24.192   0.297  52.976  1.00  0.00     0.233 C 
BRANCH  26  27
HETATM   27  O2  UNL     1      22.983   0.848  53.355  1.00  0.00    -0.348 OA
BRANCH  27  28
HETATM   28  C16 UNL     1      21.713   0.331  53.139  1.00  0.00     0.197 C 
BRANCH  28  29
HETATM   29  C17 UNL     1      20.985   0.005  54.432  1.00  0.00     0.190 C 
BRANCH  29  30
HETATM   30  O3  UNL     1      21.682  -0.863  55.236  1.00  0.00    -0.399 OA
HETATM   31  H18 UNL     1      21.342  -1.791  55.254  1.00  0.00     0.209 HD
ENDBRANCH  29  30
ENDBRANCH  28  29
ENDBRANCH  27  28
ENDBRANCH  26  27
ENDBRANCH  10  12
ENDBRANCH   5  10
TORSDOF 6
ENDMDL
MODEL 3
REMARK VINA RESULT:      -8.4      3.419      6.387
REMARK  6 active torsions:
REMARK  status: ('A' for Active; 'I' for Inactive)
REMARK    1  A    between atoms: C4_5  and  N2_6 
REMARK    2  A    between atoms: N2_6  and  C5_7 
REMARK    3  A    between atoms: C15_20  and  O2_21 
REMARK    4  A    between atoms: O2_21  and  C16_22 
REMARK    5  A    between atoms: C16_22  and  C17_23 
REMARK    6  A    between atoms: C17_23  and  O3_24 
ROOT
HETATM    1  N1  UNL     1      27.966  -3.121  52.708  1.00  0.00    -0.191 NA
HETATM    2  C1  UNL     1      28.089  -1.988  52.953  1.00  0.00     0.102 C 
HETATM    3  C2  UNL     1      28.226  -0.592  53.233  1.00  0.00     0.085 A 
HETATM    4  C3  UNL     1      27.176   0.257  53.061  1.00  0.00     0.055 A 
HETATM    5  C4  UNL     1      27.206   1.636  53.305  1.00  0.00     0.035 A 
HETATM    6  C19 UNL     1      28.444   2.044  53.749  1.00  0.00     0.032 A 
HETATM    7  C20 UNL     1      29.544   1.242  53.944  1.00  0.00     0.046 A 
HETATM    8  C21 UNL     1      29.435  -0.106  53.681  1.00  0.00     0.137 A 
HETATM    9  F1  UNL     1      30.449  -0.985  53.838  1.00  0.00    -0.204 F 
ENDROOT
BRANCH   5  10
HETATM   10  N2  UNL     1      26.094   2.472  53.111  1.00  0.00    -0.340 N 
HETATM   11  H2  UNL     1      25.697   2.822  53.994  1.00  0.00     0.167 HD
BRANCH  10  12
HETATM   12  C5  UNL     1      25.557   2.817  51.845  1.00  0.00     0.141 A 
HETATM   13  N3  UNL     1      26.018   3.518  50.832  1.00  0.00    -0.224 NA
HETATM   14  C6  UNL     1      25.381   3.745  49.702  1.00  0.00     0.235 A 
HETATM   15  N4  UNL     1      24.127   3.233  49.508  1.00  0.00    -0.245 NA
HETATM   16  C7  UNL     1      23.561   2.502  50.479  1.00  0.00     0.060 A 
HETATM   17  C8  UNL     1      24.338   2.348  51.593  1.00  0.00     0.035 A 
HETATM   18  C18 UNL     1      22.259   2.130  50.010  1.00  0.00     0.122 C 
HETATM   19  C9  UNL     1      23.592   1.514  52.478  1.00  0.00     0.013 C 
HETATM   20  C10 UNL     1      22.507   1.178  53.082  1.00  0.00    -0.026 C 
HETATM   21  C11 UNL     1      21.451   0.551  53.900  1.00  0.00     0.027 C 
HETATM   22  C12 UNL     1      20.433   0.043  52.861  1.00  0.00     0.006 C 
HETATM   23  C13 UNL     1      19.708   1.122  52.153  1.00  0.00     0.027 C 
HETATM   24  C14 UNL     1      19.074   0.651  50.822  1.00  0.00     0.171 C 
HETATM   25  O1  UNL     1      20.265   0.360  50.047  1.00  0.00    -0.350 OA
HETATM   26  C15 UNL     1      21.176   1.418  49.873  1.00  0.00     0.233 C 
BRANCH  26  27
HETATM   27  O2  UNL     1      20.927   2.501  49.053  1.00  0.00    -0.348 OA
BRANCH  27  28
HETATM   28  C16 UNL     1      20.576   2.482  47.709  1.00  0.00     0.197 C 
BRANCH  28  29
HETATM   29  C17 UNL     1      20.979   3.753  46.981  1.00  0.00     0.190 C 
BRANCH  29  30
HETATM   30  O3  UNL     1      22.292   4.097  47.188  1.00  0.00    -0.399 OA
HETATM   31  H18 UNL     1      22.957   3.420  46.911  1.00  0.00     0.209 HD
ENDBRANCH  29  30
ENDBRANCH  28  29
ENDBRANCH  27  28
ENDBRANCH  26  27
ENDBRANCH  10  12
ENDBRANCH   5  10
TORSDOF 6
ENDMDL
MODEL 4
REMARK VINA RESULT:      -8.4      4.196      5.865
REMARK  6 active torsions:
REMARK  status: ('A' for Active; 'I' for Inactive)
REMARK    1  A    between atoms: C4_5  and  N2_6 
REMARK    2  A    between atoms: N2_6  and  C5_7 
REMARK    3  A    between atoms: C15_20  and  O2_21 
REMARK    4  A    between atoms: O2_21  and  C16_22 
REMARK    5  A    between atoms: C16_22  and  C17_23 
REMARK    6  A    between atoms: C17_23  and  O3_24 
ROOT
HETATM    1  N1  UNL     1      29.040  -3.131  53.446  1.00  0.00    -0.191 NA
HETATM    2  C1  UNL     1      28.693  -2.021  53.367  1.00  0.00     0.102 C 
HETATM    3  C2  UNL     1      28.255  -0.664  53.249  1.00  0.00     0.085 A 
HETATM    4  C3  UNL     1      26.979  -0.378  52.871  1.00  0.00     0.055 A 
HETATM    5  C4  UNL     1      26.452   0.912  52.726  1.00  0.00     0.035 A 
HETATM    6  C19 UNL     1      27.391   1.877  53.014  1.00  0.00     0.032 A 
HETATM    7  C20 UNL     1      28.692   1.658  53.399  1.00  0.00     0.046 A 
HETATM    8  C21 UNL     1      29.136   0.359  53.520  1.00  0.00     0.137 A 
HETATM    9  F1  UNL     1      30.393   0.027  53.891  1.00  0.00    -0.204 F 
ENDROOT
BRANCH   5  10
HETATM   10  N2  UNL     1      25.126   1.157  52.332  1.00  0.00    -0.340 N 
HETATM   11  H2  UNL     1      25.049   1.899  51.623  1.00  0.00     0.167 HD
BRANCH  10  12
HETATM   12  C5  UNL     1      23.994   0.470  52.840  1.00  0.00     0.141 A 
HETATM   13  N3  UNL     1      23.840  -0.441  53.775  1.00  0.00    -0.224 NA
HETATM   14  C6  UNL     1      22.696  -0.986  54.135  1.00  0.00     0.235 A 
HETATM   15  N4  UNL     1      21.535  -0.611  53.518  1.00  0.00    -0.245 NA
HETATM   16  C7  UNL     1      21.578   0.313  52.547  1.00  0.00     0.060 A 
HETATM   17  C8  UNL     1      22.831   0.790  52.281  1.00  0.00     0.035 A 
HETATM   18  C18 UNL     1      20.236   0.480  52.075  1.00  0.00     0.122 C 
HETATM   19  C9  UNL     1      22.664   1.781  51.268  1.00  0.00     0.013 C 
HETATM   20  C10 UNL     1      22.173   2.202  50.156  1.00  0.00    -0.026 C 
HETATM   21  C11 UNL     1      21.778   2.959  48.953  1.00  0.00     0.027 C 
HETATM   22  C12 UNL     1      20.254   3.126  49.107  1.00  0.00     0.006 C 
HETATM   23  C13 UNL     1      19.494   1.863  48.968  1.00  0.00     0.027 C 
HETATM   24  C14 UNL     1      18.077   1.941  49.585  1.00  0.00     0.171 C 
HETATM   25  O1  UNL     1      18.405   2.087  50.991  1.00  0.00    -0.350 OA
HETATM   26  C15 UNL     1      19.193   1.072  51.562  1.00  0.00     0.233 C 
BRANCH  26  27
HETATM   27  O2  UNL     1      18.717  -0.198  51.822  1.00  0.00    -0.348 OA
BRANCH  27  28
HETATM   28  C16 UNL     1      17.665  -0.552  52.658  1.00  0.00     0.197 C 
BRANCH  28  29
HETATM   29  C17 UNL     1      17.822  -1.946  53.240  1.00  0.00     0.190 C 
BRANCH  29  30
HETATM   30  O3  UNL     1      18.845  -2.034  54.152  1.00  0.00    -0.399 OA
HETATM   31  H18 UNL     1      18.603  -2.433  55.023  1.00  0.00     0.209 HD
ENDBRANCH  29  30
ENDBRANCH  28  29
ENDBRANCH  27  28
ENDBRANCH  26  27
ENDBRANCH  10  12
ENDBRANCH   5  10
TORSDOF 6
ENDMDL
MODEL 5
REMARK VINA RESULT:      -8.4      4.372      8.221
REMARK  6 active torsions:
REMARK  status: ('A' for Active; 'I' for Inactive)
REMARK    1  A    between atoms: C4_5  and  N2_6 
REMARK    2  A    between atoms: N2_6  and  C5_7 
REMARK    3  A    between atoms: C15_20  and  O2_21 
REMARK    4  A    between atoms: O2_21  and  C16_22 
REMARK    5  A    between atoms: C16_22  and  C17_23 
REMARK    6  A    between atoms: C17_23  and  O3_24 
ROOT
HETATM    1  N1  UNL     1      21.460  -1.509  54.962  1.00  0.00    -0.191 NA
HETATM    2  C1  UNL     1      22.381  -0.998  54.464  1.00  0.00     0.102 C 
HETATM    3  C2  UNL     1      23.501  -0.373  53.830  1.00  0.00     0.085 A 
HETATM    4  C3  UNL     1      23.318   0.515  52.815  1.00  0.00     0.055 A 
HETATM    5  C4  UNL     1      24.343   1.179  52.130  1.00  0.00     0.035 A 
HETATM    6  C19 UNL     1      25.584   0.823  52.608  1.00  0.00     0.032 A 
HETATM    7  C20 UNL     1      25.841  -0.065  53.626  1.00  0.00     0.046 A 
HETATM    8  C21 UNL     1      24.776  -0.678  54.252  1.00  0.00     0.137 A 
HETATM    9  F1  UNL     1      24.911  -1.566  55.262  1.00  0.00    -0.204 F 
ENDROOT
BRANCH   5  10
HETATM   10  N2  UNL     1      24.103   2.089  51.087  1.00  0.00    -0.340 N 
HETATM   11  H2  UNL     1      24.386   1.726  50.166  1.00  0.00     0.167 HD
BRANCH  10  12
HETATM   12  C5  UNL     1      23.531   3.375  51.255  1.00  0.00     0.141 A 
HETATM   13  N3  UNL     1      22.396   3.795  51.769  1.00  0.00    -0.224 NA
HETATM   14  C6  UNL     1      22.009   5.051  51.855  1.00  0.00     0.235 A 
HETATM   15  N4  UNL     1      22.818   6.049  51.385  1.00  0.00    -0.245 NA
HETATM   16  C7  UNL     1      24.001   5.733  50.840  1.00  0.00     0.060 A 
HETATM   17  C8  UNL     1      24.269   4.392  50.819  1.00  0.00     0.035 A 
HETATM   18  C18 UNL     1      24.605   6.962  50.420  1.00  0.00     0.122 C 
HETATM   19  C9  UNL     1      25.573   4.263  50.253  1.00  0.00     0.013 C 
HETATM   20  C10 UNL     1      26.463   4.543  49.367  1.00  0.00    -0.026 C 
HETATM   21  C11 UNL     1      27.670   4.659  48.529  1.00  0.00     0.027 C 
HETATM   22  C12 UNL     1      28.085   6.135  48.681  1.00  0.00     0.006 C 
HETATM   23  C13 UNL     1      27.148   7.090  48.047  1.00  0.00     0.027 C 
HETATM   24  C14 UNL     1      27.291   8.530  48.597  1.00  0.00     0.171 C 
HETATM   25  O1  UNL     1      26.843   8.339  49.963  1.00  0.00    -0.350 OA
HETATM   26  C15 UNL     1      25.548   7.816  50.134  1.00  0.00     0.233 C 
BRANCH  26  27
HETATM   27  O2  UNL     1      24.401   8.540  49.876  1.00  0.00    -0.348 OA
BRANCH  27  28
HETATM   28  C16 UNL     1      23.643   8.539  48.712  1.00  0.00     0.197 C 
BRANCH  28  29
HETATM   29  C17 UNL     1      22.257   9.123  48.914  1.00  0.00     0.190 C 
BRANCH  29  30
HETATM   30  O3  UNL     1      21.466   8.358  49.737  1.00  0.00    -0.399 OA
HETATM   31  H18 UNL     1      21.278   8.746  50.626  1.00  0.00     0.209 HD
ENDBRANCH  29  30
ENDBRANCH  28  29
ENDBRANCH  27  28
ENDBRANCH  26  27
ENDBRANCH  10  12
ENDBRANCH   5  10
TORSDOF 6
ENDMDL
MODEL 6
REMARK VINA RESULT:      -8.1      3.523      5.051
REMARK  6 active torsions:
REMARK  status: ('A' for Active; 'I' for Inactive)
REMARK    1  A    between atoms: C4_5  and  N2_6 
REMARK    2  A    between atoms: N2_6  and  C5_7 
REMARK    3  A    between atoms: C15_20  and  O2_21 
REMARK    4  A    between atoms: O2_21  and  C16_22 
REMARK    5  A    between atoms: C16_22  and  C17_23 
REMARK    6  A    between atoms: C17_23  and  O3_24 
ROOT
HETATM    1  N1  UNL     1      20.791   3.603  43.766  1.00  0.00    -0.191 NA
HETATM    2  C1  UNL     1      21.275   4.233  44.619  1.00  0.00     0.102 C 
HETATM    3  C2  UNL     1      21.856   4.993  45.682  1.00  0.00     0.085 A 
HETATM    4  C3  UNL     1      22.248   4.385  46.835  1.00  0.00     0.055 A 
HETATM    5  C4  UNL     1      22.826   5.036  47.933  1.00  0.00     0.035 A 
HETATM    6  C19 UNL     1      22.954   6.388  47.709  1.00  0.00     0.032 A 
HETATM    7  C20 UNL     1      22.580   7.064  46.571  1.00  0.00     0.046 A 
HETATM    8  C21 UNL     1      22.019   6.352  45.534  1.00  0.00     0.137 A 
HETATM    9  F1  UNL     1      21.616   6.913  44.372  1.00  0.00    -0.204 F 
ENDROOT
BRANCH   5  10
HETATM   10  N2  UNL     1      23.213   4.364  49.105  1.00  0.00    -0.340 N 
HETATM   11  H2  UNL     1      22.414   4.099  49.697  1.00  0.00     0.167 HD
BRANCH  10  12
HETATM   12  C5  UNL     1      24.554   4.067  49.457  1.00  0.00     0.141 A 
HETATM   13  N3  UNL     1      25.716   4.474  48.996  1.00  0.00    -0.224 NA
HETATM   14  C6  UNL     1      26.895   4.096  49.446  1.00  0.00     0.235 A 
HETATM   15  N4  UNL     1      26.980   3.205  50.480  1.00  0.00    -0.245 NA
HETATM   16  C7  UNL     1      25.854   2.725  51.025  1.00  0.00     0.060 A 
HETATM   17  C8  UNL     1      24.706   3.206  50.458  1.00  0.00     0.035 A 
HETATM   18  C18 UNL     1      26.249   1.808  52.052  1.00  0.00     0.122 C 
HETATM   19  C9  UNL     1      23.632   2.623  51.196  1.00  0.00     0.013 C 
HETATM   20  C10 UNL     1      23.043   1.623  51.751  1.00  0.00    -0.026 C 
HETATM   21  C11 UNL     1      22.140   0.703  52.469  1.00  0.00     0.027 C 
HETATM   22  C12 UNL     1      22.978   0.230  53.673  1.00  0.00     0.006 C 
HETATM   23  C13 UNL     1      24.117  -0.642  53.306  1.00  0.00     0.027 C 
HETATM   24  C14 UNL     1      25.202  -0.712  54.408  1.00  0.00     0.171 C 
HETATM   25  O1  UNL     1      25.689   0.655  54.390  1.00  0.00    -0.350 OA
HETATM   26  C15 UNL     1      26.188   1.129  53.164  1.00  0.00     0.233 C 
BRANCH  26  27
HETATM   27  O2  UNL     1      27.389   0.711  52.624  1.00  0.00    -0.348 OA
BRANCH  27  28
HETATM   28  C16 UNL     1      28.616   0.613  53.267  1.00  0.00     0.197 C 
BRANCH  28  29
HETATM   29  C17 UNL     1      29.016   1.900  53.966  1.00  0.00     0.190 C 
BRANCH  29  30
HETATM   30  O3  UNL     1      29.351   2.904  53.091  1.00  0.00    -0.399 OA
HETATM   31  H18 UNL     1      28.958   2.828  52.188  1.00  0.00     0.209 HD
ENDBRANCH  29  30
ENDBRANCH  28  29
ENDBRANCH  27  28
ENDBRANCH  26  27
ENDBRANCH  10  12
ENDBRANCH   5  10
TORSDOF 6
ENDMDL
MODEL 7
REMARK VINA RESULT:      -7.8      5.297      8.058
REMARK  6 active torsions:
REMARK  status: ('A' for Active; 'I' for Inactive)
REMARK    1  A    between atoms: C4_5  and  N2_6 
REMARK    2  A    between atoms: N2_6  and  C5_7 
REMARK    3  A    between atoms: C15_20  and  O2_21 
REMARK    4  A    between atoms: O2_21  and  C16_22 
REMARK    5  A    between atoms: C16_22  and  C17_23 
REMARK    6  A    between atoms: C17_23  and  O3_24 
ROOT
HETATM    1  N1  UNL     1      22.313  -1.781  55.367  1.00  0.00    -0.191 NA
HETATM    2  C1  UNL     1      22.532  -1.058  54.479  1.00  0.00     0.102 C 
HETATM    3  C2  UNL     1      22.787  -0.186  53.374  1.00  0.00     0.085 A 
HETATM    4  C3  UNL     1      21.806   0.100  52.475  1.00  0.00     0.055 A 
HETATM    5  C4  UNL     1      21.952   0.938  51.362  1.00  0.00     0.035 A 
HETATM    6  C19 UNL     1      23.227   1.449  51.279  1.00  0.00     0.032 A 
HETATM    7  C20 UNL     1      24.263   1.203  52.149  1.00  0.00     0.046 A 
HETATM    8  C21 UNL     1      24.039   0.366  53.221  1.00  0.00     0.137 A 
HETATM    9  F1  UNL     1      24.983   0.054  54.138  1.00  0.00    -0.204 F 
ENDROOT
BRANCH   5  10
HETATM   10  N2  UNL     1      20.908   1.202  50.460  1.00  0.00    -0.340 N 
HETATM   11  H2  UNL     1      20.862   0.521  49.690  1.00  0.00     0.167 HD
BRANCH  10  12
HETATM   12  C5  UNL     1      19.997   2.282  50.577  1.00  0.00     0.141 A 
HETATM   13  N3  UNL     1      20.117   3.582  50.417  1.00  0.00    -0.224 NA
HETATM   14  C6  UNL     1      19.152   4.466  50.562  1.00  0.00     0.235 A 
HETATM   15  N4  UNL     1      17.894   4.056  50.909  1.00  0.00    -0.245 NA
HETATM   16  C7  UNL     1      17.660   2.749  51.098  1.00  0.00     0.060 A 
HETATM   17  C8  UNL     1      18.754   1.949  50.912  1.00  0.00     0.035 A 
HETATM   18  C18 UNL     1      16.283   2.625  51.473  1.00  0.00     0.122 C 
HETATM   19  C9  UNL     1      18.298   0.612  51.109  1.00  0.00     0.013 C 
HETATM   20  C10 UNL     1      17.645  -0.284  51.762  1.00  0.00    -0.026 C 
HETATM   21  C11 UNL     1      17.005  -1.512  52.270  1.00  0.00     0.027 C 
HETATM   22  C12 UNL     1      15.497  -1.211  52.169  1.00  0.00     0.006 C 
HETATM   23  C13 UNL     1      15.028  -0.174  53.117  1.00  0.00     0.027 C 
HETATM   24  C14 UNL     1      13.677   0.457  52.700  1.00  0.00     0.171 C 
HETATM   25  O1  UNL     1      14.068   1.141  51.481  1.00  0.00    -0.350 OA
HETATM   26  C15 UNL     1      15.101   2.088  51.595  1.00  0.00     0.233 C 
BRANCH  26  27
HETATM   27  O2  UNL     1      14.937   3.314  52.211  1.00  0.00    -0.348 OA
BRANCH  27  28
HETATM   28  C16 UNL     1      13.763   4.043  52.345  1.00  0.00     0.197 C 
BRANCH  28  29
HETATM   29  C17 UNL     1      13.490   4.454  53.781  1.00  0.00     0.190 C 
BRANCH  29  30
HETATM   30  O3  UNL     1      14.628   4.805  54.465  1.00  0.00    -0.399 OA
HETATM   31  H18 UNL     1      14.545   5.596  55.051  1.00  0.00     0.209 HD
ENDBRANCH  29  30
ENDBRANCH  28  29
ENDBRANCH  27  28
ENDBRANCH  26  27
ENDBRANCH  10  12
ENDBRANCH   5  10
TORSDOF 6
ENDMDL
MODEL 8
REMARK VINA RESULT:      -7.8      3.923      6.211
REMARK  6 active torsions:
REMARK  status: ('A' for Active; 'I' for Inactive)
REMARK    1  A    between atoms: C4_5  and  N2_6 
REMARK    2  A    between atoms: N2_6  and  C5_7 
REMARK    3  A    between atoms: C15_20  and  O2_21 
REMARK    4  A    between atoms: O2_21  and  C16_22 
REMARK    5  A    between atoms: C16_22  and  C17_23 
REMARK    6  A    between atoms: C17_23  and  O3_24 
ROOT
HETATM    1  N1  UNL     1      28.289  -3.077  52.858  1.00  0.00    -0.191 NA
HETATM    2  C1  UNL     1      28.264  -1.934  53.086  1.00  0.00     0.102 C 
HETATM    3  C2  UNL     1      28.216  -0.528  53.347  1.00  0.00     0.085 A 
HETATM    4  C3  UNL     1      27.027   0.134  53.363  1.00  0.00     0.055 A 
HETATM    5  C4  UNL     1      26.871   1.505  53.607  1.00  0.00     0.035 A 
HETATM    6  C19 UNL     1      28.083   2.119  53.833  1.00  0.00     0.032 A 
HETATM    7  C20 UNL     1      29.317   1.512  53.831  1.00  0.00     0.046 A 
HETATM    8  C21 UNL     1      29.387   0.158  53.582  1.00  0.00     0.137 A 
HETATM    9  F1  UNL     1      30.544  -0.541  53.557  1.00  0.00    -0.204 F 
ENDROOT
BRANCH   5  10
HETATM   10  N2  UNL     1      25.621   2.144  53.612  1.00  0.00    -0.340 N 
HETATM   11  H2  UNL     1      25.679   3.135  53.884  1.00  0.00     0.167 HD
BRANCH  10  12
HETATM   12  C5  UNL     1      24.394   1.516  53.281  1.00  0.00     0.141 A 
HETATM   13  N3  UNL     1      23.931   0.297  53.453  1.00  0.00    -0.224 NA
HETATM   14  C6  UNL     1      22.743  -0.133  53.082  1.00  0.00     0.235 A 
HETATM   15  N4  UNL     1      21.871   0.717  52.460  1.00  0.00    -0.245 NA
HETATM   16  C7  UNL     1      22.241   1.986  52.233  1.00  0.00     0.060 A 
HETATM   17  C8  UNL     1      23.500   2.290  52.673  1.00  0.00     0.035 A 
HETATM   18  C18 UNL     1      21.152   2.620  51.553  1.00  0.00     0.122 C 
HETATM   19  C9  UNL     1      23.688   3.676  52.387  1.00  0.00     0.013 C 
HETATM   20  C10 UNL     1      23.618   4.699  51.610  1.00  0.00    -0.026 C 
HETATM   21  C11 UNL     1      23.664   6.031  50.978  1.00  0.00     0.027 C 
HETATM   22  C12 UNL     1      22.182   6.371  50.728  1.00  0.00     0.006 C 
HETATM   23  C13 UNL     1      21.541   5.533  49.689  1.00  0.00     0.027 C 
HETATM   24  C14 UNL     1      19.995   5.538  49.780  1.00  0.00     0.171 C 
HETATM   25  O1  UNL     1      19.801   4.863  51.050  1.00  0.00    -0.350 OA
HETATM   26  C15 UNL     1      20.351   3.574  51.168  1.00  0.00     0.233 C 
BRANCH  26  27
HETATM   27  O2  UNL     1      19.832   2.470  50.521  1.00  0.00    -0.348 OA
BRANCH  27  28
HETATM   28  C16 UNL     1      18.537   1.975  50.598  1.00  0.00     0.197 C 
BRANCH  28  29
HETATM   29  C17 UNL     1      18.485   0.458  50.539  1.00  0.00     0.190 C 
BRANCH  29  30
HETATM   30  O3  UNL     1      19.025  -0.141  51.650  1.00  0.00    -0.399 OA
HETATM   31  H18 UNL     1      18.639  -1.019  51.888  1.00  0.00     0.209 HD
ENDBRANCH  29  30
ENDBRANCH  28  29
ENDBRANCH  27  28
ENDBRANCH  26  27
ENDBRANCH  10  12
ENDBRANCH   5  10
TORSDOF 6
ENDMDL
MODEL 9
REMARK VINA RESULT:      -7.5      2.241      3.691
REMARK  6 active torsions:
REMARK  status: ('A' for Active; 'I' for Inactive)
REMARK    1  A    between atoms: C4_5  and  N2_6 
REMARK    2  A    between atoms: N2_6  and  C5_7 
REMARK    3  A    between atoms: C15_20  and  O2_21 
REMARK    4  A    between atoms: O2_21  and  C16_22 
REMARK    5  A    between atoms: C16_22  and  C17_23 
REMARK    6  A    between atoms: C17_23  and  O3_24 
ROOT
HETATM    1  N1  UNL     1      24.907  10.040  48.090  1.00  0.00    -0.191 NA
HETATM    2  C1  UNL     1      25.169   8.954  48.423  1.00  0.00     0.102 C 
HETATM    3  C2  UNL     1      25.489   7.628  48.854  1.00  0.00     0.085 A 
HETATM    4  C3  UNL     1      24.844   7.069  49.915  1.00  0.00     0.055 A 
HETATM    5  C4  UNL     1      25.082   5.783  50.417  1.00  0.00     0.035 A 
HETATM    6  C19 UNL     1      26.063   5.135  49.700  1.00  0.00     0.032 A 
HETATM    7  C20 UNL     1      26.752   5.639  48.622  1.00  0.00     0.046 A 
HETATM    8  C21 UNL     1      26.460   6.914  48.189  1.00  0.00     0.137 A 
HETATM    9  F1  UNL     1      27.073   7.508  47.141  1.00  0.00    -0.204 F 
ENDROOT
BRANCH   5  10
HETATM   10  N2  UNL     1      24.390   5.250  51.517  1.00  0.00    -0.340 N 
HETATM   11  H2  UNL     1      24.957   5.232  52.376  1.00  0.00     0.167 HD
BRANCH  10  12
HETATM   12  C5  UNL     1      23.052   4.782  51.477  1.00  0.00     0.141 A 
HETATM   13  N3  UNL     1      21.913   5.341  51.134  1.00  0.00    -0.224 NA
HETATM   14  C6  UNL     1      20.734   4.755  51.151  1.00  0.00     0.235 A 
HETATM   15  N4  UNL     1      20.623   3.452  51.551  1.00  0.00    -0.245 NA
HETATM   16  C7  UNL     1      21.725   2.785  51.924  1.00  0.00     0.060 A 
HETATM   17  C8  UNL     1      22.876   3.519  51.854  1.00  0.00     0.035 A 
HETATM   18  C18 UNL     1      21.302   1.472  52.311  1.00  0.00     0.122 C 
HETATM   19  C9  UNL     1      23.927   2.634  52.240  1.00  0.00     0.013 C 
HETATM   20  C10 UNL     1      24.439   1.742  53.013  1.00  0.00    -0.026 C 
HETATM   21  C11 UNL     1      25.282   0.739  53.690  1.00  0.00     0.027 C 
HETATM   22  C12 UNL     1      24.483  -0.571  53.546  1.00  0.00     0.006 C 
HETATM   23  C13 UNL     1      23.231  -0.601  54.336  1.00  0.00     0.027 C 
HETATM   24  C14 UNL     1      22.225  -1.664  53.831  1.00  0.00     0.171 C 
HETATM   25  O1  UNL     1      21.893  -1.119  52.528  1.00  0.00    -0.350 OA
HETATM   26  C15 UNL     1      21.366   0.184  52.507  1.00  0.00     0.233 C 
BRANCH  26  27
HETATM   27  O2  UNL     1      20.091   0.490  52.942  1.00  0.00    -0.348 OA
BRANCH  27  28
HETATM   28  C16 UNL     1      18.896   0.299  52.260  1.00  0.00     0.197 C 
BRANCH  28  29
HETATM   29  C17 UNL     1      18.064  -0.831  52.841  1.00  0.00     0.190 C 
BRANCH  29  30
HETATM   30  O3  UNL     1      18.696  -1.490  53.867  1.00  0.00    -0.399 OA
HETATM   31  H18 UNL     1      19.682  -1.423  53.871  1.00  0.00     0.209 HD
ENDBRANCH  29  30
ENDBRANCH  28  29
ENDBRANCH  27  28
ENDBRANCH  26  27
ENDBRANCH  10  12
ENDBRANCH   5  10
TORSDOF 6
ENDMDL
