MODEL 1
REMARK VINA RESULT:      -7.7      0.000      0.000
REMARK  1 active torsions:
REMARK  status: ('A' for Active; 'I' for Inactive)
REMARK    1  A    between atoms: O1_3  and  C2_4 
ROOT
HETATM    1  N1  UNL     1      26.887   0.126  52.219  1.00  0.00    -0.164 NA
HETATM    2  C1  UNL     1      26.029   0.853  51.948  1.00  0.00     0.234 C 
HETATM    3  O1  UNL     1      25.043   1.717  51.638  1.00  0.00    -0.238 OA
ENDROOT
BRANCH   3   4
HETATM    4  C2  UNL     1      25.136   2.667  50.675  1.00  0.00     0.125 C 
HETATM    5  C3  UNL     1      23.834   2.994  50.335  1.00  0.00     0.116 C 
HETATM    6  O2  UNL     1      23.370   3.013  51.733  1.00  0.00    -0.345 OA
HETATM    7  C11 UNL     1      23.123   3.266  49.028  1.00  0.00     0.029 A 
HETATM    8  C4  UNL     1      22.849   4.246  52.380  1.00  0.00     0.204 C 
HETATM    9  C5  UNL     1      22.806   5.440  51.501  1.00  0.00     0.228 C 
HETATM   10  O3  UNL     1      23.850   5.965  50.840  1.00  0.00    -0.275 OA
HETATM   11  N2  UNL     1      24.206   5.433  49.596  1.00  0.00    -0.242 N 
HETATM   12  C6  UNL     1      23.341   4.681  48.670  1.00  0.00     0.074 A 
HETATM   13  C12 UNL     1      25.613   5.777  49.745  1.00  0.00     0.207 A 
HETATM   14  C7  UNL     1      22.792   5.199  47.544  1.00  0.00     0.074 A 
HETATM   15  C8  UNL     1      22.052   4.309  46.811  1.00  0.00     0.118 A 
HETATM   16  F1  UNL     1      21.517   4.831  45.705  1.00  0.00    -0.206 F 
HETATM   17  C9  UNL     1      21.864   2.997  47.164  1.00  0.00     0.043 A 
HETATM   18  C10 UNL     1      22.387   2.411  48.285  1.00  0.00     0.020 A 
HETATM   19  C13 UNL     1      26.238   6.799  48.942  1.00  0.00     0.125 A 
HETATM   20  C15 UNL     1      26.500   4.535  49.648  1.00  0.00     0.069 A 
HETATM   21  N3  UNL     1      27.342   6.672  48.315  1.00  0.00    -0.256 NA
HETATM   22  C14 UNL     1      28.117   5.480  48.320  1.00  0.00     0.232 A 
HETATM   23  N4  UNL     1      27.746   4.392  48.970  1.00  0.00    -0.244 NA
HETATM   24  C16 UNL     1      26.411   3.254  50.101  1.00  0.00     0.071 C 
ENDBRANCH   3   4
TORSDOF 1
ENDMDL
MODEL 2
REMARK VINA RESULT:      -7.2      4.494      6.890
REMARK  1 active torsions:
REMARK  status: ('A' for Active; 'I' for Inactive)
REMARK    1  A    between atoms: O1_3  and  C2_4 
ROOT
HETATM    1  N1  UNL     1      26.525   3.406  49.514  1.00  0.00    -0.164 NA
HETATM    2  C1  UNL     1      26.704   4.468  49.091  1.00  0.00     0.234 C 
HETATM    3  O1  UNL     1      26.927   5.709  48.617  1.00  0.00    -0.238 OA
ENDROOT
BRANCH   3   4
HETATM    4  C2  UNL     1      28.144   6.175  48.241  1.00  0.00     0.125 C 
HETATM    5  C3  UNL     1      27.930   7.454  47.756  1.00  0.00     0.116 C 
HETATM    6  O2  UNL     1      26.999   7.814  48.840  1.00  0.00    -0.345 OA
HETATM    7  C11 UNL     1      28.457   8.234  46.573  1.00  0.00     0.029 A 
HETATM    8  C4  UNL     1      27.291   8.904  49.807  1.00  0.00     0.204 C 
HETATM    9  C5  UNL     1      28.572   9.614  49.577  1.00  0.00     0.228 C 
HETATM   10  O3  UNL     1      29.786   9.044  49.519  1.00  0.00    -0.275 OA
HETATM   11  N2  UNL     1      30.221   8.490  48.310  1.00  0.00    -0.242 N 
HETATM   12  C6  UNL     1      29.752   8.831  46.956  1.00  0.00     0.074 A 
HETATM   13  C12 UNL     1      31.061   7.493  48.959  1.00  0.00     0.207 A 
HETATM   14  C7  UNL     1      30.439   9.605  46.080  1.00  0.00     0.074 A 
HETATM   15  C8  UNL     1      29.832   9.762  44.862  1.00  0.00     0.118 A 
HETATM   16  F1  UNL     1      30.518  10.525  44.009  1.00  0.00    -0.206 F 
HETATM   17  C9  UNL     1      28.628   9.196  44.529  1.00  0.00     0.043 A 
HETATM   18  C10 UNL     1      27.883   8.407  45.363  1.00  0.00     0.020 A 
HETATM   19  C13 UNL     1      32.501   7.547  48.891  1.00  0.00     0.125 A 
HETATM   20  C15 UNL     1      30.653   6.076  48.553  1.00  0.00     0.069 A 
HETATM   21  N3  UNL     1      33.262   6.570  48.587  1.00  0.00    -0.256 NA
HETATM   22  C14 UNL     1      32.784   5.272  48.261  1.00  0.00     0.232 A 
HETATM   23  N4  UNL     1      31.498   4.972  48.235  1.00  0.00    -0.244 NA
HETATM   24  C16 UNL     1      29.467   5.441  48.345  1.00  0.00     0.071 C 
ENDBRANCH   3   4
TORSDOF 1
ENDMDL
MODEL 3
REMARK VINA RESULT:      -6.9      6.098      9.018
REMARK  1 active torsions:
REMARK  status: ('A' for Active; 'I' for Inactive)
REMARK    1  A    between atoms: O1_3  and  C2_4 
ROOT
HETATM    1  N1  UNL     1      27.451   4.304  48.878  1.00  0.00    -0.164 NA
HETATM    2  C1  UNL     1      28.114   5.162  48.474  1.00  0.00     0.234 C 
HETATM    3  O1  UNL     1      28.901   6.159  48.022  1.00  0.00    -0.238 OA
ENDROOT
BRANCH   3   4
HETATM    4  C2  UNL     1      30.190   5.997  47.637  1.00  0.00     0.125 C 
HETATM    5  C3  UNL     1      30.596   7.224  47.139  1.00  0.00     0.116 C 
HETATM    6  O2  UNL     1      29.952   7.986  48.223  1.00  0.00    -0.345 OA
HETATM    7  C11 UNL     1      31.418   7.658  45.946  1.00  0.00     0.029 A 
HETATM    8  C4  UNL     1      30.729   8.819  49.178  1.00  0.00     0.204 C 
HETATM    9  C5  UNL     1      32.192   8.844  48.935  1.00  0.00     0.228 C 
HETATM   10  O3  UNL     1      32.996   7.770  48.877  1.00  0.00    -0.275 OA
HETATM   11  N2  UNL     1      33.110   7.069  47.673  1.00  0.00    -0.242 N 
HETATM   12  C6  UNL     1      32.844   7.581  46.317  1.00  0.00     0.074 A 
HETATM   13  C12 UNL     1      33.391   5.799  48.328  1.00  0.00     0.207 A 
HETATM   14  C7  UNL     1      33.807   7.936  45.431  1.00  0.00     0.074 A 
HETATM   15  C8  UNL     1      33.333   8.351  44.213  1.00  0.00     0.118 A 
HETATM   16  F1  UNL     1      34.290   8.697  43.349  1.00  0.00    -0.206 F 
HETATM   17  C9  UNL     1      32.001   8.412  43.891  1.00  0.00     0.043 A 
HETATM   18  C10 UNL     1      30.981   8.071  44.737  1.00  0.00     0.020 A 
HETATM   19  C13 UNL     1      34.688   5.172  48.253  1.00  0.00     0.125 A 
HETATM   20  C15 UNL     1      32.363   4.736  47.939  1.00  0.00     0.069 A 
HETATM   21  N3  UNL     1      34.900   3.950  47.956  1.00  0.00    -0.256 NA
HETATM   22  C14 UNL     1      33.866   3.025  47.646  1.00  0.00     0.232 A 
HETATM   23  N4  UNL     1      32.589   3.363  47.628  1.00  0.00    -0.244 NA
HETATM   24  C16 UNL     1      31.016   4.729  47.742  1.00  0.00     0.071 C 
ENDBRANCH   3   4
TORSDOF 1
ENDMDL
MODEL 4
REMARK VINA RESULT:      -6.8      6.997      8.948
REMARK  1 active torsions:
REMARK  status: ('A' for Active; 'I' for Inactive)
REMARK    1  A    between atoms: O1_3  and  C2_4 
ROOT
HETATM    1  N1  UNL     1      32.403   0.719  47.069  1.00  0.00    -0.164 NA
HETATM    2  C1  UNL     1      32.823   1.790  47.191  1.00  0.00     0.234 C 
HETATM    3  O1  UNL     1      33.318   3.037  47.311  1.00  0.00    -0.238 OA
ENDROOT
BRANCH   3   4
HETATM    4  C2  UNL     1      32.875   4.105  46.604  1.00  0.00     0.125 C 
HETATM    5  C3  UNL     1      32.293   4.959  47.525  1.00  0.00     0.116 C 
HETATM    6  O2  UNL     1      33.367   4.778  48.517  1.00  0.00    -0.345 OA
HETATM    7  C11 UNL     1      31.038   5.801  47.535  1.00  0.00     0.029 A 
HETATM    8  C4  UNL     1      34.235   5.900  48.961  1.00  0.00     0.204 C 
HETATM    9  C5  UNL     1      33.915   7.213  48.351  1.00  0.00     0.228 C 
HETATM   10  O3  UNL     1      33.873   7.478  47.036  1.00  0.00    -0.275 OA
HETATM   11  N2  UNL     1      32.702   7.199  46.323  1.00  0.00    -0.242 N 
HETATM   12  C6  UNL     1      31.337   7.082  46.864  1.00  0.00     0.074 A 
HETATM   13  C12 UNL     1      33.408   6.957  45.072  1.00  0.00     0.207 A 
HETATM   14  C7  UNL     1      30.384   8.040  46.751  1.00  0.00     0.074 A 
HETATM   15  C8  UNL     1      29.173   7.704  47.297  1.00  0.00     0.118 A 
HETATM   16  F1  UNL     1      28.243   8.654  47.179  1.00  0.00    -0.206 F 
HETATM   17  C9  UNL     1      28.918   6.506  47.915  1.00  0.00     0.043 A 
HETATM   18  C10 UNL     1      29.833   5.499  48.064  1.00  0.00     0.020 A 
HETATM   19  C13 UNL     1      33.299   7.855  43.948  1.00  0.00     0.125 A 
HETATM   20  C15 UNL     1      33.130   5.550  44.542  1.00  0.00     0.069 A 
HETATM   21  N3  UNL     1      33.057   7.506  42.746  1.00  0.00    -0.256 NA
HETATM   22  C14 UNL     1      32.850   6.157  42.345  1.00  0.00     0.232 A 
HETATM   23  N4  UNL     1      32.881   5.148  43.196  1.00  0.00    -0.244 NA
HETATM   24  C16 UNL     1      33.005   4.318  45.107  1.00  0.00     0.071 C 
ENDBRANCH   3   4
TORSDOF 1
ENDMDL
MODEL 5
REMARK VINA RESULT:      -6.8      3.588      6.207
REMARK  1 active torsions:
REMARK  status: ('A' for Active; 'I' for Inactive)
REMARK    1  A    between atoms: O1_3  and  C2_4 
ROOT
HETATM    1  N1  UNL     1      21.418   3.624  45.959  1.00  0.00    -0.164 NA
HETATM    2  C1  UNL     1      22.145   3.755  46.850  1.00  0.00     0.234 C 
HETATM    3  O1  UNL     1      22.974   3.915  47.900  1.00  0.00    -0.238 OA
ENDROOT
BRANCH   3   4
HETATM    4  C2  UNL     1      22.861   3.241  49.070  1.00  0.00     0.125 C 
HETATM    5  C3  UNL     1      23.870   3.723  49.887  1.00  0.00     0.116 C 
HETATM    6  O2  UNL     1      23.643   5.127  49.503  1.00  0.00    -0.345 OA
HETATM    7  C11 UNL     1      24.844   3.081  50.849  1.00  0.00     0.029 A 
HETATM    8  C4  UNL     1      23.212   6.158  50.482  1.00  0.00     0.204 C 
HETATM    9  C5  UNL     1      23.057   5.670  51.874  1.00  0.00     0.228 C 
HETATM   10  O3  UNL     1      22.271   4.654  52.266  1.00  0.00    -0.275 OA
HETATM   11  N2  UNL     1      22.756   3.345  52.177  1.00  0.00    -0.242 N 
HETATM   12  C6  UNL     1      24.166   2.918  52.150  1.00  0.00     0.074 A 
HETATM   13  C12 UNL     1      21.433   2.767  51.985  1.00  0.00     0.207 A 
HETATM   14  C7  UNL     1      24.823   2.381  53.207  1.00  0.00     0.074 A 
HETATM   15  C8  UNL     1      26.120   2.022  52.947  1.00  0.00     0.118 A 
HETATM   16  F1  UNL     1      26.757   1.493  53.995  1.00  0.00    -0.206 F 
HETATM   17  C9  UNL     1      26.728   2.182  51.728  1.00  0.00     0.043 A 
HETATM   18  C10 UNL     1      26.124   2.717  50.623  1.00  0.00     0.020 A 
HETATM   19  C13 UNL     1      20.804   1.948  52.993  1.00  0.00     0.125 A 
HETATM   20  C15 UNL     1      21.354   1.988  50.672  1.00  0.00     0.069 A 
HETATM   21  N3  UNL     1      20.259   0.814  52.787  1.00  0.00    -0.256 NA
HETATM   22  C14 UNL     1      20.203   0.189  51.511  1.00  0.00     0.232 A 
HETATM   23  N4  UNL     1      20.727   0.731  50.428  1.00  0.00    -0.244 NA
HETATM   24  C16 UNL     1      21.829   2.182  49.411  1.00  0.00     0.071 C 
ENDBRANCH   3   4
TORSDOF 1
ENDMDL
MODEL 6
REMARK VINA RESULT:      -6.7      2.279      3.634
REMARK  1 active torsions:
REMARK  status: ('A' for Active; 'I' for Inactive)
REMARK    1  A    between atoms: O1_3  and  C2_4 
ROOT
HETATM    1  N1  UNL     1      28.346   5.038  48.498  1.00  0.00    -0.164 NA
HETATM    2  C1  UNL     1      27.395   4.490  48.864  1.00  0.00     0.234 C 
HETATM    3  O1  UNL     1      26.285   3.867  49.307  1.00  0.00    -0.238 OA
ENDROOT
BRANCH   3   4
HETATM    4  C2  UNL     1      25.049   4.424  49.311  1.00  0.00     0.125 C 
HETATM    5  C3  UNL     1      24.178   3.417  49.692  1.00  0.00     0.116 C 
HETATM    6  O2  UNL     1      25.066   2.918  50.756  1.00  0.00    -0.345 OA
HETATM    7  C11 UNL     1      22.807   2.978  49.230  1.00  0.00     0.029 A 
HETATM    8  C4  UNL     1      24.677   2.941  52.191  1.00  0.00     0.204 C 
HETATM    9  C5  UNL     1      23.320   3.476  52.459  1.00  0.00     0.228 C 
HETATM   10  O3  UNL     1      22.866   4.684  52.091  1.00  0.00    -0.275 OA
HETATM   11  N2  UNL     1      22.352   4.854  50.801  1.00  0.00    -0.242 N 
HETATM   12  C6  UNL     1      21.801   3.810  49.918  1.00  0.00     0.074 A 
HETATM   13  C12 UNL     1      22.730   6.259  50.732  1.00  0.00     0.207 A 
HETATM   14  C7  UNL     1      20.477   3.613  49.700  1.00  0.00     0.074 A 
HETATM   15  C8  UNL     1      20.191   2.609  48.812  1.00  0.00     0.118 A 
HETATM   16  F1  UNL     1      18.885   2.425  48.605  1.00  0.00    -0.206 F 
HETATM   17  C9  UNL     1      21.145   1.850  48.183  1.00  0.00     0.043 A 
HETATM   18  C10 UNL     1      22.494   1.995  48.359  1.00  0.00     0.020 A 
HETATM   19  C13 UNL     1      21.747   7.315  50.737  1.00  0.00     0.125 A 
HETATM   20  C15 UNL     1      23.658   6.525  49.546  1.00  0.00     0.069 A 
HETATM   21  N3  UNL     1      21.711   8.292  49.919  1.00  0.00    -0.256 NA
HETATM   22  C14 UNL     1      22.650   8.473  48.867  1.00  0.00     0.232 A 
HETATM   23  N4  UNL     1      23.639   7.627  48.641  1.00  0.00    -0.244 NA
HETATM   24  C16 UNL     1      24.701   5.862  48.975  1.00  0.00     0.071 C 
ENDBRANCH   3   4
TORSDOF 1
ENDMDL
MODEL 7
REMARK VINA RESULT:      -6.7      4.810      7.316
REMARK  1 active torsions:
REMARK  status: ('A' for Active; 'I' for Inactive)
REMARK    1  A    between atoms: O1_3  and  C2_4 
ROOT
HETATM    1  N1  UNL     1      28.855  13.271  48.450  1.00  0.00    -0.164 NA
HETATM    2  C1  UNL     1      28.356  12.304  48.843  1.00  0.00     0.234 C 
HETATM    3  O1  UNL     1      27.774  11.170  49.280  1.00  0.00    -0.238 OA
ENDROOT
BRANCH   3   4
HETATM    4  C2  UNL     1      28.317   9.935  49.149  1.00  0.00     0.125 C 
HETATM    5  C3  UNL     1      27.295   9.113  48.708  1.00  0.00     0.116 C 
HETATM    6  O2  UNL     1      26.786  10.101  47.741  1.00  0.00    -0.345 OA
HETATM    7  C11 UNL     1      26.850   7.708  49.048  1.00  0.00     0.029 A 
HETATM    8  C4  UNL     1      26.779   9.849  46.276  1.00  0.00     0.204 C 
HETATM    9  C5  UNL     1      27.294   8.518  45.871  1.00  0.00     0.228 C 
HETATM   10  O3  UNL     1      28.504   8.021  46.173  1.00  0.00    -0.275 OA
HETATM   11  N2  UNL     1      28.692   7.386  47.405  1.00  0.00    -0.242 N 
HETATM   12  C6  UNL     1      27.659   6.764  48.252  1.00  0.00     0.074 A 
HETATM   13  C12 UNL     1      30.102   7.744  47.483  1.00  0.00     0.207 A 
HETATM   14  C7  UNL     1      27.452   5.428  48.349  1.00  0.00     0.074 A 
HETATM   15  C8  UNL     1      26.462   5.068  49.225  1.00  0.00     0.118 A 
HETATM   16  F1  UNL     1      26.268   3.750  49.312  1.00  0.00    -0.206 F 
HETATM   17  C9  UNL     1      25.724   5.964  49.955  1.00  0.00     0.043 A 
HETATM   18  C10 UNL     1      25.880   7.323  49.904  1.00  0.00     0.020 A 
HETATM   19  C13 UNL     1      31.147   6.757  47.365  1.00  0.00     0.125 A 
HETATM   20  C15 UNL     1      30.399   8.554  48.745  1.00  0.00     0.069 A 
HETATM   21  N3  UNL     1      32.139   6.636  48.157  1.00  0.00    -0.256 NA
HETATM   22  C14 UNL     1      32.348   7.471  49.289  1.00  0.00     0.232 A 
HETATM   23  N4  UNL     1      31.518   8.441  49.622  1.00  0.00    -0.244 NA
HETATM   24  C16 UNL     1      29.757   9.544  49.423  1.00  0.00     0.071 C 
ENDBRANCH   3   4
TORSDOF 1
ENDMDL
MODEL 8
REMARK VINA RESULT:      -6.7      3.474      5.401
REMARK  1 active torsions:
REMARK  status: ('A' for Active; 'I' for Inactive)
REMARK    1  A    between atoms: O1_3  and  C2_4 
ROOT
HETATM    1  N1  UNL     1      17.540   3.679  52.091  1.00  0.00    -0.164 NA
HETATM    2  C1  UNL     1      18.337   3.914  51.284  1.00  0.00     0.234 C 
HETATM    3  O1  UNL     1      19.270   4.206  50.358  1.00  0.00    -0.238 OA
ENDROOT
BRANCH   3   4
HETATM    4  C2  UNL     1      20.605   4.210  50.595  1.00  0.00     0.125 C 
HETATM    5  C3  UNL     1      20.989   2.881  50.634  1.00  0.00     0.116 C 
HETATM    6  O2  UNL     1      20.171   2.508  49.467  1.00  0.00    -0.345 OA
HETATM    7  C11 UNL     1      21.921   2.078  51.515  1.00  0.00     0.029 A 
HETATM    8  C4  UNL     1      20.770   1.996  48.207  1.00  0.00     0.204 C 
HETATM    9  C5  UNL     1      22.247   1.863  48.230  1.00  0.00     0.228 C 
HETATM   10  O3  UNL     1      23.119   2.847  48.503  1.00  0.00    -0.275 OA
HETATM   11  N2  UNL     1      23.424   3.136  49.837  1.00  0.00    -0.242 N 
HETATM   12  C6  UNL     1      23.294   2.234  50.995  1.00  0.00     0.074 A 
HETATM   13  C12 UNL     1      23.703   4.540  49.569  1.00  0.00     0.207 A 
HETATM   14  C7  UNL     1      24.332   1.598  51.591  1.00  0.00     0.074 A 
HETATM   15  C8  UNL     1      23.985   0.837  52.676  1.00  0.00     0.118 A 
HETATM   16  F1  UNL     1      25.016   0.217  53.255  1.00  0.00    -0.206 F 
HETATM   17  C9  UNL     1      22.702   0.709  53.142  1.00  0.00     0.043 A 
HETATM   18  C10 UNL     1      21.609   1.320  52.588  1.00  0.00     0.020 A 
HETATM   19  C13 UNL     1      25.037   5.083  49.655  1.00  0.00     0.125 A 
HETATM   20  C15 UNL     1      22.801   5.452  50.400  1.00  0.00     0.069 A 
HETATM   21  N3  UNL     1      25.361   6.147  50.279  1.00  0.00    -0.256 NA
HETATM   22  C14 UNL     1      24.434   6.952  50.994  1.00  0.00     0.232 A 
HETATM   23  N4  UNL     1      23.150   6.655  51.082  1.00  0.00    -0.244 NA
HETATM   24  C16 UNL     1      21.491   5.429  50.770  1.00  0.00     0.071 C 
ENDBRANCH   3   4
TORSDOF 1
ENDMDL
MODEL 9
REMARK VINA RESULT:      -6.7      1.058      1.179
REMARK  1 active torsions:
REMARK  status: ('A' for Active; 'I' for Inactive)
REMARK    1  A    between atoms: O1_3  and  C2_4 
ROOT
HETATM    1  N1  UNL     1      25.107   1.666  53.325  1.00  0.00    -0.164 NA
HETATM    2  C1  UNL     1      24.604   1.879  52.305  1.00  0.00     0.234 C 
HETATM    3  O1  UNL     1      24.015   2.148  51.123  1.00  0.00    -0.238 OA
ENDROOT
BRANCH   3   4
HETATM    4  C2  UNL     1      24.454   3.086  50.249  1.00  0.00     0.125 C 
HETATM    5  C3  UNL     1      23.326   3.761  49.815  1.00  0.00     0.116 C 
HETATM    6  O2  UNL     1      22.732   3.832  51.161  1.00  0.00    -0.345 OA
HETATM    7  C11 UNL     1      22.855   4.274  48.473  1.00  0.00     0.029 A 
HETATM    8  C4  UNL     1      22.478   5.125  51.850  1.00  0.00     0.204 C 
HETATM    9  C5  UNL     1      22.839   6.330  51.064  1.00  0.00     0.228 C 
HETATM   10  O3  UNL     1      24.049   6.594  50.545  1.00  0.00    -0.275 OA
HETATM   11  N2  UNL     1      24.390   6.049  49.302  1.00  0.00    -0.242 N 
HETATM   12  C6  UNL     1      23.468   5.598  48.246  1.00  0.00     0.074 A 
HETATM   13  C12 UNL     1      25.814   6.002  49.607  1.00  0.00     0.207 A 
HETATM   14  C7  UNL     1      23.197   6.298  47.117  1.00  0.00     0.074 A 
HETATM   15  C8  UNL     1      22.337   5.671  46.252  1.00  0.00     0.118 A 
HETATM   16  F1  UNL     1      22.078   6.370  45.144  1.00  0.00    -0.206 F 
HETATM   17  C9  UNL     1      21.781   4.439  46.485  1.00  0.00     0.043 A 
HETATM   18  C10 UNL     1      22.010   3.682  47.601  1.00  0.00     0.020 A 
HETATM   19  C13 UNL     1      26.764   6.861  48.945  1.00  0.00     0.125 A 
HETATM   20  C15 UNL     1      26.356   4.577  49.498  1.00  0.00     0.069 A 
HETATM   21  N3  UNL     1      27.860   6.479  48.415  1.00  0.00    -0.256 NA
HETATM   22  C14 UNL     1      28.297   5.127  48.401  1.00  0.00     0.232 A 
HETATM   23  N4  UNL     1      27.591   4.144  48.929  1.00  0.00    -0.244 NA
HETATM   24  C16 UNL     1      25.893   3.344  49.841  1.00  0.00     0.071 C 
ENDBRANCH   3   4
TORSDOF 1
ENDMDL
