MODEL 1
REMARK VINA RESULT:      -7.5      0.000      0.000
REMARK  3 active torsions:
REMARK  status: ('A' for Active; 'I' for Inactive)
REMARK    1  A    between atoms: C5_5  and  C6_6 
REMARK    2  A    between atoms: C6_6  and  C7_7 
REMARK    3  A    between atoms: C7_7  and  C8_8 
ROOT
HETATM    1  C8  UNL     1      26.143   1.708  53.058  1.00  0.00     0.083 A 
HETATM    2  C9  UNL     1      25.065   2.845  53.281  1.00  0.00     0.067 A 
HETATM    3  C10 UNL     1      23.761   2.293  53.055  1.00  0.00    -0.024 A 
HETATM    4  C11 UNL     1      23.005   1.246  52.820  1.00  0.00    -0.003 A 
HETATM    5  C12 UNL     1      23.905   0.071  52.734  1.00  0.00     0.008 A 
HETATM    6  C13 UNL     1      25.149   0.467  52.867  1.00  0.00    -0.013 A 
HETATM    7  C14 UNL     1      26.155  -0.674  53.261  1.00  0.00     0.209 C 
HETATM    8  N1  UNL     1      26.337  -0.479  54.702  1.00  0.00    -0.269 NA
HETATM    9  C15 UNL     1      27.409   0.326  55.008  1.00  0.00     0.186 C 
HETATM   10  N2  UNL     1      26.685   1.277  54.263  1.00  0.00    -0.202 NA
HETATM   11  S1  UNL     1      27.571   0.349  52.824  1.00  0.00    -0.085 SA
ENDROOT
BRANCH   1  12
HETATM   12  C7  UNL     1      26.745   2.154  51.829  1.00  0.00     0.045 C 
BRANCH  12  13
HETATM   13  C6  UNL     1      26.382   1.989  50.434  1.00  0.00     0.044 C 
BRANCH  13  14
HETATM   14  C5  UNL     1      25.985   3.360  49.831  1.00  0.00    -0.019 A 
HETATM   15  C4  UNL     1      27.077   4.212  49.313  1.00  0.00     0.011 A 
HETATM   16  C3  UNL     1      26.509   5.316  48.855  1.00  0.00     0.014 A 
HETATM   17  C2  UNL     1      25.071   5.257  49.037  1.00  0.00    -0.006 A 
HETATM   18  C1  UNL     1      24.123   6.126  48.731  1.00  0.00     0.026 C 
HETATM   19  C16 UNL     1      24.829   3.970  49.669  1.00  0.00     0.132 A 
HETATM   20  F1  UNL     1      23.644   3.474  50.031  1.00  0.00    -0.205 F 
ENDBRANCH  13  14
ENDBRANCH  12  13
ENDBRANCH   1  12
TORSDOF 3
ENDMDL
MODEL 2
REMARK VINA RESULT:      -7.5      1.030      1.303
REMARK  3 active torsions:
REMARK  status: ('A' for Active; 'I' for Inactive)
REMARK    1  A    between atoms: C5_5  and  C6_6 
REMARK    2  A    between atoms: C6_6  and  C7_7 
REMARK    3  A    between atoms: C7_7  and  C8_8 
ROOT
HETATM    1  C8  UNL     1      25.025   1.435  52.754  1.00  0.00     0.083 A 
HETATM    2  C9  UNL     1      23.743   2.298  53.094  1.00  0.00     0.067 A 
HETATM    3  C10 UNL     1      22.620   1.419  53.234  1.00  0.00    -0.024 A 
HETATM    4  C11 UNL     1      22.146   0.196  53.293  1.00  0.00    -0.003 A 
HETATM    5  C12 UNL     1      23.296  -0.724  53.131  1.00  0.00     0.008 A 
HETATM    6  C13 UNL     1      24.387  -0.023  52.932  1.00  0.00    -0.013 A 
HETATM    7  C14 UNL     1      25.721  -0.807  53.205  1.00  0.00     0.209 C 
HETATM    8  N1  UNL     1      26.118  -0.341  54.537  1.00  0.00    -0.269 NA
HETATM    9  C15 UNL     1      26.970   0.738  54.500  1.00  0.00     0.186 C 
HETATM   10  N2  UNL     1      25.886   1.351  53.842  1.00  0.00    -0.202 NA
HETATM   11  S1  UNL     1      26.695   0.441  52.348  1.00  0.00    -0.085 SA
ENDROOT
BRANCH   1  12
HETATM   12  C7  UNL     1      25.235   1.805  51.379  1.00  0.00     0.045 C 
BRANCH  12  13
HETATM   13  C6  UNL     1      24.436   2.547  50.423  1.00  0.00     0.044 C 
BRANCH  13  14
HETATM   14  C5  UNL     1      25.291   3.672  49.787  1.00  0.00    -0.019 A 
HETATM   15  C4  UNL     1      26.706   3.361  49.492  1.00  0.00     0.011 A 
HETATM   16  C3  UNL     1      27.230   4.455  48.964  1.00  0.00     0.014 A 
HETATM   17  C2  UNL     1      26.234   5.505  48.884  1.00  0.00    -0.006 A 
HETATM   18  C1  UNL     1      26.316   6.745  48.431  1.00  0.00     0.026 C 
HETATM   19  C16 UNL     1      25.025   4.913  49.435  1.00  0.00     0.132 A 
HETATM   20  F1  UNL     1      23.839   5.510  49.568  1.00  0.00    -0.205 F 
ENDBRANCH  13  14
ENDBRANCH  12  13
ENDBRANCH   1  12
TORSDOF 3
ENDMDL
MODEL 3
REMARK VINA RESULT:      -7.4      3.320      5.497
REMARK  3 active torsions:
REMARK  status: ('A' for Active; 'I' for Inactive)
REMARK    1  A    between atoms: C5_5  and  C6_6 
REMARK    2  A    between atoms: C6_6  and  C7_7 
REMARK    3  A    between atoms: C7_7  and  C8_8 
ROOT
HETATM    1  C8  UNL     1      23.023   1.477  52.750  1.00  0.00     0.083 A 
HETATM    2  C9  UNL     1      23.339   3.004  52.475  1.00  0.00     0.067 A 
HETATM    3  C10 UNL     1      23.127   3.275  51.084  1.00  0.00    -0.024 A 
HETATM    4  C11 UNL     1      22.711   2.869  49.907  1.00  0.00    -0.003 A 
HETATM    5  C12 UNL     1      22.244   1.471  50.069  1.00  0.00     0.008 A 
HETATM    6  C13 UNL     1      22.446   1.088  51.307  1.00  0.00    -0.013 A 
HETATM    7  C14 UNL     1      21.600  -0.162  51.747  1.00  0.00     0.209 C 
HETATM    8  N1  UNL     1      20.498   0.431  52.510  1.00  0.00    -0.269 NA
HETATM    9  C15 UNL     1      20.756   0.506  53.859  1.00  0.00     0.186 C 
HETATM   10  N2  UNL     1      21.823   1.320  53.434  1.00  0.00    -0.202 NA
HETATM   11  S1  UNL     1      22.629  -0.416  53.202  1.00  0.00    -0.085 SA
ENDROOT
BRANCH   1  12
HETATM   12  C7  UNL     1      24.349   0.974  52.992  1.00  0.00     0.045 C 
BRANCH  12  13
HETATM   13  C6  UNL     1      25.635   1.621  53.171  1.00  0.00     0.044 C 
BRANCH  13  14
HETATM   14  C5  UNL     1      26.759   0.555  53.194  1.00  0.00    -0.019 A 
HETATM   15  C4  UNL     1      26.428  -0.788  52.671  1.00  0.00     0.011 A 
HETATM   16  C3  UNL     1      27.524  -1.520  52.790  1.00  0.00     0.014 A 
HETATM   17  C2  UNL     1      28.595  -0.735  53.373  1.00  0.00    -0.006 A 
HETATM   18  C1  UNL     1      29.844  -1.056  53.668  1.00  0.00     0.026 C 
HETATM   19  C16 UNL     1      28.013   0.579  53.598  1.00  0.00     0.132 A 
HETATM   20  F1  UNL     1      28.628   1.640  54.125  1.00  0.00    -0.205 F 
ENDBRANCH  13  14
ENDBRANCH  12  13
ENDBRANCH   1  12
TORSDOF 3
ENDMDL
MODEL 4
REMARK VINA RESULT:      -7.4      3.137      5.759
REMARK  3 active torsions:
REMARK  status: ('A' for Active; 'I' for Inactive)
REMARK    1  A    between atoms: C5_5  and  C6_6 
REMARK    2  A    between atoms: C6_6  and  C7_7 
REMARK    3  A    between atoms: C7_7  and  C8_8 
ROOT
HETATM    1  C8  UNL     1      23.050   1.341  51.915  1.00  0.00     0.083 A 
HETATM    2  C9  UNL     1      22.165   0.076  51.569  1.00  0.00     0.067 A 
HETATM    3  C10 UNL     1      20.806   0.351  51.933  1.00  0.00    -0.024 A 
HETATM    4  C11 UNL     1      19.904   1.204  52.359  1.00  0.00    -0.003 A 
HETATM    5  C12 UNL     1      20.598   2.495  52.583  1.00  0.00     0.008 A 
HETATM    6  C13 UNL     1      21.878   2.347  52.336  1.00  0.00    -0.013 A 
HETATM    7  C14 UNL     1      22.648   3.692  52.077  1.00  0.00     0.209 C 
HETATM    8  N1  UNL     1      22.759   3.740  50.616  1.00  0.00    -0.269 NA
HETATM    9  C15 UNL     1      23.927   3.188  50.145  1.00  0.00     0.186 C 
HETATM   10  N2  UNL     1      23.427   2.028  50.767  1.00  0.00    -0.202 NA
HETATM   11  S1  UNL     1      24.243   2.884  52.290  1.00  0.00    -0.085 SA
ENDROOT
BRANCH   1  12
HETATM   12  C7  UNL     1      23.803   0.838  53.034  1.00  0.00     0.045 C 
BRANCH  12  13
HETATM   13  C6  UNL     1      24.259  -0.489  53.402  1.00  0.00     0.044 C 
BRANCH  13  14
HETATM   14  C5  UNL     1      25.795  -0.477  53.607  1.00  0.00    -0.019 A 
HETATM   15  C4  UNL     1      26.329   0.413  54.660  1.00  0.00     0.011 A 
HETATM   16  C3  UNL     1      27.644   0.260  54.651  1.00  0.00     0.014 A 
HETATM   17  C2  UNL     1      28.034  -0.698  53.636  1.00  0.00    -0.006 A 
HETATM   18  C1  UNL     1      29.226  -1.149  53.282  1.00  0.00     0.026 C 
HETATM   19  C16 UNL     1      26.785  -1.116  53.018  1.00  0.00     0.132 A 
HETATM   20  F1  UNL     1      26.647  -1.994  52.024  1.00  0.00    -0.205 F 
ENDBRANCH  13  14
ENDBRANCH  12  13
ENDBRANCH   1  12
TORSDOF 3
ENDMDL
MODEL 5
REMARK VINA RESULT:      -7.4      1.385      1.973
REMARK  3 active torsions:
REMARK  status: ('A' for Active; 'I' for Inactive)
REMARK    1  A    between atoms: C5_5  and  C6_6 
REMARK    2  A    between atoms: C6_6  and  C7_7 
REMARK    3  A    between atoms: C7_7  and  C8_8 
ROOT
HETATM    1  C8  UNL     1      24.645   1.725  52.462  1.00  0.00     0.083 A 
HETATM    2  C9  UNL     1      23.297   2.489  52.784  1.00  0.00     0.067 A 
HETATM    3  C10 UNL     1      22.282   1.523  53.087  1.00  0.00    -0.024 A 
HETATM    4  C11 UNL     1      21.944   0.273  53.307  1.00  0.00    -0.003 A 
HETATM    5  C12 UNL     1      23.177  -0.540  53.175  1.00  0.00     0.008 A 
HETATM    6  C13 UNL     1      24.175   0.240  52.835  1.00  0.00    -0.013 A 
HETATM    7  C14 UNL     1      25.598  -0.370  53.109  1.00  0.00     0.209 C 
HETATM    8  N1  UNL     1      26.008   0.282  54.355  1.00  0.00    -0.269 NA
HETATM    9  C15 UNL     1      26.738   1.430  54.149  1.00  0.00     0.186 C 
HETATM   10  N2  UNL     1      25.563   1.853  53.497  1.00  0.00    -0.202 NA
HETATM   11  S1  UNL     1      26.389   0.864  52.063  1.00  0.00    -0.085 SA
ENDROOT
BRANCH   1  12
HETATM   12  C7  UNL     1      24.745   1.955  51.044  1.00  0.00     0.045 C 
BRANCH  12  13
HETATM   13  C6  UNL     1      24.139   2.929  50.156  1.00  0.00     0.044 C 
BRANCH  13  14
HETATM   14  C5  UNL     1      25.218   3.923  49.656  1.00  0.00    -0.019 A 
HETATM   15  C4  UNL     1      24.850   5.355  49.612  1.00  0.00     0.011 A 
HETATM   16  C3  UNL     1      25.911   6.003  49.159  1.00  0.00     0.014 A 
HETATM   17  C2  UNL     1      26.993   5.076  48.890  1.00  0.00    -0.006 A 
HETATM   18  C1  UNL     1      28.217   5.281  48.433  1.00  0.00     0.026 C 
HETATM   19  C16 UNL     1      26.457   3.769  49.237  1.00  0.00     0.132 A 
HETATM   20  F1  UNL     1      27.097   2.601  49.151  1.00  0.00    -0.205 F 
ENDBRANCH  13  14
ENDBRANCH  12  13
ENDBRANCH   1  12
TORSDOF 3
ENDMDL
MODEL 6
REMARK VINA RESULT:      -7.4      2.907      5.896
REMARK  3 active torsions:
REMARK  status: ('A' for Active; 'I' for Inactive)
REMARK    1  A    between atoms: C5_5  and  C6_6 
REMARK    2  A    between atoms: C6_6  and  C7_7 
REMARK    3  A    between atoms: C7_7  and  C8_8 
ROOT
HETATM    1  C8  UNL     1      24.013   3.384  51.594  1.00  0.00     0.083 A 
HETATM    2  C9  UNL     1      24.234   3.212  53.151  1.00  0.00     0.067 A 
HETATM    3  C10 UNL     1      25.395   2.398  53.365  1.00  0.00    -0.024 A 
HETATM    4  C11 UNL     1      26.437   1.771  52.872  1.00  0.00    -0.003 A 
HETATM    5  C12 UNL     1      26.421   1.985  51.405  1.00  0.00     0.008 A 
HETATM    6  C13 UNL     1      25.355   2.677  51.081  1.00  0.00    -0.013 A 
HETATM    7  C14 UNL     1      25.435   3.371  49.672  1.00  0.00     0.209 C 
HETATM    8  N1  UNL     1      25.773   4.759  50.000  1.00  0.00    -0.269 NA
HETATM    9  C15 UNL     1      24.667   5.566  50.135  1.00  0.00     0.186 C 
HETATM   10  N2  UNL     1      24.350   4.664  51.170  1.00  0.00    -0.202 NA
HETATM   11  S1  UNL     1      23.662   3.679  49.662  1.00  0.00    -0.085 SA
ENDROOT
BRANCH   1  12
HETATM   12  C7  UNL     1      22.834   2.580  51.405  1.00  0.00     0.045 C 
BRANCH  12  13
HETATM   13  C6  UNL     1      22.629   1.158  51.208  1.00  0.00     0.044 C 
BRANCH  13  14
HETATM   14  C5  UNL     1      22.410   0.465  52.577  1.00  0.00    -0.019 A 
HETATM   15  C4  UNL     1      21.145   0.755  53.286  1.00  0.00     0.011 A 
HETATM   16  C3  UNL     1      21.180   0.065  54.415  1.00  0.00     0.014 A 
HETATM   17  C2  UNL     1      22.416  -0.687  54.510  1.00  0.00    -0.006 A 
HETATM   18  C1  UNL     1      22.866  -1.500  55.451  1.00  0.00     0.026 C 
HETATM   19  C16 UNL     1      23.140  -0.368  53.289  1.00  0.00     0.132 A 
HETATM   20  F1  UNL     1      24.340  -0.830  52.935  1.00  0.00    -0.205 F 
ENDBRANCH  13  14
ENDBRANCH  12  13
ENDBRANCH   1  12
TORSDOF 3
ENDMDL
MODEL 7
REMARK VINA RESULT:      -7.3      3.049      4.203
REMARK  3 active torsions:
REMARK  status: ('A' for Active; 'I' for Inactive)
REMARK    1  A    between atoms: C5_5  and  C6_6 
REMARK    2  A    between atoms: C6_6  and  C7_7 
REMARK    3  A    between atoms: C7_7  and  C8_8 
ROOT
HETATM    1  C8  UNL     1      22.516   0.972  52.390  1.00  0.00     0.083 A 
HETATM    2  C9  UNL     1      23.519  -0.159  52.858  1.00  0.00     0.067 A 
HETATM    3  C10 UNL     1      23.015  -0.754  54.060  1.00  0.00    -0.024 A 
HETATM    4  C11 UNL     1      22.051  -0.866  54.944  1.00  0.00    -0.003 A 
HETATM    5  C12 UNL     1      20.968   0.057  54.526  1.00  0.00     0.008 A 
HETATM    6  C13 UNL     1      21.347   0.710  53.453  1.00  0.00    -0.013 A 
HETATM    7  C14 UNL     1      20.169   1.358  52.638  1.00  0.00     0.209 C 
HETATM    8  N1  UNL     1      19.969   0.417  51.532  1.00  0.00    -0.269 NA
HETATM    9  C15 UNL     1      20.690   0.745  50.407  1.00  0.00     0.186 C 
HETATM   10  N2  UNL     1      21.788   0.577  51.273  1.00  0.00    -0.202 NA
HETATM   11  S1  UNL     1      21.310   2.394  51.707  1.00  0.00    -0.085 SA
ENDROOT
BRANCH   1  12
HETATM   12  C7  UNL     1      23.295   2.148  52.673  1.00  0.00     0.045 C 
BRANCH  12  13
HETATM   13  C6  UNL     1      24.722   2.392  52.757  1.00  0.00     0.044 C 
BRANCH  13  14
HETATM   14  C5  UNL     1      25.203   3.133  51.483  1.00  0.00    -0.019 A 
HETATM   15  C4  UNL     1      26.325   2.529  50.733  1.00  0.00     0.011 A 
HETATM   16  C3  UNL     1      26.559   3.324  49.701  1.00  0.00     0.014 A 
HETATM   17  C2  UNL     1      25.644   4.449  49.712  1.00  0.00    -0.006 A 
HETATM   18  C1  UNL     1      25.520   5.473  48.885  1.00  0.00     0.026 C 
HETATM   19  C16 UNL     1      24.814   4.242  50.889  1.00  0.00     0.132 A 
HETATM   20  F1  UNL     1      23.824   5.031  51.310  1.00  0.00    -0.205 F 
ENDBRANCH  13  14
ENDBRANCH  12  13
ENDBRANCH   1  12
TORSDOF 3
ENDMDL
MODEL 8
REMARK VINA RESULT:      -7.1      3.552      5.594
REMARK  3 active torsions:
REMARK  status: ('A' for Active; 'I' for Inactive)
REMARK    1  A    between atoms: C5_5  and  C6_6 
REMARK    2  A    between atoms: C6_6  and  C7_7 
REMARK    3  A    between atoms: C7_7  and  C8_8 
ROOT
HETATM    1  C8  UNL     1      22.772   0.889  52.529  1.00  0.00     0.083 A 
HETATM    2  C9  UNL     1      23.402  -0.481  53.009  1.00  0.00     0.067 A 
HETATM    3  C10 UNL     1      22.630  -0.984  54.106  1.00  0.00    -0.024 A 
HETATM    4  C11 UNL     1      21.572  -0.888  54.878  1.00  0.00    -0.003 A 
HETATM    5  C12 UNL     1      20.808   0.299  54.423  1.00  0.00     0.008 A 
HETATM    6  C13 UNL     1      21.459   0.884  53.446  1.00  0.00    -0.013 A 
HETATM    7  C14 UNL     1      20.582   1.848  52.568  1.00  0.00     0.209 C 
HETATM    8  N1  UNL     1      20.285   1.042  51.380  1.00  0.00    -0.269 NA
HETATM    9  C15 UNL     1      21.190   1.228  50.361  1.00  0.00     0.186 C 
HETATM   10  N2  UNL     1      22.104   0.746  51.318  1.00  0.00    -0.202 NA
HETATM   11  S1  UNL     1      22.044   2.602  51.836  1.00  0.00    -0.085 SA
ENDROOT
BRANCH   1  12
HETATM   12  C7  UNL     1      23.780   1.814  52.976  1.00  0.00     0.045 C 
BRANCH  12  13
HETATM   13  C6  UNL     1      25.098   2.157  52.476  1.00  0.00     0.044 C 
BRANCH  13  14
HETATM   14  C5  UNL     1      26.143   1.151  53.023  1.00  0.00    -0.019 A 
HETATM   15  C4  UNL     1      26.403   1.171  54.479  1.00  0.00     0.011 A 
HETATM   16  C3  UNL     1      27.317   0.243  54.711  1.00  0.00     0.014 A 
HETATM   17  C2  UNL     1      27.696  -0.413  53.475  1.00  0.00    -0.006 A 
HETATM   18  C1  UNL     1      28.563  -1.385  53.239  1.00  0.00     0.026 C 
HETATM   19  C16 UNL     1      26.894   0.234  52.449  1.00  0.00     0.132 A 
HETATM   20  F1  UNL     1      26.905  -0.040  51.143  1.00  0.00    -0.205 F 
ENDBRANCH  13  14
ENDBRANCH  12  13
ENDBRANCH   1  12
TORSDOF 3
ENDMDL
MODEL 9
REMARK VINA RESULT:      -6.9      3.370      6.116
REMARK  3 active torsions:
REMARK  status: ('A' for Active; 'I' for Inactive)
REMARK    1  A    between atoms: C5_5  and  C6_6 
REMARK    2  A    between atoms: C6_6  and  C7_7 
REMARK    3  A    between atoms: C7_7  and  C8_8 
ROOT
HETATM    1  C8  UNL     1      24.120   2.584  52.096  1.00  0.00     0.083 A 
HETATM    2  C9  UNL     1      24.745   2.401  53.538  1.00  0.00     0.067 A 
HETATM    3  C10 UNL     1      26.138   2.093  53.402  1.00  0.00    -0.024 A 
HETATM    4  C11 UNL     1      27.193   1.961  52.632  1.00  0.00    -0.003 A 
HETATM    5  C12 UNL     1      26.759   2.256  51.245  1.00  0.00     0.008 A 
HETATM    6  C13 UNL     1      25.470   2.497  51.237  1.00  0.00    -0.013 A 
HETATM    7  C14 UNL     1      24.961   3.265  49.964  1.00  0.00     0.209 C 
HETATM    8  N1  UNL     1      24.833   4.648  50.434  1.00  0.00    -0.269 NA
HETATM    9  C15 UNL     1      23.572   4.945  50.897  1.00  0.00     0.186 C 
HETATM   10  N2  UNL     1      23.857   3.920  51.820  1.00  0.00    -0.202 NA
HETATM   11  S1  UNL     1      23.247   2.855  50.333  1.00  0.00    -0.085 SA
ENDROOT
BRANCH   1  12
HETATM   12  C7  UNL     1      23.309   1.398  52.008  1.00  0.00     0.045 C 
BRANCH  12  13
HETATM   13  C6  UNL     1      22.924   0.390  52.978  1.00  0.00     0.044 C 
BRANCH  13  14
HETATM   14  C5  UNL     1      21.421   0.051  52.813  1.00  0.00    -0.019 A 
HETATM   15  C4  UNL     1      20.731   0.601  51.626  1.00  0.00     0.011 A 
HETATM   16  C3  UNL     1      19.475   0.188  51.696  1.00  0.00     0.014 A 
HETATM   17  C2  UNL     1      19.275  -0.623  52.881  1.00  0.00    -0.006 A 
HETATM   18  C1  UNL     1      18.195  -1.232  53.343  1.00  0.00     0.026 C 
HETATM   19  C16 UNL     1      20.574  -0.654  53.534  1.00  0.00     0.132 A 
HETATM   20  F1  UNL     1      20.876  -1.284  54.671  1.00  0.00    -0.205 F 
ENDBRANCH  13  14
ENDBRANCH  12  13
ENDBRANCH   1  12
TORSDOF 3
ENDMDL
