MODEL 1
REMARK VINA RESULT:      -8.8      0.000      0.000
REMARK  2 active torsions:
REMARK  status: ('A' for Active; 'I' for Inactive)
REMARK    1  A    between atoms: C4_5  and  N1_6 
REMARK    2  A    between atoms: N1_6  and  N2_7 
ROOT
HETATM    1  N2  UNL     1      25.688   2.928  51.859  1.00  0.00    -0.272 N 
HETATM    2  C5  UNL     1      26.119   2.883  50.505  1.00  0.00     0.227 A 
HETATM    3  N3  UNL     1      25.202   3.351  49.729  1.00  0.00    -0.245 NA
HETATM    4  C6  UNL     1      24.052   3.761  50.509  1.00  0.00     0.063 A 
HETATM    5  C7  UNL     1      23.104   4.300  49.718  1.00  0.00     0.030 C 
HETATM    6  C8  UNL     1      21.625   4.313  49.823  1.00  0.00     0.008 C 
HETATM    7  C9  UNL     1      20.760   3.786  50.710  1.00  0.00    -0.045 C 
HETATM    8  C10 UNL     1      19.755   3.551  49.638  1.00  0.00     0.150 C 
HETATM    9  N4  UNL     1      19.806   2.166  49.202  1.00  0.00    -0.417 N 
HETATM   10  C11 UNL     1      19.830   1.192  50.236  1.00  0.00     0.120 C 
HETATM   11  C12 UNL     1      21.092   0.497  50.555  1.00  0.00     0.076 C 
HETATM   12  C13 UNL     1      22.062   1.276  51.367  1.00  0.00     0.008 A 
HETATM   13  C14 UNL     1      23.321   1.117  51.752  1.00  0.00     0.025 A 
HETATM   14  C15 UNL     1      23.443   2.369  52.512  1.00  0.00     0.140 A 
HETATM   15  C16 UNL     1      24.342   3.440  51.919  1.00  0.00     0.187 A 
HETATM   16  N5  UNL     1      22.095   2.532  52.082  1.00  0.00    -0.370 N 
HETATM   17  C17 UNL     1      21.028   3.574  52.193  1.00  0.00     0.159 C 
HETATM   18  H9  UNL     1      19.172   2.004  48.414  1.00  0.00     0.153 HD
ENDROOT
BRANCH   1  19
HETATM   19  N1  UNL     1      26.497   2.523  52.925  1.00  0.00    -0.297 N 
HETATM   20  H3  UNL     1      26.332   3.222  53.685  1.00  0.00     0.187 HD
BRANCH  19  21
HETATM   21  C4  UNL     1      27.397   1.474  53.162  1.00  0.00     0.050 A 
HETATM   22  C3  UNL     1      28.651   1.670  53.726  1.00  0.00     0.034 A 
HETATM   23  C2  UNL     1      29.499   0.580  53.936  1.00  0.00     0.046 A 
HETATM   24  C1  UNL     1      29.084  -0.673  53.584  1.00  0.00     0.138 A 
HETATM   25  F1  UNL     1      29.973  -1.681  53.823  1.00  0.00    -0.204 F 
HETATM   26  C19 UNL     1      27.842  -0.898  53.021  1.00  0.00     0.074 A 
HETATM   27  C18 UNL     1      27.002   0.197  52.816  1.00  0.00     0.057 A 
HETATM   28 CL1  UNL     1      27.376  -2.549  52.591  1.00  0.00    -0.081 Cl
ENDBRANCH  19  21
ENDBRANCH   1  19
TORSDOF 2
ENDMDL
MODEL 2
REMARK VINA RESULT:      -8.8      1.766      2.933
REMARK  2 active torsions:
REMARK  status: ('A' for Active; 'I' for Inactive)
REMARK    1  A    between atoms: C4_5  and  N1_6 
REMARK    2  A    between atoms: N1_6  and  N2_7 
ROOT
HETATM    1  N2  UNL     1      24.215   1.021  52.677  1.00  0.00    -0.272 N 
HETATM    2  C5  UNL     1      22.927   0.438  52.819  1.00  0.00     0.227 A 
HETATM    3  N3  UNL     1      22.205   0.694  51.782  1.00  0.00    -0.245 NA
HETATM    4  C6  UNL     1      22.959   1.488  50.834  1.00  0.00     0.063 A 
HETATM    5  C7  UNL     1      22.235   1.722  49.722  1.00  0.00     0.030 C 
HETATM    6  C8  UNL     1      22.217   2.869  48.782  1.00  0.00     0.008 C 
HETATM    7  C9  UNL     1      22.887   4.037  48.742  1.00  0.00    -0.045 C 
HETATM    8  C10 UNL     1      21.710   4.727  48.147  1.00  0.00     0.150 C 
HETATM    9  N4  UNL     1      20.977   5.440  49.179  1.00  0.00    -0.417 N 
HETATM   10  C11 UNL     1      21.760   6.228  50.063  1.00  0.00     0.120 C 
HETATM   11  C12 UNL     1      22.017   5.750  51.436  1.00  0.00     0.076 C 
HETATM   12  C13 UNL     1      23.062   4.702  51.562  1.00  0.00     0.008 A 
HETATM   13  C14 UNL     1      23.503   3.914  52.533  1.00  0.00     0.025 A 
HETATM   14  C15 UNL     1      24.535   3.217  51.752  1.00  0.00     0.140 A 
HETATM   15  C16 UNL     1      24.278   1.754  51.438  1.00  0.00     0.187 A 
HETATM   16  N5  UNL     1      24.043   4.061  50.716  1.00  0.00    -0.370 N 
HETATM   17  C17 UNL     1      24.300   4.268  49.257  1.00  0.00     0.159 C 
HETATM   18  H9  UNL     1      20.122   5.860  48.802  1.00  0.00     0.153 HD
ENDROOT
BRANCH   1  19
HETATM   19  N1  UNL     1      25.225   0.869  53.632  1.00  0.00    -0.297 N 
HETATM   20  H3  UNL     1      24.749   0.946  54.560  1.00  0.00     0.187 HD
BRANCH  19  21
HETATM   21  C4  UNL     1      26.610   0.655  53.604  1.00  0.00     0.050 A 
HETATM   22  C3  UNL     1      27.534   1.681  53.759  1.00  0.00     0.034 A 
HETATM   23  C2  UNL     1      28.902   1.399  53.722  1.00  0.00     0.046 A 
HETATM   24  C1  UNL     1      29.319   0.111  53.534  1.00  0.00     0.138 A 
HETATM   25  F1  UNL     1      30.670  -0.077  53.511  1.00  0.00    -0.204 F 
HETATM   26  C19 UNL     1      28.423  -0.929  53.377  1.00  0.00     0.074 A 
HETATM   27  C18 UNL     1      27.059  -0.637  53.416  1.00  0.00     0.057 A 
HETATM   28 CL1  UNL     1      29.039  -2.569  53.137  1.00  0.00    -0.081 Cl
ENDBRANCH  19  21
ENDBRANCH   1  19
TORSDOF 2
ENDMDL
MODEL 3
REMARK VINA RESULT:      -8.8      2.474      3.968
REMARK  2 active torsions:
REMARK  status: ('A' for Active; 'I' for Inactive)
REMARK    1  A    between atoms: C4_5  and  N1_6 
REMARK    2  A    between atoms: N1_6  and  N2_7 
ROOT
HETATM    1  N2  UNL     1      23.480  -0.723  53.745  1.00  0.00    -0.272 N 
HETATM    2  C5  UNL     1      22.818  -0.723  55.003  1.00  0.00     0.227 A 
HETATM    3  N3  UNL     1      21.540  -0.678  54.835  1.00  0.00    -0.245 NA
HETATM    4  C6  UNL     1      21.225  -0.643  53.422  1.00  0.00     0.063 A 
HETATM    5  C7  UNL     1      19.892  -0.646  53.229  1.00  0.00     0.030 C 
HETATM    6  C8  UNL     1      19.050  -0.044  52.166  1.00  0.00     0.008 C 
HETATM    7  C9  UNL     1      19.331   0.703  51.082  1.00  0.00    -0.045 C 
HETATM    8  C10 UNL     1      18.052   1.450  51.228  1.00  0.00     0.150 C 
HETATM    9  N4  UNL     1      18.290   2.721  51.889  1.00  0.00    -0.417 N 
HETATM   10  C11 UNL     1      19.384   3.481  51.397  1.00  0.00     0.120 C 
HETATM   11  C12 UNL     1      20.639   3.542  52.170  1.00  0.00     0.076 C 
HETATM   12  C13 UNL     1      21.514   2.346  52.060  1.00  0.00     0.008 A 
HETATM   13  C14 UNL     1      22.616   1.918  52.663  1.00  0.00     0.025 A 
HETATM   14  C15 UNL     1      22.759   0.660  51.916  1.00  0.00     0.140 A 
HETATM   15  C16 UNL     1      22.504  -0.622  52.689  1.00  0.00     0.187 A 
HETATM   16  N5  UNL     1      21.570   1.127  51.286  1.00  0.00    -0.370 N 
HETATM   17  C17 UNL     1      20.607   0.627  50.257  1.00  0.00     0.159 C 
HETATM   18  H9  UNL     1      17.411   3.217  52.064  1.00  0.00     0.153 HD
ENDROOT
BRANCH   1  19
HETATM   19  N1  UNL     1      24.870  -0.811  53.620  1.00  0.00    -0.297 N 
HETATM   20  H3  UNL     1      25.076  -1.826  53.477  1.00  0.00     0.187 HD
BRANCH  19  21
HETATM   21  C4  UNL     1      25.939   0.095  53.645  1.00  0.00     0.050 A 
HETATM   22  C3  UNL     1      25.761   1.468  53.756  1.00  0.00     0.034 A 
HETATM   23  C2  UNL     1      26.872   2.316  53.776  1.00  0.00     0.046 A 
HETATM   24  C1  UNL     1      28.127   1.783  53.684  1.00  0.00     0.138 A 
HETATM   25  F1  UNL     1      29.155   2.680  53.711  1.00  0.00    -0.204 F 
HETATM   26  C19 UNL     1      28.334   0.421  53.573  1.00  0.00     0.074 A 
HETATM   27  C18 UNL     1      27.219  -0.416  53.555  1.00  0.00     0.057 A 
HETATM   28 CL1  UNL     1      29.988  -0.192  53.459  1.00  0.00    -0.081 Cl
ENDBRANCH  19  21
ENDBRANCH   1  19
TORSDOF 2
ENDMDL
MODEL 4
REMARK VINA RESULT:      -8.8      2.078      3.355
REMARK  2 active torsions:
REMARK  status: ('A' for Active; 'I' for Inactive)
REMARK    1  A    between atoms: C4_5  and  N1_6 
REMARK    2  A    between atoms: N1_6  and  N2_7 
ROOT
HETATM    1  N2  UNL     1      24.038   0.635  52.779  1.00  0.00    -0.272 N 
HETATM    2  C5  UNL     1      22.674   0.272  52.947  1.00  0.00     0.227 A 
HETATM    3  N3  UNL     1      21.982   0.652  51.927  1.00  0.00    -0.245 NA
HETATM    4  C6  UNL     1      22.837   1.316  50.966  1.00  0.00     0.063 A 
HETATM    5  C7  UNL     1      22.139   1.674  49.871  1.00  0.00     0.030 C 
HETATM    6  C8  UNL     1      22.291   2.815  48.935  1.00  0.00     0.008 C 
HETATM    7  C9  UNL     1      23.144   3.856  48.884  1.00  0.00    -0.045 C 
HETATM    8  C10 UNL     1      22.085   4.735  48.318  1.00  0.00     0.150 C 
HETATM    9  N4  UNL     1      21.502   5.552  49.368  1.00  0.00    -0.417 N 
HETATM   10  C11 UNL     1      22.424   6.194  50.237  1.00  0.00     0.120 C 
HETATM   11  C12 UNL     1      22.627   5.671  51.602  1.00  0.00     0.076 C 
HETATM   12  C13 UNL     1      23.487   4.464  51.701  1.00  0.00     0.008 A 
HETATM   13  C14 UNL     1      23.812   3.607  52.660  1.00  0.00     0.025 A 
HETATM   14  C15 UNL     1      24.697   2.754  51.854  1.00  0.00     0.140 A 
HETATM   15  C16 UNL     1      24.194   1.356  51.541  1.00  0.00     0.187 A 
HETATM   16  N5  UNL     1      24.330   3.675  50.832  1.00  0.00    -0.370 N 
HETATM   17  C17 UNL     1      24.586   3.847  49.369  1.00  0.00     0.159 C 
HETATM   18  H9  UNL     1      20.722   6.111  49.010  1.00  0.00     0.153 HD
ENDROOT
BRANCH   1  19
HETATM   19  N1  UNL     1      25.028   0.312  53.711  1.00  0.00    -0.297 N 
HETATM   20  H3  UNL     1      24.537   0.243  54.631  1.00  0.00     0.187 HD
BRANCH  19  21
HETATM   21  C4  UNL     1      26.411   0.082  53.669  1.00  0.00     0.050 A 
HETATM   22  C3  UNL     1      26.964  -1.095  53.182  1.00  0.00     0.034 A 
HETATM   23  C2  UNL     1      28.352  -1.260  53.168  1.00  0.00     0.046 A 
HETATM   24  C1  UNL     1      29.153  -0.256  53.635  1.00  0.00     0.138 A 
HETATM   25  F1  UNL     1      30.495  -0.498  53.585  1.00  0.00    -0.204 F 
HETATM   26  C19 UNL     1      28.631   0.925  54.125  1.00  0.00     0.074 A 
HETATM   27  C18 UNL     1      27.244   1.080  54.135  1.00  0.00     0.057 A 
HETATM   28 CL1  UNL     1      29.733   2.177  54.713  1.00  0.00    -0.081 Cl
ENDBRANCH  19  21
ENDBRANCH   1  19
TORSDOF 2
ENDMDL
MODEL 5
REMARK VINA RESULT:      -8.2      1.930      2.494
REMARK  2 active torsions:
REMARK  status: ('A' for Active; 'I' for Inactive)
REMARK    1  A    between atoms: C4_5  and  N1_6 
REMARK    2  A    between atoms: N1_6  and  N2_7 
ROOT
HETATM    1  N2  UNL     1      25.793   3.422  51.048  1.00  0.00    -0.272 N 
HETATM    2  C5  UNL     1      26.765   3.477  50.013  1.00  0.00     0.227 A 
HETATM    3  N3  UNL     1      26.422   4.346  49.124  1.00  0.00    -0.245 NA
HETATM    4  C6  UNL     1      25.164   4.962  49.491  1.00  0.00     0.063 A 
HETATM    5  C7  UNL     1      24.816   5.909  48.598  1.00  0.00     0.030 C 
HETATM    6  C8  UNL     1      23.490   6.381  48.131  1.00  0.00     0.008 C 
HETATM    7  C9  UNL     1      22.227   6.016  48.423  1.00  0.00    -0.045 C 
HETATM    8  C10 UNL     1      21.788   6.311  47.031  1.00  0.00     0.150 C 
HETATM    9  N4  UNL     1      21.727   5.083  46.257  1.00  0.00    -0.417 N 
HETATM   10  C11 UNL     1      21.072   3.989  46.881  1.00  0.00     0.120 C 
HETATM   11  C12 UNL     1      21.871   2.878  47.435  1.00  0.00     0.076 C 
HETATM   12  C13 UNL     1      22.515   3.146  48.746  1.00  0.00     0.008 A 
HETATM   13  C14 UNL     1      23.398   2.523  49.515  1.00  0.00     0.025 A 
HETATM   14  C15 UNL     1      23.433   3.515  50.599  1.00  0.00     0.140 A 
HETATM   15  C16 UNL     1      24.712   4.323  50.740  1.00  0.00     0.187 A 
HETATM   16  N5  UNL     1      22.495   4.178  49.758  1.00  0.00    -0.370 N 
HETATM   17  C17 UNL     1      21.746   5.472  49.760  1.00  0.00     0.159 C 
HETATM   18  H9  UNL     1      21.498   5.275  45.278  1.00  0.00     0.153 HD
ENDROOT
BRANCH   1  19
HETATM   19  N1  UNL     1      25.926   2.597  52.169  1.00  0.00    -0.297 N 
HETATM   20  H3  UNL     1      25.090   2.794  52.764  1.00  0.00     0.187 HD
BRANCH  19  21
HETATM   21  C4  UNL     1      26.860   1.651  52.615  1.00  0.00     0.050 A 
HETATM   22  C3  UNL     1      28.031   2.002  53.276  1.00  0.00     0.034 A 
HETATM   23  C2  UNL     1      28.919   1.009  53.696  1.00  0.00     0.046 A 
HETATM   24  C1  UNL     1      28.627  -0.303  53.451  1.00  0.00     0.138 A 
HETATM   25  F1  UNL     1      29.547  -1.208  53.894  1.00  0.00    -0.204 F 
HETATM   26  C19 UNL     1      27.470  -0.682  52.796  1.00  0.00     0.074 A 
HETATM   27  C18 UNL     1      26.589   0.318  52.382  1.00  0.00     0.057 A 
HETATM   28 CL1  UNL     1      27.161  -2.400  52.516  1.00  0.00    -0.081 Cl
ENDBRANCH  19  21
ENDBRANCH   1  19
TORSDOF 2
ENDMDL
MODEL 6
REMARK VINA RESULT:      -8.1      2.082      3.602
REMARK  2 active torsions:
REMARK  status: ('A' for Active; 'I' for Inactive)
REMARK    1  A    between atoms: C4_5  and  N1_6 
REMARK    2  A    between atoms: N1_6  and  N2_7 
ROOT
HETATM    1  N2  UNL     1      24.533   2.294  52.081  1.00  0.00    -0.272 N 
HETATM    2  C5  UNL     1      24.460   3.163  53.204  1.00  0.00     0.227 A 
HETATM    3  N3  UNL     1      23.678   4.156  52.950  1.00  0.00    -0.245 NA
HETATM    4  C6  UNL     1      23.146   4.040  51.609  1.00  0.00     0.063 A 
HETATM    5  C7  UNL     1      22.288   5.045  51.346  1.00  0.00     0.030 C 
HETATM    6  C8  UNL     1      21.955   5.751  50.085  1.00  0.00     0.008 C 
HETATM    7  C9  UNL     1      22.404   5.639  48.820  1.00  0.00    -0.045 C 
HETATM    8  C10 UNL     1      22.232   7.100  48.597  1.00  0.00     0.150 C 
HETATM    9  N4  UNL     1      23.505   7.782  48.753  1.00  0.00    -0.417 N 
HETATM   10  C11 UNL     1      24.610   7.192  48.083  1.00  0.00     0.120 C 
HETATM   11  C12 UNL     1      25.616   6.438  48.857  1.00  0.00     0.076 C 
HETATM   12  C13 UNL     1      25.216   5.064  49.255  1.00  0.00     0.008 A 
HETATM   13  C14 UNL     1      25.717   4.120  50.042  1.00  0.00     0.025 A 
HETATM   14  C15 UNL     1      24.661   3.120  49.827  1.00  0.00     0.140 A 
HETATM   15  C16 UNL     1      23.744   2.836  51.003  1.00  0.00     0.187 A 
HETATM   16  N5  UNL     1      24.130   4.146  48.995  1.00  0.00    -0.370 N 
HETATM   17  C17 UNL     1      22.904   4.359  48.166  1.00  0.00     0.159 C 
HETATM   18  H9  UNL     1      23.392   8.797  48.675  1.00  0.00     0.153 HD
ENDROOT
BRANCH   1  19
HETATM   19  N1  UNL     1      25.274   1.109  52.086  1.00  0.00    -0.297 N 
HETATM   20  H3  UNL     1      24.670   0.398  51.616  1.00  0.00     0.187 HD
BRANCH  19  21
HETATM   21  C4  UNL     1      26.539   0.717  52.547  1.00  0.00     0.050 A 
HETATM   22  C3  UNL     1      27.491   1.624  52.998  1.00  0.00     0.034 A 
HETATM   23  C2  UNL     1      28.732   1.166  53.445  1.00  0.00     0.046 A 
HETATM   24  C1  UNL     1      28.999  -0.174  53.435  1.00  0.00     0.138 A 
HETATM   25  F1  UNL     1      30.235  -0.535  53.888  1.00  0.00    -0.204 F 
HETATM   26  C19 UNL     1      28.072  -1.098  52.992  1.00  0.00     0.074 A 
HETATM   27  C18 UNL     1      26.835  -0.631  52.548  1.00  0.00     0.057 A 
HETATM   28 CL1  UNL     1      28.492  -2.816  53.009  1.00  0.00    -0.081 Cl
ENDBRANCH  19  21
ENDBRANCH   1  19
TORSDOF 2
ENDMDL
MODEL 7
REMARK VINA RESULT:      -8.0      1.366      2.416
REMARK  2 active torsions:
REMARK  status: ('A' for Active; 'I' for Inactive)
REMARK    1  A    between atoms: C4_5  and  N1_6 
REMARK    2  A    between atoms: N1_6  and  N2_7 
ROOT
HETATM    1  N2  UNL     1      24.457   3.239  52.038  1.00  0.00    -0.272 N 
HETATM    2  C5  UNL     1      23.944   4.474  52.520  1.00  0.00     0.227 A 
HETATM    3  N3  UNL     1      22.655   4.454  52.516  1.00  0.00    -0.245 NA
HETATM    4  C6  UNL     1      22.179   3.178  52.022  1.00  0.00     0.063 A 
HETATM    5  C7  UNL     1      20.833   3.123  52.058  1.00  0.00     0.030 C 
HETATM    6  C8  UNL     1      19.853   2.422  51.194  1.00  0.00     0.008 C 
HETATM    7  C9  UNL     1      19.979   1.645  50.101  1.00  0.00    -0.045 C 
HETATM    8  C10 UNL     1      18.698   2.163  49.548  1.00  0.00     0.150 C 
HETATM    9  N4  UNL     1      18.963   3.201  48.567  1.00  0.00    -0.417 N 
HETATM   10  C11 UNL     1      19.963   2.904  47.604  1.00  0.00     0.120 C 
HETATM   11  C12 UNL     1      21.296   3.528  47.718  1.00  0.00     0.076 C 
HETATM   12  C13 UNL     1      22.197   2.925  48.734  1.00  0.00     0.008 A 
HETATM   13  C14 UNL     1      23.376   3.233  49.259  1.00  0.00     0.025 A 
HETATM   14  C15 UNL     1      23.480   2.084  50.170  1.00  0.00     0.140 A 
HETATM   15  C16 UNL     1      23.364   2.381  51.655  1.00  0.00     0.187 A 
HETATM   16  N5  UNL     1      22.210   1.773  49.606  1.00  0.00    -0.370 N 
HETATM   17  C17 UNL     1      21.155   0.729  49.793  1.00  0.00     0.159 C 
HETATM   18  H9  UNL     1      18.091   3.621  48.229  1.00  0.00     0.153 HD
ENDROOT
BRANCH   1  19
HETATM   19  N1  UNL     1      25.826   2.960  51.973  1.00  0.00    -0.297 N 
HETATM   20  H3  UNL     1      26.241   3.725  51.394  1.00  0.00     0.187 HD
BRANCH  19  21
HETATM   21  C4  UNL     1      26.673   1.963  52.476  1.00  0.00     0.050 A 
HETATM   22  C3  UNL     1      27.788   2.245  53.256  1.00  0.00     0.034 A 
HETATM   23  C2  UNL     1      28.591   1.203  53.727  1.00  0.00     0.046 A 
HETATM   24  C1  UNL     1      28.271  -0.088  53.414  1.00  0.00     0.138 A 
HETATM   25  F1  UNL     1      29.107  -1.043  53.914  1.00  0.00    -0.204 F 
HETATM   26  C19 UNL     1      27.168  -0.398  52.640  1.00  0.00     0.074 A 
HETATM   27  C18 UNL     1      26.373   0.650  52.175  1.00  0.00     0.057 A 
HETATM   28 CL1  UNL     1      26.819  -2.093  52.277  1.00  0.00    -0.081 Cl
ENDBRANCH  19  21
ENDBRANCH   1  19
TORSDOF 2
ENDMDL
MODEL 8
REMARK VINA RESULT:      -8.0      1.494      2.870
REMARK  2 active torsions:
REMARK  status: ('A' for Active; 'I' for Inactive)
REMARK    1  A    between atoms: C4_5  and  N1_6 
REMARK    2  A    between atoms: N1_6  and  N2_7 
ROOT
HETATM    1  N2  UNL     1      24.118   1.138  52.242  1.00  0.00    -0.272 N 
HETATM    2  C5  UNL     1      23.507   0.899  53.504  1.00  0.00     0.227 A 
HETATM    3  N3  UNL     1      22.262   0.604  53.348  1.00  0.00    -0.245 NA
HETATM    4  C6  UNL     1      21.919   0.618  51.941  1.00  0.00     0.063 A 
HETATM    5  C7  UNL     1      20.633   0.262  51.758  1.00  0.00     0.030 C 
HETATM    6  C8  UNL     1      19.637   0.662  50.734  1.00  0.00     0.008 C 
HETATM    7  C9  UNL     1      19.682   1.507  49.687  1.00  0.00    -0.045 C 
HETATM    8  C10 UNL     1      18.252   1.871  49.881  1.00  0.00     0.150 C 
HETATM    9  N4  UNL     1      18.151   3.127  50.604  1.00  0.00    -0.417 N 
HETATM   10  C11 UNL     1      18.987   4.177  50.142  1.00  0.00     0.120 C 
HETATM   11  C12 UNL     1      20.195   4.540  50.908  1.00  0.00     0.076 C 
HETATM   12  C13 UNL     1      21.359   3.634  50.731  1.00  0.00     0.008 A 
HETATM   13  C14 UNL     1      22.548   3.493  51.302  1.00  0.00     0.025 A 
HETATM   14  C15 UNL     1      23.010   2.357  50.491  1.00  0.00     0.140 A 
HETATM   15  C16 UNL     1      23.129   1.020  51.201  1.00  0.00     0.187 A 
HETATM   16  N5  UNL     1      21.727   2.512  49.895  1.00  0.00    -0.370 N 
HETATM   17  C17 UNL     1      20.913   1.819  48.849  1.00  0.00     0.159 C 
HETATM   18  H9  UNL     1      17.174   3.356  50.811  1.00  0.00     0.153 HD
ENDROOT
BRANCH   1  19
HETATM   19  N1  UNL     1      25.476   1.437  52.102  1.00  0.00    -0.297 N 
HETATM   20  H3  UNL     1      25.517   2.268  51.469  1.00  0.00     0.187 HD
BRANCH  19  21
HETATM   21  C4  UNL     1      26.678   0.904  52.590  1.00  0.00     0.050 A 
HETATM   22  C3  UNL     1      27.686   1.691  53.132  1.00  0.00     0.034 A 
HETATM   23  C2  UNL     1      28.859   1.095  53.602  1.00  0.00     0.046 A 
HETATM   24  C1  UNL     1      29.004  -0.262  53.522  1.00  0.00     0.138 A 
HETATM   25  F1  UNL     1      30.179  -0.762  54.002  1.00  0.00    -0.204 F 
HETATM   26  C19 UNL     1      28.018  -1.069  52.987  1.00  0.00     0.074 A 
HETATM   27  C18 UNL     1      26.850  -0.464  52.522  1.00  0.00     0.057 A 
HETATM   28 CL1  UNL     1      28.279  -2.817  52.917  1.00  0.00    -0.081 Cl
ENDBRANCH  19  21
ENDBRANCH   1  19
TORSDOF 2
ENDMDL
MODEL 9
REMARK VINA RESULT:      -7.8      3.986      6.438
REMARK  2 active torsions:
REMARK  status: ('A' for Active; 'I' for Inactive)
REMARK    1  A    between atoms: C4_5  and  N1_6 
REMARK    2  A    between atoms: N1_6  and  N2_7 
ROOT
HETATM    1  N2  UNL     1      23.519   4.193  49.130  1.00  0.00    -0.272 N 
HETATM    2  C5  UNL     1      23.051   3.147  48.289  1.00  0.00     0.227 A 
HETATM    3  N3  UNL     1      22.717   2.122  48.997  1.00  0.00    -0.245 NA
HETATM    4  C6  UNL     1      22.934   2.394  50.402  1.00  0.00     0.063 A 
HETATM    5  C7  UNL     1      22.542   1.351  51.158  1.00  0.00     0.030 C 
HETATM    6  C8  UNL     1      23.044   0.831  52.454  1.00  0.00     0.008 C 
HETATM    7  C9  UNL     1      24.045   1.208  53.272  1.00  0.00    -0.045 C 
HETATM    8  C10 UNL     1      24.295  -0.206  53.666  1.00  0.00     0.150 C 
HETATM    9  N4  UNL     1      25.414  -0.743  52.911  1.00  0.00    -0.417 N 
HETATM   10  C11 UNL     1      26.568   0.082  52.841  1.00  0.00     0.120 C 
HETATM   11  C12 UNL     1      26.871   0.813  51.595  1.00  0.00     0.076 C 
HETATM   12  C13 UNL     1      26.068   2.041  51.365  1.00  0.00     0.008 A 
HETATM   13  C14 UNL     1      25.904   2.894  50.362  1.00  0.00     0.025 A 
HETATM   14  C15 UNL     1      24.937   3.779  51.027  1.00  0.00     0.140 A 
HETATM   15  C16 UNL     1      23.513   3.747  50.501  1.00  0.00     0.187 A 
HETATM   16  N5  UNL     1      25.114   2.850  52.091  1.00  0.00    -0.370 N 
HETATM   17  C17 UNL     1      24.551   2.630  53.459  1.00  0.00     0.159 C 
HETATM   18  H9  UNL     1      25.555  -1.736  53.115  1.00  0.00     0.153 HD
ENDROOT
BRANCH   1  19
HETATM   19  N1  UNL     1      23.909   5.443  48.639  1.00  0.00    -0.297 N 
HETATM   20  H3  UNL     1      23.289   5.628  47.819  1.00  0.00     0.187 HD
BRANCH  19  21
HETATM   21  C4  UNL     1      24.868   6.404  48.988  1.00  0.00     0.050 A 
HETATM   22  C3  UNL     1      24.577   7.505  49.783  1.00  0.00     0.034 A 
HETATM   23  C2  UNL     1      25.580   8.426  50.095  1.00  0.00     0.046 A 
HETATM   24  C1  UNL     1      26.844   8.233  49.611  1.00  0.00     0.138 A 
HETATM   25  F1  UNL     1      27.763   9.179  49.963  1.00  0.00    -0.204 F 
HETATM   26  C19 UNL     1      27.163   7.147  48.818  1.00  0.00     0.074 A 
HETATM   27  C18 UNL     1      26.154   6.234  48.514  1.00  0.00     0.057 A 
HETATM   28 CL1  UNL     1      28.820   6.967  48.230  1.00  0.00    -0.081 Cl
ENDBRANCH  19  21
ENDBRANCH   1  19
TORSDOF 2
ENDMDL
