MODEL 1
REMARK VINA RESULT:      -8.5      0.000      0.000
REMARK  4 active torsions:
REMARK  status: ('A' for Active; 'I' for Inactive)
REMARK    1  A    between atoms: C7_8  and  N1_9 
REMARK    2  A    between atoms: N1_9  and  C8_10 
REMARK    3  A    between atoms: C11_14  and  C12_15 
REMARK    4  A    between atoms: C17_20  and  N2_21 
ROOT
HETATM    1  C8  UNL     1      23.745   0.972  52.201  1.00  0.00     0.194 A 
HETATM    2  C9  UNL     1      25.010   1.696  52.370  1.00  0.00     0.185 A 
HETATM    3  O1  UNL     1      25.331   2.935  52.249  1.00  0.00    -0.290 OA
HETATM    4  C10 UNL     1      24.996   0.211  52.597  1.00  0.00     0.021 A 
HETATM    5  C11 UNL     1      26.029  -0.525  52.945  1.00  0.00     0.027 C 
ENDROOT
BRANCH   1   6
HETATM    6  N1  UNL     1      22.752   1.080  53.279  1.00  0.00    -0.374 N 
HETATM    7  H7  UNL     1      22.908   1.790  54.040  1.00  0.00     0.161 HD
BRANCH   6   8
HETATM    8  C7  UNL     1      21.570   0.267  53.350  1.00  0.00     0.036 A 
HETATM    9  C2  UNL     1      21.477  -0.806  54.189  1.00  0.00    -0.035 A 
HETATM   10  C1  UNL     1      22.650  -1.179  55.061  1.00  0.00     0.050 C 
HETATM   11  C3  UNL     1      20.309  -1.569  54.241  1.00  0.00     0.010 A 
HETATM   12  C4  UNL     1      19.220  -1.247  53.436  1.00  0.00     0.020 A 
HETATM   13  C5  UNL     1      19.286  -0.154  52.567  1.00  0.00     0.013 A 
HETATM   14 BR1  UNL     1      17.812   0.323  51.450  1.00  0.00    -0.051 Br
HETATM   15  C6  UNL     1      20.473   0.552  52.572  1.00  0.00     0.048 A 
ENDBRANCH   6   8
ENDBRANCH   1   6
BRANCH   5  16
HETATM   16  C12 UNL     1      27.451  -0.399  53.192  1.00  0.00    -0.009 A 
HETATM   17  C13 UNL     1      28.039   0.810  53.497  1.00  0.00     0.013 A 
HETATM   18  C14 UNL     1      29.398   0.885  53.743  1.00  0.00     0.001 A 
HETATM   19  C15 UNL     1      30.164  -0.259  53.680  1.00  0.00     0.002 A 
HETATM   20  C16 UNL     1      29.531  -1.433  53.374  1.00  0.00     0.030 A 
HETATM   21  C17 UNL     1      28.193  -1.529  53.128  1.00  0.00     0.036 A 
BRANCH  21  22
HETATM   22  N2  UNL     1      27.555  -2.786  52.819  1.00  0.00    -0.398 N 
HETATM   23  H14 UNL     1      26.557  -2.794  53.163  1.00  0.00     0.156 HD
HETATM   24  H15 UNL     1      27.846  -3.683  52.336  1.00  0.00     0.156 HD
ENDBRANCH  21  22
ENDBRANCH   5  16
TORSDOF 4
ENDMDL
MODEL 2
REMARK VINA RESULT:      -8.4      2.476      3.204
REMARK  4 active torsions:
REMARK  status: ('A' for Active; 'I' for Inactive)
REMARK    1  A    between atoms: C7_8  and  N1_9 
REMARK    2  A    between atoms: N1_9  and  C8_10 
REMARK    3  A    between atoms: C11_14  and  C12_15 
REMARK    4  A    between atoms: C17_20  and  N2_21 
ROOT
HETATM    1  C8  UNL     1      23.076   0.256  53.564  1.00  0.00     0.194 A 
HETATM    2  C9  UNL     1      24.104  -0.486  54.303  1.00  0.00     0.185 A 
HETATM    3  O1  UNL     1      24.051  -1.298  55.297  1.00  0.00    -0.290 OA
HETATM    4  C10 UNL     1      24.532   0.397  53.166  1.00  0.00     0.021 A 
HETATM    5  C11 UNL     1      25.768   0.575  52.750  1.00  0.00     0.027 C 
ENDROOT
BRANCH   1   6
HETATM    6  N1  UNL     1      22.267  -0.493  52.592  1.00  0.00    -0.374 N 
HETATM    7  H7  UNL     1      22.337  -1.543  52.578  1.00  0.00     0.161 HD
BRANCH   6   8
HETATM    8  C7  UNL     1      21.376   0.133  51.655  1.00  0.00     0.036 A 
HETATM    9  C2  UNL     1      20.026   0.175  51.853  1.00  0.00    -0.035 A 
HETATM   10  C1  UNL     1      19.429  -0.471  53.078  1.00  0.00     0.050 C 
HETATM   11  C3  UNL     1      19.190   0.802  50.927  1.00  0.00     0.010 A 
HETATM   12  C4  UNL     1      19.722   1.394  49.785  1.00  0.00     0.020 A 
HETATM   13  C5  UNL     1      21.101   1.367  49.555  1.00  0.00     0.013 A 
HETATM   14 BR1  UNL     1      21.868   2.172  48.002  1.00  0.00    -0.051 Br
HETATM   15  C6  UNL     1      21.861   0.730  50.514  1.00  0.00     0.048 A 
ENDBRANCH   6   8
ENDBRANCH   1   6
BRANCH   5  16
HETATM   16  C12 UNL     1      27.122   0.185  53.090  1.00  0.00    -0.009 A 
HETATM   17  C13 UNL     1      27.584  -1.100  52.902  1.00  0.00     0.013 A 
HETATM   18  C14 UNL     1      28.889  -1.427  53.223  1.00  0.00     0.001 A 
HETATM   19  C15 UNL     1      29.727  -0.460  53.733  1.00  0.00     0.002 A 
HETATM   20  C16 UNL     1      29.218   0.800  53.899  1.00  0.00     0.030 A 
HETATM   21  C17 UNL     1      27.935   1.144  53.589  1.00  0.00     0.036 A 
BRANCH  21  22
HETATM   22  N2  UNL     1      27.433   2.485  53.766  1.00  0.00    -0.398 N 
HETATM   23  H14 UNL     1      28.228   3.169  53.885  1.00  0.00     0.156 HD
HETATM   24  H15 UNL     1      26.474   2.935  53.802  1.00  0.00     0.156 HD
ENDBRANCH  21  22
ENDBRANCH   5  16
TORSDOF 4
ENDMDL
MODEL 3
REMARK VINA RESULT:      -8.0      4.552      7.424
REMARK  4 active torsions:
REMARK  status: ('A' for Active; 'I' for Inactive)
REMARK    1  A    between atoms: C7_8  and  N1_9 
REMARK    2  A    between atoms: N1_9  and  C8_10 
REMARK    3  A    between atoms: C11_14  and  C12_15 
REMARK    4  A    between atoms: C17_20  and  N2_21 
ROOT
HETATM    1  C8  UNL     1      25.775   2.810  51.566  1.00  0.00     0.194 A 
HETATM    2  C9  UNL     1      24.570   2.862  52.403  1.00  0.00     0.185 A 
HETATM    3  O1  UNL     1      23.864   3.834  52.858  1.00  0.00    -0.290 OA
HETATM    4  C10 UNL     1      25.146   1.519  52.054  1.00  0.00     0.021 A 
HETATM    5  C11 UNL     1      24.665   0.353  52.429  1.00  0.00     0.027 C 
ENDROOT
BRANCH   1   6
HETATM    6  N1  UNL     1      25.609   3.041  50.124  1.00  0.00    -0.374 N 
HETATM    7  H7  UNL     1      25.171   2.284  49.539  1.00  0.00     0.161 HD
BRANCH   6   8
HETATM    8  C7  UNL     1      26.010   4.253  49.466  1.00  0.00     0.036 A 
HETATM    9  C2  UNL     1      25.123   5.247  49.172  1.00  0.00    -0.035 A 
HETATM   10  C1  UNL     1      23.666   5.078  49.521  1.00  0.00     0.050 C 
HETATM   11  C3  UNL     1      25.550   6.418  48.541  1.00  0.00     0.010 A 
HETATM   12  C4  UNL     1      26.889   6.588  48.201  1.00  0.00     0.020 A 
HETATM   13  C5  UNL     1      27.821   5.586  48.489  1.00  0.00     0.013 A 
HETATM   14 BR1  UNL     1      29.667   5.784  48.042  1.00  0.00    -0.051 Br
HETATM   15  C6  UNL     1      27.324   4.460  49.113  1.00  0.00     0.048 A 
ENDBRANCH   6   8
ENDBRANCH   1   6
BRANCH   5  16
HETATM   16  C12 UNL     1      23.606  -0.200  53.248  1.00  0.00    -0.009 A 
HETATM   17  C13 UNL     1      22.284  -0.167  52.859  1.00  0.00     0.013 A 
HETATM   18  C14 UNL     1      21.304  -0.724  53.662  1.00  0.00     0.001 A 
HETATM   19  C15 UNL     1      21.658  -1.312  54.857  1.00  0.00     0.002 A 
HETATM   20  C16 UNL     1      22.984  -1.318  55.195  1.00  0.00     0.030 A 
HETATM   21  C17 UNL     1      23.965  -0.776  54.418  1.00  0.00     0.036 A 
BRANCH  21  22
HETATM   22  N2  UNL     1      25.357  -0.810  54.800  1.00  0.00    -0.398 N 
HETATM   23  H14 UNL     1      25.967  -1.038  53.970  1.00  0.00     0.156 HD
HETATM   24  H15 UNL     1      25.898  -0.661  55.699  1.00  0.00     0.156 HD
ENDBRANCH  21  22
ENDBRANCH   5  16
TORSDOF 4
ENDMDL
MODEL 4
REMARK VINA RESULT:      -8.0      2.217      3.141
REMARK  4 active torsions:
REMARK  status: ('A' for Active; 'I' for Inactive)
REMARK    1  A    between atoms: C7_8  and  N1_9 
REMARK    2  A    between atoms: N1_9  and  C8_10 
REMARK    3  A    between atoms: C11_14  and  C12_15 
REMARK    4  A    between atoms: C17_20  and  N2_21 
ROOT
HETATM    1  C8  UNL     1      23.215   1.196  52.739  1.00  0.00     0.194 A 
HETATM    2  C9  UNL     1      23.919   0.018  53.257  1.00  0.00     0.185 A 
HETATM    3  O1  UNL     1      23.514  -1.080  53.788  1.00  0.00    -0.290 OA
HETATM    4  C10 UNL     1      24.730   1.150  52.693  1.00  0.00     0.021 A 
HETATM    5  C11 UNL     1      26.043   1.192  52.610  1.00  0.00     0.027 C 
ENDROOT
BRANCH   1   6
HETATM    6  N1  UNL     1      22.579   1.080  51.419  1.00  0.00    -0.374 N 
HETATM    7  H7  UNL     1      23.185   1.132  50.560  1.00  0.00     0.161 HD
BRANCH   6   8
HETATM    8  C7  UNL     1      21.167   0.894  51.235  1.00  0.00     0.036 A 
HETATM    9  C2  UNL     1      20.487   1.471  50.202  1.00  0.00    -0.035 A 
HETATM   10  C1  UNL     1      21.220   2.354  49.224  1.00  0.00     0.050 C 
HETATM   11  C3  UNL     1      19.115   1.260  50.047  1.00  0.00     0.010 A 
HETATM   12  C4  UNL     1      18.419   0.457  50.946  1.00  0.00     0.020 A 
HETATM   13  C5  UNL     1      19.088  -0.147  52.014  1.00  0.00     0.013 A 
HETATM   14 BR1  UNL     1      18.169  -1.259  53.266  1.00  0.00    -0.051 Br
HETATM   15  C6  UNL     1      20.442   0.108  52.101  1.00  0.00     0.048 A 
ENDBRANCH   6   8
ENDBRANCH   1   6
BRANCH   5  16
HETATM   16  C12 UNL     1      27.205   0.408  52.978  1.00  0.00    -0.009 A 
HETATM   17  C13 UNL     1      27.288  -0.944  52.724  1.00  0.00     0.013 A 
HETATM   18  C14 UNL     1      28.424  -1.652  53.075  1.00  0.00     0.001 A 
HETATM   19  C15 UNL     1      29.473  -0.998  53.681  1.00  0.00     0.002 A 
HETATM   20  C16 UNL     1      29.339   0.346  53.909  1.00  0.00     0.030 A 
HETATM   21  C17 UNL     1      28.229   1.063  53.571  1.00  0.00     0.036 A 
BRANCH  21  22
HETATM   22  N2  UNL     1      28.125   2.481  53.816  1.00  0.00    -0.398 N 
HETATM   23  H14 UNL     1      29.081   2.915  53.914  1.00  0.00     0.156 HD
HETATM   24  H15 UNL     1      27.329   3.174  53.917  1.00  0.00     0.156 HD
ENDBRANCH  21  22
ENDBRANCH   5  16
TORSDOF 4
ENDMDL
MODEL 5
REMARK VINA RESULT:      -8.0      3.395      4.444
REMARK  4 active torsions:
REMARK  status: ('A' for Active; 'I' for Inactive)
REMARK    1  A    between atoms: C7_8  and  N1_9 
REMARK    2  A    between atoms: N1_9  and  C8_10 
REMARK    3  A    between atoms: C11_14  and  C12_15 
REMARK    4  A    between atoms: C17_20  and  N2_21 
ROOT
HETATM    1  C8  UNL     1      24.340   2.935  53.208  1.00  0.00     0.194 A 
HETATM    2  C9  UNL     1      24.661   1.579  52.747  1.00  0.00     0.185 A 
HETATM    3  O1  UNL     1      23.989   0.692  52.104  1.00  0.00    -0.290 OA
HETATM    4  C10 UNL     1      25.713   2.354  53.488  1.00  0.00     0.021 A 
HETATM    5  C11 UNL     1      26.927   1.932  53.769  1.00  0.00     0.027 C 
ENDROOT
BRANCH   1   6
HETATM    6  N1  UNL     1      24.346   4.010  52.206  1.00  0.00    -0.374 N 
HETATM    7  H7  UNL     1      24.982   4.835  52.354  1.00  0.00     0.161 HD
BRANCH   6   8
HETATM    8  C7  UNL     1      23.527   3.996  51.026  1.00  0.00     0.036 A 
HETATM    9  C2  UNL     1      24.041   3.734  49.789  1.00  0.00    -0.035 A 
HETATM   10  C1  UNL     1      25.518   3.472  49.632  1.00  0.00     0.050 C 
HETATM   11  C3  UNL     1      23.214   3.718  48.663  1.00  0.00     0.010 A 
HETATM   12  C4  UNL     1      21.850   3.968  48.787  1.00  0.00     0.020 A 
HETATM   13  C5  UNL     1      21.295   4.239  50.041  1.00  0.00     0.013 A 
HETATM   14 BR1  UNL     1      19.428   4.584  50.251  1.00  0.00    -0.051 Br
HETATM   15  C6  UNL     1      22.175   4.238  51.105  1.00  0.00     0.048 A 
ENDBRANCH   6   8
ENDBRANCH   1   6
BRANCH   5  16
HETATM   16  C12 UNL     1      27.751   0.748  53.633  1.00  0.00    -0.009 A 
HETATM   17  C13 UNL     1      27.250  -0.444  53.157  1.00  0.00     0.013 A 
HETATM   18  C14 UNL     1      28.075  -1.546  53.025  1.00  0.00     0.001 A 
HETATM   19  C15 UNL     1      29.404  -1.447  53.374  1.00  0.00     0.002 A 
HETATM   20  C16 UNL     1      29.851  -0.240  53.841  1.00  0.00     0.030 A 
HETATM   21  C17 UNL     1      29.055   0.859  53.978  1.00  0.00     0.036 A 
BRANCH  21  22
HETATM   22  N2  UNL     1      29.561   2.121  54.463  1.00  0.00    -0.398 N 
HETATM   23  H14 UNL     1      30.616   2.127  54.460  1.00  0.00     0.156 HD
HETATM   24  H15 UNL     1      29.130   3.024  54.814  1.00  0.00     0.156 HD
ENDBRANCH  21  22
ENDBRANCH   5  16
TORSDOF 4
ENDMDL
MODEL 6
REMARK VINA RESULT:      -7.9      4.313      5.629
REMARK  4 active torsions:
REMARK  status: ('A' for Active; 'I' for Inactive)
REMARK    1  A    between atoms: C7_8  and  N1_9 
REMARK    2  A    between atoms: N1_9  and  C8_10 
REMARK    3  A    between atoms: C11_14  and  C12_15 
REMARK    4  A    between atoms: C17_20  and  N2_21 
ROOT
HETATM    1  C8  UNL     1      24.692   2.986  51.377  1.00  0.00     0.194 A 
HETATM    2  C9  UNL     1      26.130   2.778  51.173  1.00  0.00     0.185 A 
HETATM    3  O1  UNL     1      26.987   3.313  50.379  1.00  0.00    -0.290 OA
HETATM    4  C10 UNL     1      25.426   1.957  52.215  1.00  0.00     0.021 A 
HETATM    5  C11 UNL     1      25.983   1.049  52.988  1.00  0.00     0.027 C 
ENDROOT
BRANCH   1   6
HETATM    6  N1  UNL     1      24.278   4.178  52.130  1.00  0.00    -0.374 N 
HETATM    7  H7  UNL     1      24.409   4.186  53.174  1.00  0.00     0.161 HD
BRANCH   6   8
HETATM    8  C7  UNL     1      23.706   5.343  51.515  1.00  0.00     0.036 A 
HETATM    9  C2  UNL     1      22.356   5.527  51.426  1.00  0.00    -0.035 A 
HETATM   10  C1  UNL     1      21.420   4.475  51.965  1.00  0.00     0.050 C 
HETATM   11  C3  UNL     1      21.833   6.677  50.831  1.00  0.00     0.010 A 
HETATM   12  C4  UNL     1      22.682   7.654  50.318  1.00  0.00     0.020 A 
HETATM   13  C5  UNL     1      24.068   7.493  50.395  1.00  0.00     0.013 A 
HETATM   14 BR1  UNL     1      25.265   8.812  49.706  1.00  0.00    -0.051 Br
HETATM   15  C6  UNL     1      24.509   6.331  50.996  1.00  0.00     0.048 A 
ENDBRANCH   6   8
ENDBRANCH   1   6
BRANCH   5  16
HETATM   16  C12 UNL     1      27.264   0.407  53.203  1.00  0.00    -0.009 A 
HETATM   17  C13 UNL     1      27.484  -0.916  52.885  1.00  0.00     0.013 A 
HETATM   18  C14 UNL     1      28.728  -1.486  53.089  1.00  0.00     0.001 A 
HETATM   19  C15 UNL     1      29.748  -0.723  53.613  1.00  0.00     0.002 A 
HETATM   20  C16 UNL     1      29.476   0.586  53.910  1.00  0.00     0.030 A 
HETATM   21  C17 UNL     1      28.258   1.167  53.716  1.00  0.00     0.036 A 
BRANCH  21  22
HETATM   22  N2  UNL     1      28.008   2.554  54.030  1.00  0.00    -0.398 N 
HETATM   23  H14 UNL     1      27.678   2.658  55.027  1.00  0.00     0.156 HD
HETATM   24  H15 UNL     1      28.078   3.472  53.506  1.00  0.00     0.156 HD
ENDBRANCH  21  22
ENDBRANCH   5  16
TORSDOF 4
ENDMDL
MODEL 7
REMARK VINA RESULT:      -7.8      1.863      2.648
REMARK  4 active torsions:
REMARK  status: ('A' for Active; 'I' for Inactive)
REMARK    1  A    between atoms: C7_8  and  N1_9 
REMARK    2  A    between atoms: N1_9  and  C8_10 
REMARK    3  A    between atoms: C11_14  and  C12_15 
REMARK    4  A    between atoms: C17_20  and  N2_21 
ROOT
HETATM    1  C8  UNL     1      24.868   1.966  51.197  1.00  0.00     0.194 A 
HETATM    2  C9  UNL     1      26.309   2.198  51.349  1.00  0.00     0.185 A 
HETATM    3  O1  UNL     1      27.087   3.147  50.968  1.00  0.00    -0.290 OA
HETATM    4  C10 UNL     1      25.717   0.947  51.934  1.00  0.00     0.021 A 
HETATM    5  C11 UNL     1      26.376   0.016  52.590  1.00  0.00     0.027 C 
ENDROOT
BRANCH   1   6
HETATM    6  N1  UNL     1      23.964   2.725  52.071  1.00  0.00    -0.374 N 
HETATM    7  H7  UNL     1      24.291   3.647  52.458  1.00  0.00     0.161 HD
BRANCH   6   8
HETATM    8  C7  UNL     1      22.646   2.276  52.427  1.00  0.00     0.036 A 
HETATM    9  C2  UNL     1      21.535   3.038  52.202  1.00  0.00    -0.035 A 
HETATM   10  C1  UNL     1      21.677   4.405  51.584  1.00  0.00     0.050 C 
HETATM   11  C3  UNL     1      20.267   2.566  52.551  1.00  0.00     0.010 A 
HETATM   12  C4  UNL     1      20.117   1.310  53.133  1.00  0.00     0.020 A 
HETATM   13  C5  UNL     1      21.237   0.508  53.374  1.00  0.00     0.013 A 
HETATM   14 BR1  UNL     1      21.072  -1.221  54.168  1.00  0.00    -0.051 Br
HETATM   15  C6  UNL     1      22.455   1.043  53.004  1.00  0.00     0.048 A 
ENDBRANCH   6   8
ENDBRANCH   1   6
BRANCH   5  16
HETATM   16  C12 UNL     1      27.729  -0.318  52.985  1.00  0.00    -0.009 A 
HETATM   17  C13 UNL     1      28.647   0.644  53.348  1.00  0.00     0.013 A 
HETATM   18  C14 UNL     1      29.924   0.281  53.737  1.00  0.00     0.001 A 
HETATM   19  C15 UNL     1      30.275  -1.051  53.759  1.00  0.00     0.002 A 
HETATM   20  C16 UNL     1      29.326  -1.965  53.390  1.00  0.00     0.030 A 
HETATM   21  C17 UNL     1      28.062  -1.629  53.004  1.00  0.00     0.036 A 
BRANCH  21  22
HETATM   22  N2  UNL     1      27.081  -2.621  52.632  1.00  0.00    -0.398 N 
HETATM   23  H14 UNL     1      26.879  -3.269  53.439  1.00  0.00     0.156 HD
HETATM   24  H15 UNL     1      26.527  -2.844  51.757  1.00  0.00     0.156 HD
ENDBRANCH  21  22
ENDBRANCH   5  16
TORSDOF 4
ENDMDL
MODEL 8
REMARK VINA RESULT:      -7.7      5.442      7.518
REMARK  4 active torsions:
REMARK  status: ('A' for Active; 'I' for Inactive)
REMARK    1  A    between atoms: C7_8  and  N1_9 
REMARK    2  A    between atoms: N1_9  and  C8_10 
REMARK    3  A    between atoms: C11_14  and  C12_15 
REMARK    4  A    between atoms: C17_20  and  N2_21 
ROOT
HETATM    1  C8  UNL     1      26.133   3.213  50.397  1.00  0.00     0.194 A 
HETATM    2  C9  UNL     1      25.445   4.506  50.313  1.00  0.00     0.185 A 
HETATM    3  O1  UNL     1      24.363   4.957  50.841  1.00  0.00    -0.290 OA
HETATM    4  C10 UNL     1      26.722   4.320  49.544  1.00  0.00     0.021 A 
HETATM    5  C11 UNL     1      27.305   5.224  48.787  1.00  0.00     0.027 C 
ENDROOT
BRANCH   1   6
HETATM    6  N1  UNL     1      26.902   2.932  51.617  1.00  0.00    -0.374 N 
HETATM    7  H7  UNL     1      27.760   3.508  51.817  1.00  0.00     0.161 HD
BRANCH   6   8
HETATM    8  C7  UNL     1      26.543   1.910  52.561  1.00  0.00     0.036 A 
HETATM    9  C2  UNL     1      27.395   1.501  53.546  1.00  0.00    -0.035 A 
HETATM   10  C1  UNL     1      28.770   2.112  53.649  1.00  0.00     0.050 C 
HETATM   11  C3  UNL     1      27.010   0.511  54.453  1.00  0.00     0.010 A 
HETATM   12  C4  UNL     1      25.750  -0.073  54.367  1.00  0.00     0.020 A 
HETATM   13  C5  UNL     1      24.856   0.326  53.368  1.00  0.00     0.013 A 
HETATM   14 BR1  UNL     1      23.117  -0.449  53.220  1.00  0.00    -0.051 Br
HETATM   15  C6  UNL     1      25.308   1.308  52.510  1.00  0.00     0.048 A 
ENDBRANCH   6   8
ENDBRANCH   1   6
BRANCH   5  16
HETATM   16  C12 UNL     1      27.092   6.573  48.303  1.00  0.00    -0.009 A 
HETATM   17  C13 UNL     1      25.871   6.996  47.821  1.00  0.00     0.013 A 
HETATM   18  C14 UNL     1      25.704   8.298  47.385  1.00  0.00     0.001 A 
HETATM   19  C15 UNL     1      26.767   9.173  47.434  1.00  0.00     0.002 A 
HETATM   20  C16 UNL     1      27.957   8.702  47.922  1.00  0.00     0.030 A 
HETATM   21  C17 UNL     1      28.142   7.423  48.357  1.00  0.00     0.036 A 
BRANCH  21  22
HETATM   22  N2  UNL     1      29.408   6.962  48.876  1.00  0.00    -0.398 N 
HETATM   23  H14 UNL     1      30.184   7.140  48.183  1.00  0.00     0.156 HD
HETATM   24  H15 UNL     1      29.734   6.498  49.771  1.00  0.00     0.156 HD
ENDBRANCH  21  22
ENDBRANCH   5  16
TORSDOF 4
ENDMDL
MODEL 9
REMARK VINA RESULT:      -7.7      3.940      5.663
REMARK  4 active torsions:
REMARK  status: ('A' for Active; 'I' for Inactive)
REMARK    1  A    between atoms: C7_8  and  N1_9 
REMARK    2  A    between atoms: N1_9  and  C8_10 
REMARK    3  A    between atoms: C11_14  and  C12_15 
REMARK    4  A    between atoms: C17_20  and  N2_21 
ROOT
HETATM    1  C8  UNL     1      24.366   2.564  52.968  1.00  0.00     0.194 A 
HETATM    2  C9  UNL     1      24.569   1.129  53.200  1.00  0.00     0.185 A 
HETATM    3  O1  UNL     1      23.761   0.161  53.449  1.00  0.00    -0.290 OA
HETATM    4  C10 UNL     1      25.770   1.990  52.930  1.00  0.00     0.021 A 
HETATM    5  C11 UNL     1      27.018   1.576  52.874  1.00  0.00     0.027 C 
ENDROOT
BRANCH   1   6
HETATM    6  N1  UNL     1      23.859   2.973  51.651  1.00  0.00    -0.374 N 
HETATM    7  H7  UNL     1      23.158   2.357  51.166  1.00  0.00     0.161 HD
BRANCH   6   8
HETATM    8  C7  UNL     1      24.267   4.180  50.987  1.00  0.00     0.036 A 
HETATM    9  C2  UNL     1      23.533   5.329  51.054  1.00  0.00    -0.035 A 
HETATM   10  C1  UNL     1      22.238   5.347  51.826  1.00  0.00     0.050 C 
HETATM   11  C3  UNL     1      23.965   6.487  50.404  1.00  0.00     0.010 A 
HETATM   12  C4  UNL     1      25.152   6.487  49.677  1.00  0.00     0.020 A 
HETATM   13  C5  UNL     1      25.925   5.325  49.591  1.00  0.00     0.013 A 
HETATM   14 BR1  UNL     1      27.561   5.286  48.606  1.00  0.00    -0.051 Br
HETATM   15  C6  UNL     1      25.433   4.221  50.258  1.00  0.00     0.048 A 
ENDBRANCH   6   8
ENDBRANCH   1   6
BRANCH   5  16
HETATM   16  C12 UNL     1      27.798   0.369  53.058  1.00  0.00    -0.009 A 
HETATM   17  C13 UNL     1      27.332  -0.871  52.678  1.00  0.00     0.013 A 
HETATM   18  C14 UNL     1      28.116  -1.997  52.855  1.00  0.00     0.001 A 
HETATM   19  C15 UNL     1      29.368  -1.872  53.415  1.00  0.00     0.002 A 
HETATM   20  C16 UNL     1      29.783  -0.618  53.774  1.00  0.00     0.030 A 
HETATM   21  C17 UNL     1      29.026   0.505  53.608  1.00  0.00     0.036 A 
BRANCH  21  22
HETATM   22  N2  UNL     1      29.499   1.814  53.988  1.00  0.00    -0.398 N 
HETATM   23  H14 UNL     1      28.745   2.351  54.496  1.00  0.00     0.156 HD
HETATM   24  H15 UNL     1      30.406   2.351  53.881  1.00  0.00     0.156 HD
ENDBRANCH  21  22
ENDBRANCH   5  16
TORSDOF 4
ENDMDL
