MODEL 1
REMARK VINA RESULT:      -8.7      0.000      0.000
REMARK  1 active torsions:
REMARK  status: ('A' for Active; 'I' for Inactive)
REMARK    1  A    between atoms: N4_16  and  C12_17 
ROOT
HETATM    1  C1  UNL     1      26.807   4.282  49.436  1.00  0.00     0.052 C 
HETATM    2  C2  UNL     1      25.347   4.383  49.642  1.00  0.00    -0.013 A 
HETATM    3  C3  UNL     1      24.463   5.162  48.929  1.00  0.00     0.123 A 
HETATM    4  F1  UNL     1      25.006   5.908  47.936  1.00  0.00    -0.206 F 
HETATM    5  C4  UNL     1      23.115   5.192  49.191  1.00  0.00     0.045 A 
HETATM    6  C5  UNL     1      22.621   4.397  50.231  1.00  0.00     0.041 A 
HETATM    7  C6  UNL     1      23.483   3.593  50.978  1.00  0.00     0.086 A 
HETATM    8  C7  UNL     1      24.832   3.608  50.661  1.00  0.00     0.013 A 
HETATM    9  C8  UNL     1      25.791   2.751  51.449  1.00  0.00     0.315 C 
HETATM   10  N1  UNL     1      25.570   2.745  52.840  1.00  0.00     0.119 NA
HETATM   11  C9  UNL     1      24.626   1.869  53.410  1.00  0.00     0.402 C 
HETATM   12  C10 UNL     1      23.249   1.940  52.808  1.00  0.00     0.218 C 
HETATM   13  N2  UNL     1      22.402   1.028  53.085  1.00  0.00    -0.152 NA
HETATM   14  N3  UNL     1      22.729  -0.032  53.936  1.00  0.00    -0.294 N 
HETATM   15  C11 UNL     1      23.970  -0.577  53.370  1.00  0.00     0.268 C 
HETATM   16  N4  UNL     1      24.985   0.486  53.423  1.00  0.00    -0.330 N 
HETATM   17  O1  UNL     1      22.725   2.918  51.934  1.00  0.00    -0.290 OA
HETATM   18  H8  UNL     1      25.263   3.729  53.104  1.00  0.00     0.319 HD
HETATM   19  H10 UNL     1      22.245  -0.401  54.790  1.00  0.00     0.184 HD
ENDROOT
BRANCH  16  20
HETATM   20  C12 UNL     1      26.367   0.130  53.489  1.00  0.00     0.017 A 
HETATM   21  C13 UNL     1      26.858   0.355  54.718  1.00  0.00     0.028 A 
HETATM   22  C14 UNL     1      28.269  -0.033  54.708  1.00  0.00     0.040 A 
HETATM   23  C15 UNL     1      28.587  -0.475  53.490  1.00  0.00     0.099 A 
HETATM   24  F2  UNL     1      29.773  -0.947  52.978  1.00  0.00    -0.210 F 
HETATM   25  C16 UNL     1      27.399  -0.410  52.602  1.00  0.00     0.127 A 
ENDBRANCH  16  20
TORSDOF 1
ENDMDL
MODEL 2
REMARK VINA RESULT:      -8.2      3.033      6.582
REMARK  1 active torsions:
REMARK  status: ('A' for Active; 'I' for Inactive)
REMARK    1  A    between atoms: N4_16  and  C12_17 
ROOT
HETATM    1  C1  UNL     1      20.072   0.308  51.947  1.00  0.00     0.052 C 
HETATM    2  C2  UNL     1      21.090  -0.178  52.902  1.00  0.00    -0.013 A 
HETATM    3  C3  UNL     1      20.955  -1.215  53.799  1.00  0.00     0.123 A 
HETATM    4  F1  UNL     1      19.755  -1.844  53.792  1.00  0.00    -0.206 F 
HETATM    5  C4  UNL     1      21.960  -1.599  54.652  1.00  0.00     0.045 A 
HETATM    6  C5  UNL     1      23.175  -0.905  54.607  1.00  0.00     0.041 A 
HETATM    7  C6  UNL     1      23.353   0.151  53.711  1.00  0.00     0.086 A 
HETATM    8  C7  UNL     1      22.298   0.489  52.878  1.00  0.00     0.013 A 
HETATM    9  C8  UNL     1      22.458   1.625  51.900  1.00  0.00     0.315 C 
HETATM   10  N1  UNL     1      23.114   2.760  52.416  1.00  0.00     0.119 NA
HETATM   11  C9  UNL     1      24.520   2.830  52.426  1.00  0.00     0.402 C 
HETATM   12  C10 UNL     1      25.210   1.663  53.080  1.00  0.00     0.218 C 
HETATM   13  N2  UNL     1      26.467   1.518  52.923  1.00  0.00    -0.152 NA
HETATM   14  N3  UNL     1      27.212   2.420  52.159  1.00  0.00    -0.294 N 
HETATM   15  C11 UNL     1      26.495   2.484  50.878  1.00  0.00     0.268 C 
HETATM   16  N4  UNL     1      25.146   3.001  51.152  1.00  0.00    -0.330 N 
HETATM   17  O1  UNL     1      24.643   0.650  53.884  1.00  0.00    -0.290 OA
HETATM   18  H8  UNL     1      22.802   2.857  53.428  1.00  0.00     0.319 HD
HETATM   19  H10 UNL     1      28.084   2.955  52.386  1.00  0.00     0.184 HD
ENDROOT
BRANCH  16  20
HETATM   20  C12 UNL     1      24.439   3.692  50.120  1.00  0.00     0.017 A 
HETATM   21  C13 UNL     1      24.637   5.016  50.214  1.00  0.00     0.028 A 
HETATM   22  C14 UNL     1      23.888   5.652  49.129  1.00  0.00     0.040 A 
HETATM   23  C15 UNL     1      23.267   4.708  48.421  1.00  0.00     0.099 A 
HETATM   24  F2  UNL     1      22.449   4.792  47.319  1.00  0.00    -0.210 F 
HETATM   25  C16 UNL     1      23.564   3.369  48.992  1.00  0.00     0.127 A 
ENDBRANCH  16  20
TORSDOF 1
ENDMDL
MODEL 3
REMARK VINA RESULT:      -8.1      2.740      6.152
REMARK  1 active torsions:
REMARK  status: ('A' for Active; 'I' for Inactive)
REMARK    1  A    between atoms: N4_16  and  C12_17 
ROOT
HETATM    1  C1  UNL     1      24.968  -0.303  53.523  1.00  0.00     0.052 C 
HETATM    2  C2  UNL     1      23.515  -0.222  53.780  1.00  0.00    -0.013 A 
HETATM    3  C3  UNL     1      22.792  -0.972  54.682  1.00  0.00     0.123 A 
HETATM    4  F1  UNL     1      23.503  -1.874  55.401  1.00  0.00    -0.206 F 
HETATM    5  C4  UNL     1      21.437  -0.828  54.855  1.00  0.00     0.045 A 
HETATM    6  C5  UNL     1      20.763   0.122  54.080  1.00  0.00     0.041 A 
HETATM    7  C6  UNL     1      21.459   0.903  53.155  1.00  0.00     0.086 A 
HETATM    8  C7  UNL     1      22.826   0.708  53.030  1.00  0.00     0.013 A 
HETATM    9  C8  UNL     1      23.607   1.534  52.040  1.00  0.00     0.315 C 
HETATM   10  N1  UNL     1      22.977   1.711  50.792  1.00  0.00     0.119 NA
HETATM   11  C9  UNL     1      22.033   2.740  50.608  1.00  0.00     0.402 C 
HETATM   12  C10 UNL     1      20.908   2.756  51.607  1.00  0.00     0.218 C 
HETATM   13  N2  UNL     1      20.149   3.779  51.672  1.00  0.00    -0.152 NA
HETATM   14  N3  UNL     1      20.344   4.881  50.835  1.00  0.00    -0.294 N 
HETATM   15  C11 UNL     1      21.761   5.225  51.017  1.00  0.00     0.268 C 
HETATM   16  N4  UNL     1      22.557   4.070  50.576  1.00  0.00    -0.330 N 
HETATM   17  O1  UNL     1      20.546   1.753  52.534  1.00  0.00    -0.290 OA
HETATM   18  H8  UNL     1      22.474   0.800  50.573  1.00  0.00     0.319 HD
HETATM   19  H10 UNL     1      19.679   5.389  50.203  1.00  0.00     0.184 HD
ENDROOT
BRANCH  16  20
HETATM   20  C12 UNL     1      23.888   4.279  50.102  1.00  0.00     0.017 A 
HETATM   21  C13 UNL     1      24.308   5.519  50.396  1.00  0.00     0.028 A 
HETATM   22  C14 UNL     1      25.671   5.657  49.883  1.00  0.00     0.040 A 
HETATM   23  C15 UNL     1      26.033   4.512  49.302  1.00  0.00     0.099 A 
HETATM   24  F2  UNL     1      27.201   4.141  48.679  1.00  0.00    -0.210 F 
HETATM   25  C16 UNL     1      24.924   3.528  49.391  1.00  0.00     0.127 A 
ENDBRANCH  16  20
TORSDOF 1
ENDMDL
MODEL 4
REMARK VINA RESULT:      -8.0      2.592      5.963
REMARK  1 active torsions:
REMARK  status: ('A' for Active; 'I' for Inactive)
REMARK    1  A    between atoms: N4_16  and  C12_17 
ROOT
HETATM    1  C1  UNL     1      26.741   0.169  51.852  1.00  0.00     0.052 C 
HETATM    2  C2  UNL     1      25.397   0.416  52.416  1.00  0.00    -0.013 A 
HETATM    3  C3  UNL     1      24.716  -0.380  53.311  1.00  0.00     0.123 A 
HETATM    4  F1  UNL     1      25.361  -1.505  53.706  1.00  0.00    -0.206 F 
HETATM    5  C4  UNL     1      23.465  -0.069  53.784  1.00  0.00     0.045 A 
HETATM    6  C5  UNL     1      22.856   1.108  53.335  1.00  0.00     0.041 A 
HETATM    7  C6  UNL     1      23.513   1.943  52.428  1.00  0.00     0.086 A 
HETATM    8  C7  UNL     1      24.774   1.571  51.990  1.00  0.00     0.013 A 
HETATM    9  C8  UNL     1      25.511   2.449  51.011  1.00  0.00     0.315 C 
HETATM   10  N1  UNL     1      24.715   2.967  49.969  1.00  0.00     0.119 NA
HETATM   11  C9  UNL     1      23.964   4.143  50.159  1.00  0.00     0.402 C 
HETATM   12  C10 UNL     1      23.056   4.129  51.359  1.00  0.00     0.218 C 
HETATM   13  N2  UNL     1      22.527   5.222  51.750  1.00  0.00    -0.152 NA
HETATM   14  N3  UNL     1      22.775   6.427  51.085  1.00  0.00    -0.294 N 
HETATM   15  C11 UNL     1      24.241   6.508  51.023  1.00  0.00     0.268 C 
HETATM   16  N4  UNL     1      24.715   5.357  50.240  1.00  0.00    -0.330 N 
HETATM   17  O1  UNL     1      22.681   3.029  52.161  1.00  0.00    -0.290 OA
HETATM   18  H8  UNL     1      24.019   2.205  49.711  1.00  0.00     0.319 HD
HETATM   19  H10 UNL     1      22.117   7.145  50.700  1.00  0.00     0.184 HD
ENDROOT
BRANCH  16  20
HETATM   20  C12 UNL     1      25.958   5.451  49.542  1.00  0.00     0.017 A 
HETATM   21  C13 UNL     1      26.185   6.713  49.145  1.00  0.00     0.028 A 
HETATM   22  C14 UNL     1      27.468   6.730  48.442  1.00  0.00     0.040 A 
HETATM   23  C15 UNL     1      27.973   5.495  48.434  1.00  0.00     0.099 A 
HETATM   24  F2  UNL     1      29.140   4.997  47.905  1.00  0.00    -0.210 F 
HETATM   25  C16 UNL     1      27.051   4.567  49.137  1.00  0.00     0.127 A 
ENDBRANCH  16  20
TORSDOF 1
ENDMDL
MODEL 5
REMARK VINA RESULT:      -7.9      4.662      6.580
REMARK  1 active torsions:
REMARK  status: ('A' for Active; 'I' for Inactive)
REMARK    1  A    between atoms: N4_16  and  C12_17 
ROOT
HETATM    1  C1  UNL     1      18.007   0.987  50.017  1.00  0.00     0.052 C 
HETATM    2  C2  UNL     1      17.778   0.016  51.107  1.00  0.00    -0.013 A 
HETATM    3  C3  UNL     1      16.659  -0.765  51.298  1.00  0.00     0.123 A 
HETATM    4  F1  UNL     1      15.674  -0.614  50.381  1.00  0.00    -0.206 F 
HETATM    5  C4  UNL     1      16.534  -1.645  52.344  1.00  0.00     0.045 A 
HETATM    6  C5  UNL     1      17.590  -1.752  53.256  1.00  0.00     0.041 A 
HETATM    7  C6  UNL     1      18.742  -0.979  53.098  1.00  0.00     0.086 A 
HETATM    8  C7  UNL     1      18.805  -0.110  52.020  1.00  0.00     0.013 A 
HETATM    9  C8  UNL     1      20.034   0.740  51.821  1.00  0.00     0.315 C 
HETATM   10  N1  UNL     1      20.553   1.313  52.999  1.00  0.00     0.119 NA
HETATM   11  C9  UNL     1      21.431   0.582  53.823  1.00  0.00     0.402 C 
HETATM   12  C10 UNL     1      20.925  -0.769  54.249  1.00  0.00     0.218 C 
HETATM   13  N2  UNL     1      21.735  -1.595  54.785  1.00  0.00    -0.152 NA
HETATM   14  N3  UNL     1      23.080  -1.267  54.983  1.00  0.00    -0.294 N 
HETATM   15  C11 UNL     1      23.537  -0.814  53.663  1.00  0.00     0.268 C 
HETATM   16  N4  UNL     1      22.745   0.371  53.302  1.00  0.00    -0.330 N 
HETATM   17  O1  UNL     1      19.616  -1.289  54.139  1.00  0.00    -0.290 OA
HETATM   18  H8  UNL     1      19.717   1.571  53.605  1.00  0.00     0.319 HD
HETATM   19  H10 UNL     1      23.678  -1.312  55.843  1.00  0.00     0.184 HD
ENDROOT
BRANCH  16  20
HETATM   20  C12 UNL     1      23.300   1.337  52.408  1.00  0.00     0.017 A 
HETATM   21  C13 UNL     1      24.008   2.257  53.082  1.00  0.00     0.028 A 
HETATM   22  C14 UNL     1      24.542   3.206  52.105  1.00  0.00     0.040 A 
HETATM   23  C15 UNL     1      24.149   2.838  50.885  1.00  0.00     0.099 A 
HETATM   24  F2  UNL     1      24.384   3.395  49.650  1.00  0.00    -0.210 F 
HETATM   25  C16 UNL     1      23.318   1.610  50.970  1.00  0.00     0.127 A 
ENDBRANCH  16  20
TORSDOF 1
ENDMDL
MODEL 6
REMARK VINA RESULT:      -7.9      3.378      6.074
REMARK  1 active torsions:
REMARK  status: ('A' for Active; 'I' for Inactive)
REMARK    1  A    between atoms: N4_16  and  C12_17 
ROOT
HETATM    1  C1  UNL     1      24.279   3.618  49.831  1.00  0.00     0.052 C 
HETATM    2  C2  UNL     1      25.012   2.706  50.734  1.00  0.00    -0.013 A 
HETATM    3  C3  UNL     1      26.373   2.667  50.944  1.00  0.00     0.123 A 
HETATM    4  F1  UNL     1      27.102   3.567  50.241  1.00  0.00    -0.206 F 
HETATM    5  C4  UNL     1      26.969   1.781  51.807  1.00  0.00     0.045 A 
HETATM    6  C5  UNL     1      26.157   0.877  52.502  1.00  0.00     0.041 A 
HETATM    7  C6  UNL     1      24.773   0.884  52.317  1.00  0.00     0.086 A 
HETATM    8  C7  UNL     1      24.235   1.805  51.432  1.00  0.00     0.013 A 
HETATM    9  C8  UNL     1      22.744   1.839  51.210  1.00  0.00     0.315 C 
HETATM   10  N1  UNL     1      22.136   0.572  51.099  1.00  0.00     0.119 NA
HETATM   11  C9  UNL     1      21.750  -0.139  52.252  1.00  0.00     0.402 C 
HETATM   12  C10 UNL     1      22.838  -0.329  53.274  1.00  0.00     0.218 C 
HETATM   13  N2  UNL     1      22.528  -0.740  54.441  1.00  0.00    -0.152 NA
HETATM   14  N3  UNL     1      21.202  -1.016  54.785  1.00  0.00    -0.294 N 
HETATM   15  C11 UNL     1      20.473   0.204  54.411  1.00  0.00     0.268 C 
HETATM   16  N4  UNL     1      20.623   0.383  52.960  1.00  0.00    -0.330 N 
HETATM   17  O1  UNL     1      24.225  -0.110  53.127  1.00  0.00    -0.290 OA
HETATM   18  H8  UNL     1      22.822  -0.051  50.578  1.00  0.00     0.319 HD
HETATM   19  H10 UNL     1      20.767  -1.868  55.212  1.00  0.00     0.184 HD
ENDROOT
BRANCH  16  20
HETATM   20  C12 UNL     1      19.619   1.096  52.236  1.00  0.00     0.017 A 
HETATM   21  C13 UNL     1      18.758   0.246  51.656  1.00  0.00     0.028 A 
HETATM   22  C14 UNL     1      17.764   1.046  50.938  1.00  0.00     0.040 A 
HETATM   23  C15 UNL     1      18.049   2.339  51.102  1.00  0.00     0.099 A 
HETATM   24  F2  UNL     1      17.426   3.471  50.634  1.00  0.00    -0.210 F 
HETATM   25  C16 UNL     1      19.262   2.486  51.947  1.00  0.00     0.127 A 
ENDBRANCH  16  20
TORSDOF 1
ENDMDL
MODEL 7
REMARK VINA RESULT:      -7.7      2.264      6.146
REMARK  1 active torsions:
REMARK  status: ('A' for Active; 'I' for Inactive)
REMARK    1  A    between atoms: N4_16  and  C12_17 
ROOT
HETATM    1  C1  UNL     1      28.226   2.338  53.381  1.00  0.00     0.052 C 
HETATM    2  C2  UNL     1      27.024   1.477  53.374  1.00  0.00    -0.013 A 
HETATM    3  C3  UNL     1      26.792   0.373  54.165  1.00  0.00     0.123 A 
HETATM    4  F1  UNL     1      27.781   0.056  55.036  1.00  0.00    -0.206 F 
HETATM    5  C4  UNL     1      25.640  -0.370  54.090  1.00  0.00     0.045 A 
HETATM    6  C5  UNL     1      24.659   0.013  53.167  1.00  0.00     0.041 A 
HETATM    7  C6  UNL     1      24.855   1.126  52.348  1.00  0.00     0.086 A 
HETATM    8  C7  UNL     1      26.040   1.832  52.474  1.00  0.00     0.013 A 
HETATM    9  C8  UNL     1      26.284   3.039  51.604  1.00  0.00     0.315 C 
HETATM   10  N1  UNL     1      25.896   2.883  50.258  1.00  0.00     0.119 NA
HETATM   11  C9  UNL     1      24.563   3.113  49.866  1.00  0.00     0.402 C 
HETATM   12  C10 UNL     1      23.531   2.349  50.649  1.00  0.00     0.218 C 
HETATM   13  N2  UNL     1      22.302   2.670  50.535  1.00  0.00    -0.152 NA
HETATM   14  N3  UNL     1      21.899   3.715  49.699  1.00  0.00    -0.294 N 
HETATM   15  C11 UNL     1      22.736   4.849  50.114  1.00  0.00     0.268 C 
HETATM   16  N4  UNL     1      24.138   4.478  49.871  1.00  0.00    -0.330 N 
HETATM   17  O1  UNL     1      23.728   1.270  51.539  1.00  0.00    -0.290 OA
HETATM   18  H8  UNL     1      26.118   1.877  49.992  1.00  0.00     0.319 HD
HETATM   19  H10 UNL     1      21.178   3.747  48.939  1.00  0.00     0.184 HD
ENDROOT
BRANCH  16  20
HETATM   20  C12 UNL     1      25.102   5.505  49.632  1.00  0.00     0.017 A 
HETATM   21  C13 UNL     1      24.951   6.511  50.508  1.00  0.00     0.028 A 
HETATM   22  C14 UNL     1      25.968   7.518  50.202  1.00  0.00     0.040 A 
HETATM   23  C15 UNL     1      26.694   7.099  49.164  1.00  0.00     0.099 A 
HETATM   24  F2  UNL     1      27.753   7.678  48.506  1.00  0.00    -0.210 F 
HETATM   25  C16 UNL     1      26.204   5.774  48.707  1.00  0.00     0.127 A 
ENDBRANCH  16  20
TORSDOF 1
ENDMDL
MODEL 8
REMARK VINA RESULT:      -7.6      2.362      6.411
REMARK  1 active torsions:
REMARK  status: ('A' for Active; 'I' for Inactive)
REMARK    1  A    between atoms: N4_16  and  C12_17 
ROOT
HETATM    1  C1  UNL     1      26.534   1.103  51.779  1.00  0.00     0.052 C 
HETATM    2  C2  UNL     1      25.401   0.573  52.567  1.00  0.00    -0.013 A 
HETATM    3  C3  UNL     1      25.458  -0.379  53.561  1.00  0.00     0.123 A 
HETATM    4  F1  UNL     1      26.691  -0.871  53.832  1.00  0.00    -0.206 F 
HETATM    5  C4  UNL     1      24.349  -0.812  54.244  1.00  0.00     0.045 A 
HETATM    6  C5  UNL     1      23.105  -0.262  53.913  1.00  0.00     0.041 A 
HETATM    7  C6  UNL     1      23.004   0.707  52.912  1.00  0.00     0.086 A 
HETATM    8  C7  UNL     1      24.163   1.100  52.262  1.00  0.00     0.013 A 
HETATM    9  C8  UNL     1      24.089   2.143  51.176  1.00  0.00     0.315 C 
HETATM   10  N1  UNL     1      23.003   1.995  50.289  1.00  0.00     0.119 NA
HETATM   11  C9  UNL     1      21.738   2.524  50.613  1.00  0.00     0.402 C 
HETATM   12  C10 UNL     1      21.196   2.100  51.951  1.00  0.00     0.218 C 
HETATM   13  N2  UNL     1      20.186   2.710  52.433  1.00  0.00    -0.152 NA
HETATM   14  N3  UNL     1      19.576   3.762  51.743  1.00  0.00    -0.294 N 
HETATM   15  C11 UNL     1      20.682   4.676  51.430  1.00  0.00     0.268 C 
HETATM   16  N4  UNL     1      21.628   3.948  50.571  1.00  0.00    -0.330 N 
HETATM   17  O1  UNL     1      21.663   1.071  52.799  1.00  0.00    -0.290 OA
HETATM   18  H8  UNL     1      22.864   0.950  50.150  1.00  0.00     0.319 HD
HETATM   19  H10 UNL     1      18.573   3.920  51.481  1.00  0.00     0.184 HD
ENDROOT
BRANCH  16  20
HETATM   20  C12 UNL     1      22.459   4.682  49.669  1.00  0.00     0.017 A 
HETATM   21  C13 UNL     1      21.935   4.682  48.434  1.00  0.00     0.028 A 
HETATM   22  C14 UNL     1      22.837   5.449  47.572  1.00  0.00     0.040 A 
HETATM   23  C15 UNL     1      23.866   5.884  48.302  1.00  0.00     0.099 A 
HETATM   24  F2  UNL     1      24.965   6.636  47.960  1.00  0.00    -0.210 F 
HETATM   25  C16 UNL     1      23.716   5.432  49.708  1.00  0.00     0.127 A 
ENDBRANCH  16  20
TORSDOF 1
ENDMDL
MODEL 9
REMARK VINA RESULT:      -7.4      2.943      7.036
REMARK  1 active torsions:
REMARK  status: ('A' for Active; 'I' for Inactive)
REMARK    1  A    between atoms: N4_16  and  C12_17 
ROOT
HETATM    1  C1  UNL     1      20.812   0.934  53.275  1.00  0.00     0.052 C 
HETATM    2  C2  UNL     1      22.196   0.486  53.534  1.00  0.00    -0.013 A 
HETATM    3  C3  UNL     1      22.587  -0.610  54.271  1.00  0.00     0.123 A 
HETATM    4  F1  UNL     1      21.584  -1.345  54.808  1.00  0.00    -0.206 F 
HETATM    5  C4  UNL     1      23.904  -0.951  54.459  1.00  0.00     0.045 A 
HETATM    6  C5  UNL     1      24.891  -0.148  53.876  1.00  0.00     0.041 A 
HETATM    7  C6  UNL     1      24.537   0.971  53.122  1.00  0.00     0.086 A 
HETATM    8  C7  UNL     1      23.189   1.261  52.970  1.00  0.00     0.013 A 
HETATM    9  C8  UNL     1      22.773   2.463  52.162  1.00  0.00     0.315 C 
HETATM   10  N1  UNL     1      23.545   3.620  52.385  1.00  0.00     0.119 NA
HETATM   11  C9  UNL     1      24.755   3.818  51.692  1.00  0.00     0.402 C 
HETATM   12  C10 UNL     1      25.736   2.682  51.792  1.00  0.00     0.218 C 
HETATM   13  N2  UNL     1      26.743   2.661  51.010  1.00  0.00    -0.152 NA
HETATM   14  N3  UNL     1      26.951   3.671  50.066  1.00  0.00    -0.294 N 
HETATM   15  C11 UNL     1      25.678   3.746  49.335  1.00  0.00     0.268 C 
HETATM   16  N4  UNL     1      24.634   4.121  50.300  1.00  0.00    -0.330 N 
HETATM   17  O1  UNL     1      25.709   1.575  52.668  1.00  0.00    -0.290 OA
HETATM   18  H8  UNL     1      23.788   3.628  53.421  1.00  0.00     0.319 HD
HETATM   19  H10 UNL     1      27.789   4.270  49.874  1.00  0.00     0.184 HD
ENDROOT
BRANCH  16  20
HETATM   20  C12 UNL     1      23.468   4.805  49.838  1.00  0.00     0.017 A 
HETATM   21  C13 UNL     1      22.925   4.165  48.791  1.00  0.00     0.028 A 
HETATM   22  C14 UNL     1      21.742   4.920  48.377  1.00  0.00     0.040 A 
HETATM   23  C15 UNL     1      21.606   5.981  49.174  1.00  0.00     0.099 A 
HETATM   24  F2  UNL     1      20.666   6.985  49.194  1.00  0.00    -0.210 F 
HETATM   25  C16 UNL     1      22.698   6.002  50.180  1.00  0.00     0.127 A 
ENDBRANCH  16  20
TORSDOF 1
ENDMDL
