MODEL 1
REMARK VINA RESULT:      -7.8      0.000      0.000
REMARK  5 active torsions:
REMARK  status: ('A' for Active; 'I' for Inactive)
REMARK    1  A    between atoms: O1_2  and  C2_3 
REMARK    2  A    between atoms: N3_9  and  N4_10 
REMARK    3  A    between atoms: N4_10  and  C6_11 
REMARK    4  A    between atoms: C14_20  and  O2_21 
REMARK    5  A    between atoms: O2_21  and  C15_22 
ROOT
HETATM    1  C2  UNL     1      20.208  -0.066  52.825  1.00  0.00     0.103 C 
HETATM    2  C3  UNL     1      20.507  -0.758  53.913  1.00  0.00     0.069 C 
HETATM    3  C4  UNL     1      21.933  -0.822  54.199  1.00  0.00     0.069 C 
HETATM    4  N1  UNL     1      22.283  -1.377  55.312  1.00  0.00    -0.242 NA
HETATM    5  C5  UNL     1      23.657  -1.440  55.663  1.00  0.00     0.257 C 
HETATM    6  N2  UNL     1      24.620  -0.937  54.929  1.00  0.00    -0.149 NA
HETATM    7  N3  UNL     1      24.306  -0.275  53.723  1.00  0.00    -0.195 N 
HETATM    8  C12 UNL     1      22.996  -0.436  53.277  1.00  0.00     0.206 C 
HETATM    9  C13 UNL     1      22.478   0.353  52.167  1.00  0.00     0.048 C 
HETATM   10  C14 UNL     1      21.191   0.528  51.931  1.00  0.00     0.103 C 
ENDROOT
BRANCH   7  11
HETATM   11  N4  UNL     1      25.180   0.507  52.962  1.00  0.00    -0.282 N 
HETATM   12  H6  UNL     1      24.827   1.058  52.145  1.00  0.00     0.189 HD
BRANCH  11  13
HETATM   13  C6  UNL     1      26.568   0.604  53.237  1.00  0.00     0.051 A 
HETATM   14  C7  UNL     1      27.195   1.784  53.568  1.00  0.00     0.031 A 
HETATM   15  C8  UNL     1      28.558   1.791  53.824  1.00  0.00     0.004 A 
HETATM   16  C9  UNL     1      29.324   0.649  53.758  1.00  0.00     0.024 A 
HETATM   17  C10 UNL     1      28.708  -0.542  53.427  1.00  0.00     0.036 A 
HETATM   18 CL1  UNL     1      29.679  -2.001  53.342  1.00  0.00    -0.084 Cl
HETATM   19  C11 UNL     1      27.340  -0.533  53.174  1.00  0.00     0.054 A 
ENDBRANCH  11  13
ENDBRANCH   7  11
BRANCH  10  20
HETATM   20  O2  UNL     1      20.852   1.284  50.817  1.00  0.00    -0.319 OA
BRANCH  20  21
HETATM   21  C15 UNL     1      21.251   0.859  49.523  1.00  0.00     0.398 C 
HETATM   22  F1  UNL     1      22.377   1.567  49.121  1.00  0.00    -0.227 F 
ENDBRANCH  20  21
ENDBRANCH  10  20
BRANCH   1  23
HETATM   23  O1  UNL     1      18.891   0.124  52.420  1.00  0.00    -0.353 OA
HETATM   24  C1  UNL     1      18.030  -0.997  52.656  1.00  0.00     0.210 C 
ENDBRANCH   1  23
TORSDOF 5
ENDMDL
MODEL 2
REMARK VINA RESULT:      -7.6      2.546      3.758
REMARK  5 active torsions:
REMARK  status: ('A' for Active; 'I' for Inactive)
REMARK    1  A    between atoms: O1_2  and  C2_3 
REMARK    2  A    between atoms: N3_9  and  N4_10 
REMARK    3  A    between atoms: N4_10  and  C6_11 
REMARK    4  A    between atoms: C14_20  and  O2_21 
REMARK    5  A    between atoms: O2_21  and  C15_22 
ROOT
HETATM    1  C2  UNL     1      21.323   0.622  51.821  1.00  0.00     0.103 C 
HETATM    2  C3  UNL     1      21.687   1.261  50.721  1.00  0.00     0.069 C 
HETATM    3  C4  UNL     1      22.946   1.979  50.843  1.00  0.00     0.069 C 
HETATM    4  N1  UNL     1      23.418   2.522  49.770  1.00  0.00    -0.242 NA
HETATM    5  C5  UNL     1      24.659   3.209  49.819  1.00  0.00     0.257 C 
HETATM    6  N2  UNL     1      25.394   3.311  50.900  1.00  0.00    -0.149 NA
HETATM    7  N3  UNL     1      24.962   2.701  52.097  1.00  0.00    -0.195 N 
HETATM    8  C12 UNL     1      23.644   2.250  52.097  1.00  0.00     0.206 C 
HETATM    9  C13 UNL     1      23.132   1.422  53.181  1.00  0.00     0.048 C 
HETATM   10  C14 UNL     1      22.052   0.670  53.080  1.00  0.00     0.103 C 
ENDROOT
BRANCH   7  11
HETATM   11  N4  UNL     1      25.729   2.520  53.252  1.00  0.00    -0.282 N 
HETATM   12  H6  UNL     1      25.544   3.091  54.109  1.00  0.00     0.189 HD
BRANCH  11  13
HETATM   13  C6  UNL     1      26.784   1.576  53.338  1.00  0.00     0.051 A 
HETATM   14  C7  UNL     1      28.054   1.892  53.763  1.00  0.00     0.031 A 
HETATM   15  C8  UNL     1      29.027   0.907  53.818  1.00  0.00     0.004 A 
HETATM   16  C9  UNL     1      28.774  -0.397  53.459  1.00  0.00     0.024 A 
HETATM   17  C10 UNL     1      27.504  -0.730  53.031  1.00  0.00     0.036 A 
HETATM   18 CL1  UNL     1      27.174  -2.392  52.572  1.00  0.00    -0.084 Cl
HETATM   19  C11 UNL     1      26.538   0.269  52.981  1.00  0.00     0.054 A 
ENDBRANCH  11  13
ENDBRANCH   7  11
BRANCH  10  20
HETATM   20  O2  UNL     1      21.674  -0.042  54.210  1.00  0.00    -0.319 OA
BRANCH  20  21
HETATM   21  C15 UNL     1      22.270  -1.299  54.490  1.00  0.00     0.398 C 
HETATM   22  F1  UNL     1      22.936  -1.244  55.708  1.00  0.00    -0.227 F 
ENDBRANCH  20  21
ENDBRANCH  10  20
BRANCH   1  23
HETATM   23  O1  UNL     1      20.162  -0.143  51.872  1.00  0.00    -0.353 OA
HETATM   24  C1  UNL     1      19.036   0.444  51.206  1.00  0.00     0.210 C 
ENDBRANCH   1  23
TORSDOF 5
ENDMDL
MODEL 3
REMARK VINA RESULT:      -7.5      4.772      6.349
REMARK  5 active torsions:
REMARK  status: ('A' for Active; 'I' for Inactive)
REMARK    1  A    between atoms: O1_2  and  C2_3 
REMARK    2  A    between atoms: N3_9  and  N4_10 
REMARK    3  A    between atoms: N4_10  and  C6_11 
REMARK    4  A    between atoms: C14_20  and  O2_21 
REMARK    5  A    between atoms: O2_21  and  C15_22 
ROOT
HETATM    1  C2  UNL     1      25.388   0.138  53.565  1.00  0.00     0.103 C 
HETATM    2  C3  UNL     1      24.203  -0.158  53.058  1.00  0.00     0.069 C 
HETATM    3  C4  UNL     1      23.463   0.997  52.573  1.00  0.00     0.069 C 
HETATM    4  N1  UNL     1      22.352   0.765  51.955  1.00  0.00    -0.242 NA
HETATM    5  C5  UNL     1      21.601   1.848  51.431  1.00  0.00     0.257 C 
HETATM    6  N2  UNL     1      21.978   3.102  51.508  1.00  0.00    -0.149 NA
HETATM    7  N3  UNL     1      23.204   3.425  52.128  1.00  0.00    -0.195 N 
HETATM    8  C12 UNL     1      23.801   2.390  52.846  1.00  0.00     0.206 C 
HETATM    9  C13 UNL     1      25.158   2.518  53.360  1.00  0.00     0.048 C 
HETATM   10  C14 UNL     1      25.908   1.490  53.711  1.00  0.00     0.103 C 
ENDROOT
BRANCH   7  11
HETATM   11  N4  UNL     1      23.848   4.665  52.083  1.00  0.00    -0.282 N 
HETATM   12  H6  UNL     1      23.998   5.219  52.958  1.00  0.00     0.189 HD
BRANCH  11  13
HETATM   13  C6  UNL     1      24.329   5.241  50.879  1.00  0.00     0.051 A 
HETATM   14  C7  UNL     1      23.659   6.225  50.188  1.00  0.00     0.031 A 
HETATM   15  C8  UNL     1      24.201   6.736  49.018  1.00  0.00     0.004 A 
HETATM   16  C9  UNL     1      25.399   6.291  48.509  1.00  0.00     0.024 A 
HETATM   17  C10 UNL     1      26.082   5.303  49.191  1.00  0.00     0.036 A 
HETATM   18 CL1  UNL     1      27.612   4.733  48.546  1.00  0.00    -0.084 Cl
HETATM   19  C11 UNL     1      25.527   4.802  50.363  1.00  0.00     0.054 A 
ENDBRANCH  11  13
ENDBRANCH   7  11
BRANCH  10  20
HETATM   20  O2  UNL     1      27.172   1.774  54.210  1.00  0.00    -0.319 OA
BRANCH  20  21
HETATM   21  C15 UNL     1      28.285   1.827  53.332  1.00  0.00     0.398 C 
HETATM   22  F1  UNL     1      28.992   3.005  53.539  1.00  0.00    -0.227 F 
ENDBRANCH  20  21
ENDBRANCH  10  20
BRANCH   1  23
HETATM   23  O1  UNL     1      26.244  -0.848  54.046  1.00  0.00    -0.353 OA
HETATM   24  C1  UNL     1      26.889  -1.623  53.027  1.00  0.00     0.210 C 
ENDBRANCH   1  23
TORSDOF 5
ENDMDL
MODEL 4
REMARK VINA RESULT:      -7.4      5.227      6.728
REMARK  5 active torsions:
REMARK  status: ('A' for Active; 'I' for Inactive)
REMARK    1  A    between atoms: O1_2  and  C2_3 
REMARK    2  A    between atoms: N3_9  and  N4_10 
REMARK    3  A    between atoms: N4_10  and  C6_11 
REMARK    4  A    between atoms: C14_20  and  O2_21 
REMARK    5  A    between atoms: O2_21  and  C15_22 
ROOT
HETATM    1  C2  UNL     1      25.645   0.038  53.333  1.00  0.00     0.103 C 
HETATM    2  C3  UNL     1      24.406   0.360  52.997  1.00  0.00     0.069 C 
HETATM    3  C4  UNL     1      24.321   1.338  51.922  1.00  0.00     0.069 C 
HETATM    4  N1  UNL     1      23.142   1.603  51.464  1.00  0.00    -0.242 NA
HETATM    5  C5  UNL     1      22.997   2.523  50.394  1.00  0.00     0.257 C 
HETATM    6  N2  UNL     1      24.004   3.120  49.804  1.00  0.00    -0.149 NA
HETATM    7  N3  UNL     1      25.323   2.841  50.222  1.00  0.00    -0.195 N 
HETATM    8  C12 UNL     1      25.434   2.136  51.419  1.00  0.00     0.206 C 
HETATM    9  C13 UNL     1      26.715   1.603  51.861  1.00  0.00     0.048 C 
HETATM   10  C14 UNL     1      26.838   0.640  52.756  1.00  0.00     0.103 C 
ENDROOT
BRANCH   7  11
HETATM   11  N4  UNL     1      26.494   3.207  49.551  1.00  0.00    -0.282 N 
HETATM   12  H6  UNL     1      27.230   2.495  49.339  1.00  0.00     0.189 HD
BRANCH  11  13
HETATM   13  C6  UNL     1      26.756   4.534  49.124  1.00  0.00     0.051 A 
HETATM   14  C7  UNL     1      25.836   5.554  49.206  1.00  0.00     0.031 A 
HETATM   15  C8  UNL     1      26.175   6.825  48.766  1.00  0.00     0.004 A 
HETATM   16  C9  UNL     1      27.413   7.114  48.241  1.00  0.00     0.024 A 
HETATM   17  C10 UNL     1      28.347   6.100  48.152  1.00  0.00     0.036 A 
HETATM   18 CL1  UNL     1      29.929   6.463  47.483  1.00  0.00    -0.084 Cl
HETATM   19  C11 UNL     1      27.993   4.831  48.598  1.00  0.00     0.054 A 
ENDBRANCH  11  13
ENDBRANCH   7  11
BRANCH  10  20
HETATM   20  O2  UNL     1      28.129   0.258  53.095  1.00  0.00    -0.319 OA
BRANCH  20  21
HETATM   21  C15 UNL     1      28.817   0.929  54.138  1.00  0.00     0.398 C 
HETATM   22  F1  UNL     1      28.749   0.180  55.306  1.00  0.00    -0.227 F 
ENDBRANCH  20  21
ENDBRANCH  10  20
BRANCH   1  23
HETATM   23  O1  UNL     1      25.913  -0.905  54.320  1.00  0.00    -0.353 OA
HETATM   24  C1  UNL     1      24.908  -1.000  55.338  1.00  0.00     0.210 C 
ENDBRANCH   1  23
TORSDOF 5
ENDMDL
MODEL 5
REMARK VINA RESULT:      -7.4      4.038      7.257
REMARK  5 active torsions:
REMARK  status: ('A' for Active; 'I' for Inactive)
REMARK    1  A    between atoms: O1_2  and  C2_3 
REMARK    2  A    between atoms: N3_9  and  N4_10 
REMARK    3  A    between atoms: N4_10  and  C6_11 
REMARK    4  A    between atoms: C14_20  and  O2_21 
REMARK    5  A    between atoms: O2_21  and  C15_22 
ROOT
HETATM    1  C2  UNL     1      27.495   0.287  53.799  1.00  0.00     0.103 C 
HETATM    2  C3  UNL     1      27.905   1.057  52.804  1.00  0.00     0.069 C 
HETATM    3  C4  UNL     1      26.837   1.805  52.158  1.00  0.00     0.069 C 
HETATM    4  N1  UNL     1      27.185   2.667  51.260  1.00  0.00    -0.242 NA
HETATM    5  C5  UNL     1      26.192   3.451  50.618  1.00  0.00     0.257 C 
HETATM    6  N2  UNL     1      24.913   3.380  50.898  1.00  0.00    -0.149 NA
HETATM    7  N3  UNL     1      24.467   2.493  51.901  1.00  0.00    -0.195 N 
HETATM    8  C12 UNL     1      25.409   1.566  52.342  1.00  0.00     0.206 C 
HETATM    9  C13 UNL     1      25.155   0.734  53.510  1.00  0.00     0.048 C 
HETATM   10  C14 UNL     1      26.104   0.121  54.193  1.00  0.00     0.103 C 
ENDROOT
BRANCH   7  11
HETATM   11  N4  UNL     1      23.190   2.471  52.471  1.00  0.00    -0.282 N 
HETATM   12  H6  UNL     1      22.995   2.990  53.358  1.00  0.00     0.189 HD
BRANCH  11  13
HETATM   13  C6  UNL     1      22.103   1.761  51.901  1.00  0.00     0.051 A 
HETATM   14  C7  UNL     1      21.821   1.758  50.554  1.00  0.00     0.031 A 
HETATM   15  C8  UNL     1      20.737   1.036  50.079  1.00  0.00     0.004 A 
HETATM   16  C9  UNL     1      19.916   0.310  50.911  1.00  0.00     0.024 A 
HETATM   17  C10 UNL     1      20.186   0.304  52.266  1.00  0.00     0.036 A 
HETATM   18 CL1  UNL     1      19.142  -0.620  53.332  1.00  0.00    -0.084 Cl
HETATM   19  C11 UNL     1      21.277   1.033  52.727  1.00  0.00     0.054 A 
ENDBRANCH  11  13
ENDBRANCH   7  11
BRANCH  10  20
HETATM   20  O2  UNL     1      25.702  -0.661  55.268  1.00  0.00    -0.319 OA
BRANCH  20  21
HETATM   21  C15 UNL     1      24.456  -1.338  55.225  1.00  0.00     0.398 C 
HETATM   22  F1  UNL     1      23.827  -1.246  56.460  1.00  0.00    -0.227 F 
ENDBRANCH  20  21
ENDBRANCH  10  20
BRANCH   1  23
HETATM   23  O1  UNL     1      28.387  -0.474  54.548  1.00  0.00    -0.353 OA
HETATM   24  C1  UNL     1      29.490  -1.003  53.801  1.00  0.00     0.210 C 
ENDBRANCH   1  23
TORSDOF 5
ENDMDL
MODEL 6
REMARK VINA RESULT:      -7.4      3.852      6.802
REMARK  5 active torsions:
REMARK  status: ('A' for Active; 'I' for Inactive)
REMARK    1  A    between atoms: O1_2  and  C2_3 
REMARK    2  A    between atoms: N3_9  and  N4_10 
REMARK    3  A    between atoms: N4_10  and  C6_11 
REMARK    4  A    between atoms: C14_20  and  O2_21 
REMARK    5  A    between atoms: O2_21  and  C15_22 
ROOT
HETATM    1  C2  UNL     1      27.466   0.839  53.667  1.00  0.00     0.103 C 
HETATM    2  C3  UNL     1      26.960   0.106  54.646  1.00  0.00     0.069 C 
HETATM    3  C4  UNL     1      25.541  -0.180  54.498  1.00  0.00     0.069 C 
HETATM    4  N1  UNL     1      25.014  -0.992  55.353  1.00  0.00    -0.242 NA
HETATM    5  C5  UNL     1      23.642  -1.336  55.241  1.00  0.00     0.257 C 
HETATM    6  N2  UNL     1      22.856  -0.896  54.289  1.00  0.00    -0.149 NA
HETATM    7  N3  UNL     1      23.376  -0.042  53.293  1.00  0.00    -0.195 N 
HETATM    8  C12 UNL     1      24.643   0.476  53.552  1.00  0.00     0.206 C 
HETATM    9  C13 UNL     1      25.384   1.198  52.527  1.00  0.00     0.048 C 
HETATM   10  C14 UNL     1      26.690   1.390  52.566  1.00  0.00     0.103 C 
ENDROOT
BRANCH   7  11
HETATM   11  N4  UNL     1      22.740   0.315  52.101  1.00  0.00    -0.282 N 
HETATM   12  H6  UNL     1      23.185   0.108  51.177  1.00  0.00     0.189 HD
BRANCH  11  13
HETATM   13  C6  UNL     1      21.480   0.967  52.063  1.00  0.00     0.051 A 
HETATM   14  C7  UNL     1      21.310   2.306  52.332  1.00  0.00     0.031 A 
HETATM   15  C8  UNL     1      20.042   2.864  52.272  1.00  0.00     0.004 A 
HETATM   16  C9  UNL     1      18.928   2.124  51.951  1.00  0.00     0.024 A 
HETATM   17  C10 UNL     1      19.083   0.778  51.679  1.00  0.00     0.036 A 
HETATM   18 CL1  UNL     1      17.665  -0.170  51.268  1.00  0.00    -0.084 Cl
HETATM   19  C11 UNL     1      20.361   0.233  51.742  1.00  0.00     0.054 A 
ENDBRANCH  11  13
ENDBRANCH   7  11
BRANCH  10  20
HETATM   20  O2  UNL     1      27.249   2.123  51.528  1.00  0.00    -0.319 OA
BRANCH  20  21
HETATM   21  C15 UNL     1      26.424   2.933  50.706  1.00  0.00     0.398 C 
HETATM   22  F1  UNL     1      26.800   2.791  49.375  1.00  0.00    -0.227 F 
ENDBRANCH  20  21
ENDBRANCH  10  20
BRANCH   1  23
HETATM   23  O1  UNL     1      28.814   1.181  53.632  1.00  0.00    -0.353 OA
HETATM   24  C1  UNL     1      29.710   0.079  53.825  1.00  0.00     0.210 C 
ENDBRANCH   1  23
TORSDOF 5
ENDMDL
MODEL 7
REMARK VINA RESULT:      -7.2      3.737      6.330
REMARK  5 active torsions:
REMARK  status: ('A' for Active; 'I' for Inactive)
REMARK    1  A    between atoms: O1_2  and  C2_3 
REMARK    2  A    between atoms: N3_9  and  N4_10 
REMARK    3  A    between atoms: N4_10  and  C6_11 
REMARK    4  A    between atoms: C14_20  and  O2_21 
REMARK    5  A    between atoms: O2_21  and  C15_22 
ROOT
HETATM    1  C2  UNL     1      26.244  -0.055  52.692  1.00  0.00     0.103 C 
HETATM    2  C3  UNL     1      25.440  -0.753  53.478  1.00  0.00     0.069 C 
HETATM    3  C4  UNL     1      24.086  -0.226  53.555  1.00  0.00     0.069 C 
HETATM    4  N1  UNL     1      23.220  -0.929  54.208  1.00  0.00    -0.242 NA
HETATM    5  C5  UNL     1      21.875  -0.484  54.290  1.00  0.00     0.257 C 
HETATM    6  N2  UNL     1      21.431   0.607  53.714  1.00  0.00    -0.149 NA
HETATM    7  N3  UNL     1      22.312   1.398  52.946  1.00  0.00    -0.195 N 
HETATM    8  C12 UNL     1      23.664   1.087  53.077  1.00  0.00     0.206 C 
HETATM    9  C13 UNL     1      24.660   1.678  52.194  1.00  0.00     0.048 C 
HETATM   10  C14 UNL     1      25.866   1.174  52.010  1.00  0.00     0.103 C 
ENDROOT
BRANCH   7  11
HETATM   11  N4  UNL     1      21.947   2.442  52.090  1.00  0.00    -0.282 N 
HETATM   12  H6  UNL     1      21.689   3.380  52.474  1.00  0.00     0.189 HD
BRANCH  11  13
HETATM   13  C6  UNL     1      21.902   2.303  50.679  1.00  0.00     0.051 A 
HETATM   14  C7  UNL     1      21.519   1.144  50.042  1.00  0.00     0.031 A 
HETATM   15  C8  UNL     1      21.502   1.093  48.657  1.00  0.00     0.004 A 
HETATM   16  C9  UNL     1      21.859   2.169  47.878  1.00  0.00     0.024 A 
HETATM   17  C10 UNL     1      22.246   3.339  48.503  1.00  0.00     0.036 A 
HETATM   18 CL1  UNL     1      22.701   4.716  47.514  1.00  0.00    -0.084 Cl
HETATM   19  C11 UNL     1      22.257   3.375  49.893  1.00  0.00     0.054 A 
ENDBRANCH  11  13
ENDBRANCH   7  11
BRANCH  10  20
HETATM   20  O2  UNL     1      26.715   1.867  51.158  1.00  0.00    -0.319 OA
BRANCH  20  21
HETATM   21  C15 UNL     1      26.253   3.028  50.486  1.00  0.00     0.398 C 
HETATM   22  F1  UNL     1      26.844   3.113  49.231  1.00  0.00    -0.227 F 
ENDBRANCH  20  21
ENDBRANCH  10  20
BRANCH   1  23
HETATM   23  O1  UNL     1      27.565  -0.434  52.477  1.00  0.00    -0.353 OA
HETATM   24  C1  UNL     1      28.401  -0.361  53.640  1.00  0.00     0.210 C 
ENDBRANCH   1  23
TORSDOF 5
ENDMDL
MODEL 8
REMARK VINA RESULT:      -7.1      5.499      7.226
REMARK  5 active torsions:
REMARK  status: ('A' for Active; 'I' for Inactive)
REMARK    1  A    between atoms: O1_2  and  C2_3 
REMARK    2  A    between atoms: N3_9  and  N4_10 
REMARK    3  A    between atoms: N4_10  and  C6_11 
REMARK    4  A    between atoms: C14_20  and  O2_21 
REMARK    5  A    between atoms: O2_21  and  C15_22 
ROOT
HETATM    1  C2  UNL     1      26.055   7.284  49.146  1.00  0.00     0.103 C 
HETATM    2  C3  UNL     1      25.034   7.249  49.987  1.00  0.00     0.069 C 
HETATM    3  C4  UNL     1      24.794   5.938  50.571  1.00  0.00     0.069 C 
HETATM    4  N1  UNL     1      23.891   5.862  51.492  1.00  0.00    -0.242 NA
HETATM    5  C5  UNL     1      23.635   4.618  52.123  1.00  0.00     0.257 C 
HETATM    6  N2  UNL     1      24.286   3.513  51.848  1.00  0.00    -0.149 NA
HETATM    7  N3  UNL     1      25.319   3.533  50.886  1.00  0.00    -0.195 N 
HETATM    8  C12 UNL     1      25.390   4.688  50.109  1.00  0.00     0.206 C 
HETATM    9  C13 UNL     1      26.523   4.932  49.227  1.00  0.00     0.048 C 
HETATM   10  C14 UNL     1      26.843   6.123  48.758  1.00  0.00     0.103 C 
ENDROOT
BRANCH   7  11
HETATM   11  N4  UNL     1      26.248   2.515  50.655  1.00  0.00    -0.282 N 
HETATM   12  H6  UNL     1      26.564   2.293  49.683  1.00  0.00     0.189 HD
BRANCH  11  13
HETATM   13  C6  UNL     1      26.813   1.734  51.697  1.00  0.00     0.051 A 
HETATM   14  C7  UNL     1      27.532   2.269  52.742  1.00  0.00     0.031 A 
HETATM   15  C8  UNL     1      28.049   1.433  53.720  1.00  0.00     0.004 A 
HETATM   16  C9  UNL     1      27.872   0.069  53.690  1.00  0.00     0.024 A 
HETATM   17  C10 UNL     1      27.153  -0.482  52.646  1.00  0.00     0.036 A 
HETATM   18 CL1  UNL     1      26.923  -2.221  52.603  1.00  0.00    -0.084 Cl
HETATM   19  C11 UNL     1      26.640   0.369  51.674  1.00  0.00     0.054 A 
ENDBRANCH  11  13
ENDBRANCH   7  11
BRANCH  10  20
HETATM   20  O2  UNL     1      27.936   6.192  47.904  1.00  0.00    -0.319 OA
BRANCH  20  21
HETATM   21  C15 UNL     1      29.227   5.842  48.376  1.00  0.00     0.398 C 
HETATM   22  F1  UNL     1      29.656   4.676  47.755  1.00  0.00    -0.227 F 
ENDBRANCH  20  21
ENDBRANCH  10  20
BRANCH   1  23
HETATM   23  O1  UNL     1      26.445   8.463  48.520  1.00  0.00    -0.353 OA
HETATM   24  C1  UNL     1      25.856   9.650  49.068  1.00  0.00     0.210 C 
ENDBRANCH   1  23
TORSDOF 5
ENDMDL
MODEL 9
REMARK VINA RESULT:      -7.1      4.747      6.714
REMARK  5 active torsions:
REMARK  status: ('A' for Active; 'I' for Inactive)
REMARK    1  A    between atoms: O1_2  and  C2_3 
REMARK    2  A    between atoms: N3_9  and  N4_10 
REMARK    3  A    between atoms: N4_10  and  C6_11 
REMARK    4  A    between atoms: C14_20  and  O2_21 
REMARK    5  A    between atoms: O2_21  and  C15_22 
ROOT
HETATM    1  C2  UNL     1      26.817  -0.136  53.747  1.00  0.00     0.103 C 
HETATM    2  C3  UNL     1      25.643  -0.708  53.957  1.00  0.00     0.069 C 
HETATM    3  C4  UNL     1      24.551  -0.109  53.203  1.00  0.00     0.069 C 
HETATM    4  N1  UNL     1      23.402  -0.696  53.269  1.00  0.00    -0.242 NA
HETATM    5  C5  UNL     1      22.306  -0.178  52.530  1.00  0.00     0.257 C 
HETATM    6  N2  UNL     1      22.387   0.867  51.744  1.00  0.00    -0.149 NA
HETATM    7  N3  UNL     1      23.623   1.530  51.588  1.00  0.00    -0.195 N 
HETATM    8  C12 UNL     1      24.615   1.167  52.497  1.00  0.00     0.206 C 
HETATM    9  C13 UNL     1      25.991   1.613  52.325  1.00  0.00     0.048 C 
HETATM   10  C14 UNL     1      27.026   1.033  52.905  1.00  0.00     0.103 C 
ENDROOT
BRANCH   7  11
HETATM   11  N4  UNL     1      23.923   2.496  50.623  1.00  0.00    -0.282 N 
HETATM   12  H6  UNL     1      24.384   2.224  49.723  1.00  0.00     0.189 HD
BRANCH  11  13
HETATM   13  C6  UNL     1      23.632   3.874  50.792  1.00  0.00     0.051 A 
HETATM   14  C7  UNL     1      22.400   4.346  51.183  1.00  0.00     0.031 A 
HETATM   15  C8  UNL     1      22.199   5.711  51.326  1.00  0.00     0.004 A 
HETATM   16  C9  UNL     1      23.196   6.629  51.088  1.00  0.00     0.024 A 
HETATM   17  C10 UNL     1      24.438   6.169  50.695  1.00  0.00     0.036 A 
HETATM   18 CL1  UNL     1      25.714   7.335  50.391  1.00  0.00    -0.084 Cl
HETATM   19  C11 UNL     1      24.624   4.798  50.557  1.00  0.00     0.054 A 
ENDBRANCH  11  13
ENDBRANCH   7  11
BRANCH  10  20
HETATM   20  O2  UNL     1      28.275   1.591  52.667  1.00  0.00    -0.319 OA
BRANCH  20  21
HETATM   21  C15 UNL     1      28.750   2.643  53.491  1.00  0.00     0.398 C 
HETATM   22  F1  UNL     1      29.439   2.116  54.577  1.00  0.00    -0.227 F 
ENDBRANCH  20  21
ENDBRANCH  10  20
BRANCH   1  23
HETATM   23  O1  UNL     1      27.976  -0.601  54.360  1.00  0.00    -0.353 OA
HETATM   24  C1  UNL     1      28.817  -1.396  53.515  1.00  0.00     0.210 C 
ENDBRANCH   1  23
TORSDOF 5
ENDMDL
