MODEL 1
REMARK VINA RESULT:      -8.8      0.000      0.000
REMARK  7 active torsions:
REMARK  status: ('A' for Active; 'I' for Inactive)
REMARK    1  A    between atoms: O1_2  and  C2_3 
REMARK    2  A    between atoms: C8_11  and  N3_12 
REMARK    3  A    between atoms: N3_12  and  C9_13 
REMARK    4  A    between atoms: C17_22  and  N4_23 
REMARK       I    between atoms: N4_23  and  C18_24 
REMARK    5  A    between atoms: C18_24  and  C19_26 
REMARK    6  A    between atoms: C20_27  and  C21_28 
REMARK    7  A    between atoms: C21_28  and  N5_29 
ROOT
HETATM    1  C2  UNL     1      23.136   3.104  49.381  1.00  0.00     0.097 A 
HETATM    2  C3  UNL     1      22.169   2.164  49.699  1.00  0.00     0.071 A 
HETATM    3  C4  UNL     1      22.290   1.401  50.862  1.00  0.00     0.071 A 
HETATM    4  N1  UNL     1      21.351   0.492  51.161  1.00  0.00    -0.259 NA
HETATM    5  C5  UNL     1      21.482  -0.243  52.287  1.00  0.00     0.142 A 
HETATM    6  C6  UNL     1      22.579  -0.044  53.110  1.00  0.00     0.089 A 
HETATM    7  C7  UNL     1      22.643  -0.866  54.288  1.00  0.00     0.103 C 
HETATM    8  N2  UNL     1      22.698  -1.519  55.258  1.00  0.00    -0.191 NA
HETATM    9  C8  UNL     1      23.568   0.891  52.825  1.00  0.00     0.067 A 
HETATM   10  C15 UNL     1      23.396   1.630  51.651  1.00  0.00     0.023 A 
HETATM   11  C16 UNL     1      24.392   2.547  51.392  1.00  0.00     0.048 A 
HETATM   12  C17 UNL     1      24.234   3.279  50.233  1.00  0.00     0.069 A 
ENDROOT
BRANCH   9  13
HETATM   13  N3  UNL     1      24.628   0.997  53.727  1.00  0.00    -0.354 N 
HETATM   14  H6  UNL     1      24.285   1.519  54.564  1.00  0.00     0.166 HD
BRANCH  13  15
HETATM   15  C9  UNL     1      25.938   0.525  53.612  1.00  0.00     0.034 A 
HETATM   16  C10 UNL     1      26.216  -0.723  53.092  1.00  0.00     0.029 A 
HETATM   17  C11 UNL     1      27.549  -1.122  53.010  1.00  0.00     0.004 A 
HETATM   18  C12 UNL     1      28.569  -0.273  53.449  1.00  0.00     0.024 A 
HETATM   19  C13 UNL     1      28.296   0.974  53.970  1.00  0.00     0.036 A 
HETATM   20 CL1  UNL     1      29.556   2.053  54.521  1.00  0.00    -0.084 Cl
HETATM   21  C14 UNL     1      26.968   1.339  54.036  1.00  0.00     0.053 A 
ENDBRANCH  13  15
ENDBRANCH   9  13
BRANCH  12  22
HETATM   22  N4  UNL     1      25.172   4.268  49.819  1.00  0.00    -0.321 N 
HETATM   23  C18 UNL     1      26.405   3.772  49.348  1.00  0.00     0.245 C 
HETATM   24  O2  UNL     1      26.626   2.546  49.309  1.00  0.00    -0.268 OA
HETATM   25  H12 UNL     1      24.918   5.294  49.877  1.00  0.00     0.169 HD
BRANCH  23  26
HETATM   26  C19 UNL     1      27.440   4.686  48.900  1.00  0.00     0.072 C 
HETATM   27  C20 UNL     1      27.207   5.956  48.607  1.00  0.00     0.008 C 
BRANCH  27  28
HETATM   28  C21 UNL     1      28.133   7.019  48.140  1.00  0.00     0.299 C 
BRANCH  28  29
HETATM   29  N5  UNL     1      27.747   8.267  48.728  1.00  0.00     0.083 N 
HETATM   30  C22 UNL     1      28.831   9.040  49.244  1.00  0.00     0.309 C 
HETATM   31  C23 UNL     1      26.659   8.059  49.638  1.00  0.00     0.309 C 
ENDBRANCH  28  29
ENDBRANCH  27  28
ENDBRANCH  23  26
ENDBRANCH  12  22
BRANCH   1  32
HETATM   32  O1  UNL     1      23.014   3.861  48.224  1.00  0.00    -0.354 OA
HETATM   33  C1  UNL     1      21.746   3.983  47.598  1.00  0.00     0.210 C 
ENDBRANCH   1  32
TORSDOF 7
ENDMDL
MODEL 2
REMARK VINA RESULT:      -8.3      2.500      5.002
REMARK  7 active torsions:
REMARK  status: ('A' for Active; 'I' for Inactive)
REMARK    1  A    between atoms: O1_2  and  C2_3 
REMARK    2  A    between atoms: C8_11  and  N3_12 
REMARK    3  A    between atoms: N3_12  and  C9_13 
REMARK    4  A    between atoms: C17_22  and  N4_23 
REMARK       I    between atoms: N4_23  and  C18_24 
REMARK    5  A    between atoms: C18_24  and  C19_26 
REMARK    6  A    between atoms: C20_27  and  C21_28 
REMARK    7  A    between atoms: C21_28  and  N5_29 
ROOT
HETATM    1  C2  UNL     1      27.226   1.096  52.937  1.00  0.00     0.097 A 
HETATM    2  C3  UNL     1      26.849   0.352  54.045  1.00  0.00     0.071 A 
HETATM    3  C4  UNL     1      25.540  -0.121  54.156  1.00  0.00     0.071 A 
HETATM    4  N1  UNL     1      25.183  -0.837  55.232  1.00  0.00    -0.259 NA
HETATM    5  C5  UNL     1      23.912  -1.286  55.330  1.00  0.00     0.142 A 
HETATM    6  C6  UNL     1      23.006  -1.001  54.322  1.00  0.00     0.089 A 
HETATM    7  C7  UNL     1      21.675  -1.516  54.503  1.00  0.00     0.103 C 
HETATM    8  N2  UNL     1      20.593  -1.943  54.633  1.00  0.00    -0.191 NA
HETATM    9  C8  UNL     1      23.349  -0.261  53.195  1.00  0.00     0.067 A 
HETATM   10  C15 UNL     1      24.672   0.186  53.131  1.00  0.00     0.023 A 
HETATM   11  C16 UNL     1      24.983   0.919  52.006  1.00  0.00     0.048 A 
HETATM   12  C17 UNL     1      26.285   1.367  51.936  1.00  0.00     0.069 A 
ENDROOT
BRANCH   9  13
HETATM   13  N3  UNL     1      22.348  -0.035  52.249  1.00  0.00    -0.354 N 
HETATM   14  H6  UNL     1      22.356  -0.833  51.577  1.00  0.00     0.166 HD
BRANCH  13  15
HETATM   15  C9  UNL     1      21.455   1.035  52.144  1.00  0.00     0.034 A 
HETATM   16  C10 UNL     1      20.094   0.837  52.041  1.00  0.00     0.029 A 
HETATM   17  C11 UNL     1      19.269   1.956  51.940  1.00  0.00     0.004 A 
HETATM   18  C12 UNL     1      19.819   3.241  51.943  1.00  0.00     0.024 A 
HETATM   19  C13 UNL     1      21.179   3.444  52.046  1.00  0.00     0.036 A 
HETATM   20 CL1  UNL     1      21.887   5.042  52.055  1.00  0.00    -0.084 Cl
HETATM   21  C14 UNL     1      21.966   2.316  52.145  1.00  0.00     0.053 A 
ENDBRANCH  13  15
ENDBRANCH   9  13
BRANCH  12  22
HETATM   22  N4  UNL     1      26.771   2.137  50.840  1.00  0.00    -0.321 N 
HETATM   23  C18 UNL     1      26.087   3.348  50.602  1.00  0.00     0.245 C 
HETATM   24  O2  UNL     1      25.128   3.690  51.321  1.00  0.00    -0.268 OA
HETATM   25  H12 UNL     1      27.592   1.788  50.271  1.00  0.00     0.169 HD
BRANCH  23  26
HETATM   26  C19 UNL     1      26.492   4.215  49.511  1.00  0.00     0.072 C 
HETATM   27  C20 UNL     1      26.055   5.458  49.373  1.00  0.00     0.008 C 
BRANCH  27  28
HETATM   28  C21 UNL     1      26.359   6.472  48.332  1.00  0.00     0.299 C 
BRANCH  28  29
HETATM   29  N5  UNL     1      27.039   7.576  48.940  1.00  0.00     0.083 N 
HETATM   30  C22 UNL     1      26.386   8.114  50.090  1.00  0.00     0.309 C 
HETATM   31  C23 UNL     1      27.399   8.536  47.938  1.00  0.00     0.309 C 
ENDBRANCH  28  29
ENDBRANCH  27  28
ENDBRANCH  23  26
ENDBRANCH  12  22
BRANCH   1  32
HETATM   32  O1  UNL     1      28.528   1.566  52.828  1.00  0.00    -0.354 OA
HETATM   33  C1  UNL     1      29.048   2.424  53.832  1.00  0.00     0.210 C 
ENDBRANCH   1  32
TORSDOF 7
ENDMDL
MODEL 3
REMARK VINA RESULT:      -8.2      2.335      4.919
REMARK  7 active torsions:
REMARK  status: ('A' for Active; 'I' for Inactive)
REMARK    1  A    between atoms: O1_2  and  C2_3 
REMARK    2  A    between atoms: C8_11  and  N3_12 
REMARK    3  A    between atoms: N3_12  and  C9_13 
REMARK    4  A    between atoms: C17_22  and  N4_23 
REMARK       I    between atoms: N4_23  and  C18_24 
REMARK    5  A    between atoms: C18_24  and  C19_26 
REMARK    6  A    between atoms: C20_27  and  C21_28 
REMARK    7  A    between atoms: C21_28  and  N5_29 
ROOT
HETATM    1  C2  UNL     1      26.985   1.429  52.706  1.00  0.00     0.097 A 
HETATM    2  C3  UNL     1      26.379   0.431  53.453  1.00  0.00     0.071 A 
HETATM    3  C4  UNL     1      24.989   0.301  53.448  1.00  0.00     0.071 A 
HETATM    4  N1  UNL     1      24.410  -0.666  54.176  1.00  0.00    -0.259 NA
HETATM    5  C5  UNL     1      23.064  -0.779  54.166  1.00  0.00     0.142 A 
HETATM    6  C6  UNL     1      22.309   0.100  53.406  1.00  0.00     0.089 A 
HETATM    7  C7  UNL     1      20.884  -0.089  53.451  1.00  0.00     0.103 C 
HETATM    8  N2  UNL     1      19.724  -0.243  53.468  1.00  0.00    -0.191 NA
HETATM    9  C8  UNL     1      22.882   1.111  52.643  1.00  0.00     0.067 A 
HETATM   10  C15 UNL     1      24.277   1.196  52.680  1.00  0.00     0.023 A 
HETATM   11  C16 UNL     1      24.817   2.208  51.917  1.00  0.00     0.048 A 
HETATM   12  C17 UNL     1      26.192   2.303  51.950  1.00  0.00     0.069 A 
ENDROOT
BRANCH   9  13
HETATM   13  N3  UNL     1      22.017   1.938  51.923  1.00  0.00    -0.354 N 
HETATM   14  H6  UNL     1      21.405   2.433  52.607  1.00  0.00     0.166 HD
BRANCH  13  15
HETATM   15  C9  UNL     1      21.919   2.127  50.542  1.00  0.00     0.034 A 
HETATM   16  C10 UNL     1      21.713   1.071  49.678  1.00  0.00     0.029 A 
HETATM   17  C11 UNL     1      21.627   1.341  48.314  1.00  0.00     0.004 A 
HETATM   18  C12 UNL     1      21.749   2.652  47.844  1.00  0.00     0.024 A 
HETATM   19  C13 UNL     1      21.956   3.710  48.703  1.00  0.00     0.036 A 
HETATM   20 CL1  UNL     1      22.109   5.358  48.138  1.00  0.00    -0.084 Cl
HETATM   21  C14 UNL     1      22.035   3.409  50.046  1.00  0.00     0.053 A 
ENDBRANCH  13  15
ENDBRANCH   9  13
BRANCH  12  22
HETATM   22  N4  UNL     1      26.910   3.292  51.217  1.00  0.00    -0.321 N 
HETATM   23  C18 UNL     1      26.450   3.523  49.904  1.00  0.00     0.245 C 
HETATM   24  O2  UNL     1      25.479   2.889  49.448  1.00  0.00    -0.268 OA
HETATM   25  H12 UNL     1      27.725   3.794  51.666  1.00  0.00     0.169 HD
BRANCH  23  26
HETATM   26  C19 UNL     1      27.104   4.508  49.062  1.00  0.00     0.072 C 
HETATM   27  C20 UNL     1      26.676   5.754  48.937  1.00  0.00     0.008 C 
BRANCH  27  28
HETATM   28  C21 UNL     1      27.214   6.878  48.130  1.00  0.00     0.299 C 
BRANCH  28  29
HETATM   29  N5  UNL     1      27.062   8.097  48.866  1.00  0.00     0.083 N 
HETATM   30  C22 UNL     1      28.284   8.789  49.127  1.00  0.00     0.309 C 
HETATM   31  C23 UNL     1      26.233   7.871  50.013  1.00  0.00     0.309 C 
ENDBRANCH  28  29
ENDBRANCH  27  28
ENDBRANCH  23  26
ENDBRANCH  12  22
BRANCH   1  32
HETATM   32  O1  UNL     1      28.368   1.558  52.712  1.00  0.00    -0.354 OA
HETATM   33  C1  UNL     1      29.081   1.386  53.927  1.00  0.00     0.210 C 
ENDBRANCH   1  32
TORSDOF 7
ENDMDL
MODEL 4
REMARK VINA RESULT:      -8.1      4.073      7.564
REMARK  7 active torsions:
REMARK  status: ('A' for Active; 'I' for Inactive)
REMARK    1  A    between atoms: O1_2  and  C2_3 
REMARK    2  A    between atoms: C8_11  and  N3_12 
REMARK    3  A    between atoms: N3_12  and  C9_13 
REMARK    4  A    between atoms: C17_22  and  N4_23 
REMARK       I    between atoms: N4_23  and  C18_24 
REMARK    5  A    between atoms: C18_24  and  C19_26 
REMARK    6  A    between atoms: C20_27  and  C21_28 
REMARK    7  A    between atoms: C21_28  and  N5_29 
ROOT
HETATM    1  C2  UNL     1      19.808  -0.842  53.473  1.00  0.00     0.097 A 
HETATM    2  C3  UNL     1      20.626  -1.404  54.441  1.00  0.00     0.071 A 
HETATM    3  C4  UNL     1      21.995  -1.130  54.446  1.00  0.00     0.071 A 
HETATM    4  N1  UNL     1      22.779  -1.680  55.384  1.00  0.00    -0.259 NA
HETATM    5  C5  UNL     1      24.103  -1.410  55.375  1.00  0.00     0.142 A 
HETATM    6  C6  UNL     1      24.624  -0.573  54.402  1.00  0.00     0.089 A 
HETATM    7  C7  UNL     1      26.041  -0.337  54.463  1.00  0.00     0.103 C 
HETATM    8  N2  UNL     1      27.192  -0.127  54.512  1.00  0.00    -0.191 NA
HETATM    9  C8  UNL     1      23.835   0.011  53.417  1.00  0.00     0.067 A 
HETATM   10  C15 UNL     1      22.471  -0.293  53.460  1.00  0.00     0.023 A 
HETATM   11  C16 UNL     1      21.714   0.296  52.471  1.00  0.00     0.048 A 
HETATM   12  C17 UNL     1      20.367  -0.000  52.502  1.00  0.00     0.069 A 
ENDROOT
BRANCH   9  13
HETATM   13  N3  UNL     1      24.475   0.833  52.487  1.00  0.00    -0.354 N 
HETATM   14  H6  UNL     1      25.204   0.263  52.005  1.00  0.00     0.166 HD
BRANCH  13  15
HETATM   15  C9  UNL     1      24.248   2.180  52.193  1.00  0.00     0.034 A 
HETATM   16  C10 UNL     1      24.099   3.124  53.188  1.00  0.00     0.029 A 
HETATM   17  C11 UNL     1      23.875   4.448  52.813  1.00  0.00     0.004 A 
HETATM   18  C12 UNL     1      23.802   4.797  51.462  1.00  0.00     0.024 A 
HETATM   19  C13 UNL     1      23.950   3.857  50.465  1.00  0.00     0.036 A 
HETATM   20 CL1  UNL     1      23.866   4.272  48.768  1.00  0.00    -0.084 Cl
HETATM   21  C14 UNL     1      24.171   2.557  50.869  1.00  0.00     0.053 A 
ENDBRANCH  13  15
ENDBRANCH   9  13
BRANCH  12  22
HETATM   22  N4  UNL     1      19.444   0.527  51.554  1.00  0.00    -0.321 N 
HETATM   23  C18 UNL     1      19.115   1.888  51.724  1.00  0.00     0.245 C 
HETATM   24  O2  UNL     1      19.615   2.554  52.650  1.00  0.00    -0.268 OA
HETATM   25  H12 UNL     1      19.058  -0.095  50.790  1.00  0.00     0.169 HD
BRANCH  23  26
HETATM   26  C19 UNL     1      18.182   2.534  50.818  1.00  0.00     0.072 C 
HETATM   27  C20 UNL     1      17.324   3.465  51.205  1.00  0.00     0.008 C 
BRANCH  27  28
HETATM   28  C21 UNL     1      16.312   4.221  50.425  1.00  0.00     0.299 C 
BRANCH  28  29
HETATM   29  N5  UNL     1      15.047   4.134  51.091  1.00  0.00     0.083 N 
HETATM   30  C22 UNL     1      15.133   3.954  52.505  1.00  0.00     0.309 C 
HETATM   31  C23 UNL     1      14.202   3.199  50.408  1.00  0.00     0.309 C 
ENDBRANCH  28  29
ENDBRANCH  27  28
ENDBRANCH  23  26
ENDBRANCH  12  22
BRANCH   1  32
HETATM   32  O1  UNL     1      18.447  -1.115  53.470  1.00  0.00    -0.354 OA
HETATM   33  C1  UNL     1      18.002  -2.451  53.649  1.00  0.00     0.210 C 
ENDBRANCH   1  32
TORSDOF 7
ENDMDL
MODEL 5
REMARK VINA RESULT:      -8.0      2.282      2.723
REMARK  7 active torsions:
REMARK  status: ('A' for Active; 'I' for Inactive)
REMARK    1  A    between atoms: O1_2  and  C2_3 
REMARK    2  A    between atoms: C8_11  and  N3_12 
REMARK    3  A    between atoms: N3_12  and  C9_13 
REMARK    4  A    between atoms: C17_22  and  N4_23 
REMARK       I    between atoms: N4_23  and  C18_24 
REMARK    5  A    between atoms: C18_24  and  C19_26 
REMARK    6  A    between atoms: C20_27  and  C21_28 
REMARK    7  A    between atoms: C21_28  and  N5_29 
ROOT
HETATM    1  C2  UNL     1      23.335   6.014  51.197  1.00  0.00     0.097 A 
HETATM    2  C3  UNL     1      22.191   5.403  51.685  1.00  0.00     0.071 A 
HETATM    3  C4  UNL     1      22.185   4.030  51.938  1.00  0.00     0.071 A 
HETATM    4  N1  UNL     1      21.072   3.446  52.408  1.00  0.00    -0.259 NA
HETATM    5  C5  UNL     1      21.078   2.116  52.645  1.00  0.00     0.142 A 
HETATM    6  C6  UNL     1      22.228   1.382  52.401  1.00  0.00     0.089 A 
HETATM    7  C7  UNL     1      22.151  -0.026  52.680  1.00  0.00     0.103 C 
HETATM    8  N2  UNL     1      22.104  -1.172  52.917  1.00  0.00    -0.191 NA
HETATM    9  C8  UNL     1      23.395   1.961  51.914  1.00  0.00     0.067 A 
HETATM   10  C15 UNL     1      23.349   3.339  51.681  1.00  0.00     0.023 A 
HETATM   11  C16 UNL     1      24.517   3.885  51.197  1.00  0.00     0.048 A 
HETATM   12  C17 UNL     1      24.481   5.243  50.960  1.00  0.00     0.069 A 
ENDROOT
BRANCH   9  13
HETATM   13  N3  UNL     1      24.488   1.118  51.704  1.00  0.00    -0.354 N 
HETATM   14  H6  UNL     1      24.446   0.779  50.718  1.00  0.00     0.166 HD
BRANCH  13  15
HETATM   15  C9  UNL     1      25.499   0.742  52.592  1.00  0.00     0.034 A 
HETATM   16  C10 UNL     1      25.804   1.497  53.706  1.00  0.00     0.029 A 
HETATM   17  C11 UNL     1      26.826   1.055  54.544  1.00  0.00     0.004 A 
HETATM   18  C12 UNL     1      27.517  -0.124  54.253  1.00  0.00     0.024 A 
HETATM   19  C13 UNL     1      27.216  -0.883  53.142  1.00  0.00     0.036 A 
HETATM   20 CL1  UNL     1      28.066  -2.362  52.761  1.00  0.00    -0.084 Cl
HETATM   21  C14 UNL     1      26.200  -0.418  52.334  1.00  0.00     0.053 A 
ENDBRANCH  13  15
ENDBRANCH   9  13
BRANCH  12  22
HETATM   22  N4  UNL     1      25.603   5.964  50.460  1.00  0.00    -0.321 N 
HETATM   23  C18 UNL     1      25.682   6.060  49.055  1.00  0.00     0.245 C 
HETATM   24  O2  UNL     1      24.812   5.539  48.330  1.00  0.00    -0.268 OA
HETATM   25  H12 UNL     1      26.305   6.383  51.132  1.00  0.00     0.169 HD
BRANCH  23  26
HETATM   26  C19 UNL     1      26.783   6.769  48.430  1.00  0.00     0.072 C 
HETATM   27  C20 UNL     1      27.970   6.221  48.216  1.00  0.00     0.008 C 
BRANCH  27  28
HETATM   28  C21 UNL     1      29.193   6.792  47.598  1.00  0.00     0.299 C 
BRANCH  28  29
HETATM   29  N5  UNL     1      29.813   7.687  48.530  1.00  0.00     0.083 N 
HETATM   30  C22 UNL     1      29.841   9.052  48.112  1.00  0.00     0.309 C 
HETATM   31  C23 UNL     1      31.075   7.152  48.950  1.00  0.00     0.309 C 
ENDBRANCH  28  29
ENDBRANCH  27  28
ENDBRANCH  23  26
ENDBRANCH  12  22
BRANCH   1  32
HETATM   32  O1  UNL     1      23.339   7.379  50.946  1.00  0.00    -0.354 OA
HETATM   33  C1  UNL     1      22.467   7.912  49.961  1.00  0.00     0.210 C 
ENDBRANCH   1  32
TORSDOF 7
ENDMDL
MODEL 6
REMARK VINA RESULT:      -7.8      3.241      6.851
REMARK  7 active torsions:
REMARK  status: ('A' for Active; 'I' for Inactive)
REMARK    1  A    between atoms: O1_2  and  C2_3 
REMARK    2  A    between atoms: C8_11  and  N3_12 
REMARK    3  A    between atoms: N3_12  and  C9_13 
REMARK    4  A    between atoms: C17_22  and  N4_23 
REMARK       I    between atoms: N4_23  and  C18_24 
REMARK    5  A    between atoms: C18_24  and  C19_26 
REMARK    6  A    between atoms: C20_27  and  C21_28 
REMARK    7  A    between atoms: C21_28  and  N5_29 
ROOT
HETATM    1  C2  UNL     1      21.673   0.976  53.217  1.00  0.00     0.097 A 
HETATM    2  C3  UNL     1      20.415   1.552  53.132  1.00  0.00     0.071 A 
HETATM    3  C4  UNL     1      20.171   2.566  52.203  1.00  0.00     0.071 A 
HETATM    4  N1  UNL     1      18.952   3.119  52.129  1.00  0.00    -0.259 NA
HETATM    5  C5  UNL     1      18.730   4.102  51.228  1.00  0.00     0.142 A 
HETATM    6  C6  UNL     1      19.760   4.516  50.400  1.00  0.00     0.089 A 
HETATM    7  C7  UNL     1      19.441   5.566  49.470  1.00  0.00     0.103 C 
HETATM    8  N2  UNL     1      19.188   6.409  48.699  1.00  0.00    -0.191 NA
HETATM    9  C8  UNL     1      21.034   3.960  50.454  1.00  0.00     0.067 A 
HETATM   10  C15 UNL     1      21.223   2.948  51.399  1.00  0.00     0.023 A 
HETATM   11  C16 UNL     1      22.495   2.417  51.434  1.00  0.00     0.048 A 
HETATM   12  C17 UNL     1      22.693   1.419  52.365  1.00  0.00     0.069 A 
ENDROOT
BRANCH   9  13
HETATM   13  N3  UNL     1      21.991   4.464  49.572  1.00  0.00    -0.354 N 
HETATM   14  H6  UNL     1      21.760   4.115  48.616  1.00  0.00     0.166 HD
BRANCH  13  15
HETATM   15  C9  UNL     1      23.088   5.288  49.834  1.00  0.00     0.034 A 
HETATM   16  C10 UNL     1      22.981   6.406  50.636  1.00  0.00     0.029 A 
HETATM   17  C11 UNL     1      24.122   7.177  50.850  1.00  0.00     0.004 A 
HETATM   18  C12 UNL     1      25.337   6.819  50.260  1.00  0.00     0.024 A 
HETATM   19  C13 UNL     1      25.449   5.704  49.457  1.00  0.00     0.036 A 
HETATM   20 CL1  UNL     1      26.960   5.237  48.712  1.00  0.00    -0.084 Cl
HETATM   21  C14 UNL     1      24.303   4.962  49.267  1.00  0.00     0.053 A 
ENDBRANCH  13  15
ENDBRANCH   9  13
BRANCH  12  22
HETATM   22  N4  UNL     1      23.948   0.764  52.531  1.00  0.00    -0.321 N 
HETATM   23  C18 UNL     1      24.969   1.552  53.102  1.00  0.00     0.245 C 
HETATM   24  O2  UNL     1      24.755   2.735  53.429  1.00  0.00    -0.268 OA
HETATM   25  H12 UNL     1      24.061  -0.244  52.232  1.00  0.00     0.169 HD
BRANCH  23  26
HETATM   26  C19 UNL     1      26.291   0.992  53.317  1.00  0.00     0.072 C 
HETATM   27  C20 UNL     1      26.733   0.615  54.506  1.00  0.00     0.008 C 
BRANCH  27  28
HETATM   28  C21 UNL     1      28.039   0.031  54.904  1.00  0.00     0.299 C 
BRANCH  28  29
HETATM   29  N5  UNL     1      29.056   0.512  54.017  1.00  0.00     0.083 N 
HETATM   30  C22 UNL     1      30.014  -0.472  53.624  1.00  0.00     0.309 C 
HETATM   31  C23 UNL     1      29.609   1.731  54.528  1.00  0.00     0.309 C 
ENDBRANCH  28  29
ENDBRANCH  27  28
ENDBRANCH  23  26
ENDBRANCH  12  22
BRANCH   1  32
HETATM   32  O1  UNL     1      21.914  -0.031  54.142  1.00  0.00    -0.354 OA
HETATM   33  C1  UNL     1      21.242  -1.274  54.013  1.00  0.00     0.210 C 
ENDBRANCH   1  32
TORSDOF 7
ENDMDL
MODEL 7
REMARK VINA RESULT:      -7.7      4.052      7.403
REMARK  7 active torsions:
REMARK  status: ('A' for Active; 'I' for Inactive)
REMARK    1  A    between atoms: O1_2  and  C2_3 
REMARK    2  A    between atoms: C8_11  and  N3_12 
REMARK    3  A    between atoms: N3_12  and  C9_13 
REMARK    4  A    between atoms: C17_22  and  N4_23 
REMARK       I    between atoms: N4_23  and  C18_24 
REMARK    5  A    between atoms: C18_24  and  C19_26 
REMARK    6  A    between atoms: C20_27  and  C21_28 
REMARK    7  A    between atoms: C21_28  and  N5_29 
ROOT
HETATM    1  C2  UNL     1      20.959   0.347  51.832  1.00  0.00     0.097 A 
HETATM    2  C3  UNL     1      21.914  -0.372  52.534  1.00  0.00     0.071 A 
HETATM    3  C4  UNL     1      23.144   0.213  52.840  1.00  0.00     0.071 A 
HETATM    4  N1  UNL     1      24.064  -0.491  53.517  1.00  0.00    -0.259 NA
HETATM    5  C5  UNL     1      25.252   0.085  53.803  1.00  0.00     0.142 A 
HETATM    6  C6  UNL     1      25.498   1.386  53.395  1.00  0.00     0.089 A 
HETATM    7  C7  UNL     1      26.786   1.924  53.740  1.00  0.00     0.103 C 
HETATM    8  N2  UNL     1      27.826   2.377  54.029  1.00  0.00    -0.191 NA
HETATM    9  C8  UNL     1      24.563   2.139  52.693  1.00  0.00     0.067 A 
HETATM   10  C15 UNL     1      23.347   1.508  52.415  1.00  0.00     0.023 A 
HETATM   11  C16 UNL     1      22.441   2.276  51.716  1.00  0.00     0.048 A 
HETATM   12  C17 UNL     1      21.240   1.661  51.434  1.00  0.00     0.069 A 
ENDROOT
BRANCH   9  13
HETATM   13  N3  UNL     1      24.928   3.438  52.332  1.00  0.00    -0.354 N 
HETATM   14  H6  UNL     1      24.761   4.057  53.155  1.00  0.00     0.166 HD
BRANCH  13  15
HETATM   15  C9  UNL     1      25.430   3.910  51.117  1.00  0.00     0.034 A 
HETATM   16  C10 UNL     1      26.496   3.301  50.487  1.00  0.00     0.029 A 
HETATM   17  C11 UNL     1      26.939   3.832  49.277  1.00  0.00     0.004 A 
HETATM   18  C12 UNL     1      26.312   4.953  48.726  1.00  0.00     0.024 A 
HETATM   19  C13 UNL     1      25.247   5.565  49.351  1.00  0.00     0.036 A 
HETATM   20 CL1  UNL     1      24.446   6.966  48.678  1.00  0.00    -0.084 Cl
HETATM   21  C14 UNL     1      24.833   5.015  50.546  1.00  0.00     0.053 A 
ENDBRANCH  13  15
ENDBRANCH   9  13
BRANCH  12  22
HETATM   22  N4  UNL     1      20.194   2.314  50.719  1.00  0.00    -0.321 N 
HETATM   23  C18 UNL     1      19.428   3.228  51.472  1.00  0.00     0.245 C 
HETATM   24  O2  UNL     1      19.677   3.429  52.677  1.00  0.00    -0.268 OA
HETATM   25  H12 UNL     1      20.038   2.098  49.696  1.00  0.00     0.169 HD
BRANCH  23  26
HETATM   26  C19 UNL     1      18.334   3.953  50.851  1.00  0.00     0.072 C 
HETATM   27  C20 UNL     1      17.062   3.630  51.023  1.00  0.00     0.008 C 
BRANCH  27  28
HETATM   28  C21 UNL     1      15.831   4.251  50.473  1.00  0.00     0.299 C 
BRANCH  28  29
HETATM   29  N5  UNL     1      14.698   3.780  51.212  1.00  0.00     0.083 N 
HETATM   30  C22 UNL     1      13.447   4.327  50.793  1.00  0.00     0.309 C 
HETATM   31  C23 UNL     1      14.964   3.872  52.618  1.00  0.00     0.309 C 
ENDBRANCH  28  29
ENDBRANCH  27  28
ENDBRANCH  23  26
ENDBRANCH  12  22
BRANCH   1  32
HETATM   32  O1  UNL     1      19.736  -0.236  51.528  1.00  0.00    -0.354 OA
HETATM   33  C1  UNL     1      18.787  -0.450  52.562  1.00  0.00     0.210 C 
ENDBRANCH   1  32
TORSDOF 7
ENDMDL
MODEL 8
REMARK VINA RESULT:      -7.6      3.847      6.049
REMARK  7 active torsions:
REMARK  status: ('A' for Active; 'I' for Inactive)
REMARK    1  A    between atoms: O1_2  and  C2_3 
REMARK    2  A    between atoms: C8_11  and  N3_12 
REMARK    3  A    between atoms: N3_12  and  C9_13 
REMARK    4  A    between atoms: C17_22  and  N4_23 
REMARK       I    between atoms: N4_23  and  C18_24 
REMARK    5  A    between atoms: C18_24  and  C19_26 
REMARK    6  A    between atoms: C20_27  and  C21_28 
REMARK    7  A    between atoms: C21_28  and  N5_29 
ROOT
HETATM    1  C2  UNL     1      25.169   3.346  50.987  1.00  0.00     0.097 A 
HETATM    2  C3  UNL     1      25.705   2.227  51.605  1.00  0.00     0.071 A 
HETATM    3  C4  UNL     1      24.881   1.374  52.342  1.00  0.00     0.071 A 
HETATM    4  N1  UNL     1      25.407   0.294  52.939  1.00  0.00    -0.259 NA
HETATM    5  C5  UNL     1      24.600  -0.521  53.653  1.00  0.00     0.142 A 
HETATM    6  C6  UNL     1      23.250  -0.230  53.753  1.00  0.00     0.089 A 
HETATM    7  C7  UNL     1      22.461  -1.148  54.530  1.00  0.00     0.103 C 
HETATM    8  N2  UNL     1      21.807  -1.896  55.148  1.00  0.00    -0.191 NA
HETATM    9  C8  UNL     1      22.677   0.882  53.145  1.00  0.00     0.067 A 
HETATM   10  C15 UNL     1      23.544   1.701  52.417  1.00  0.00     0.023 A 
HETATM   11  C16 UNL     1      22.951   2.796  51.828  1.00  0.00     0.048 A 
HETATM   12  C17 UNL     1      23.799   3.613  51.110  1.00  0.00     0.069 A 
ENDROOT
BRANCH   9  13
HETATM   13  N3  UNL     1      21.305   1.073  53.323  1.00  0.00    -0.354 N 
HETATM   14  H6  UNL     1      21.168   1.595  54.216  1.00  0.00     0.166 HD
BRANCH  13  15
HETATM   15  C9  UNL     1      20.244   0.671  52.507  1.00  0.00     0.034 A 
HETATM   16  C10 UNL     1      20.087   1.160  51.227  1.00  0.00     0.029 A 
HETATM   17  C11 UNL     1      19.002   0.711  50.476  1.00  0.00     0.004 A 
HETATM   18  C12 UNL     1      18.102  -0.210  51.018  1.00  0.00     0.024 A 
HETATM   19  C13 UNL     1      18.254  -0.701  52.297  1.00  0.00     0.036 A 
HETATM   20 CL1  UNL     1      17.141  -1.856  52.993  1.00  0.00    -0.084 Cl
HETATM   21  C14 UNL     1      19.337  -0.238  53.012  1.00  0.00     0.053 A 
ENDBRANCH  13  15
ENDBRANCH   9  13
BRANCH  12  22
HETATM   22  N4  UNL     1      23.347   4.785  50.438  1.00  0.00    -0.321 N 
HETATM   23  C18 UNL     1      23.373   5.968  51.205  1.00  0.00     0.245 C 
HETATM   24  O2  UNL     1      23.771   5.954  52.387  1.00  0.00    -0.268 OA
HETATM   25  H12 UNL     1      23.024   4.727  49.433  1.00  0.00     0.169 HD
BRANCH  23  26
HETATM   26  C19 UNL     1      22.934   7.226  50.628  1.00  0.00     0.072 C 
HETATM   27  C20 UNL     1      21.677   7.467  50.288  1.00  0.00     0.008 C 
BRANCH  27  28
HETATM   28  C21 UNL     1      21.060   8.679  49.693  1.00  0.00     0.299 C 
BRANCH  28  29
HETATM   29  N5  UNL     1      19.642   8.492  49.616  1.00  0.00     0.083 N 
HETATM   30  C22 UNL     1      19.177   7.990  48.363  1.00  0.00     0.309 C 
HETATM   31  C23 UNL     1      18.971   9.667  50.089  1.00  0.00     0.309 C 
ENDBRANCH  28  29
ENDBRANCH  27  28
ENDBRANCH  23  26
ENDBRANCH  12  22
BRANCH   1  32
HETATM   32  O1  UNL     1      25.990   4.194  50.255  1.00  0.00    -0.354 OA
HETATM   33  C1  UNL     1      26.815   3.657  49.231  1.00  0.00     0.210 C 
ENDBRANCH   1  32
TORSDOF 7
ENDMDL
MODEL 9
REMARK VINA RESULT:      -7.5      3.092      8.271
REMARK  7 active torsions:
REMARK  status: ('A' for Active; 'I' for Inactive)
REMARK    1  A    between atoms: O1_2  and  C2_3 
REMARK    2  A    between atoms: C8_11  and  N3_12 
REMARK    3  A    between atoms: N3_12  and  C9_13 
REMARK    4  A    between atoms: C17_22  and  N4_23 
REMARK       I    between atoms: N4_23  and  C18_24 
REMARK    5  A    between atoms: C18_24  and  C19_26 
REMARK    6  A    between atoms: C20_27  and  C21_28 
REMARK    7  A    between atoms: C21_28  and  N5_29 
ROOT
HETATM    1  C2  UNL     1      24.263   5.295  49.150  1.00  0.00     0.097 A 
HETATM    2  C3  UNL     1      24.163   6.263  48.163  1.00  0.00     0.071 A 
HETATM    3  C4  UNL     1      25.262   7.070  47.861  1.00  0.00     0.071 A 
HETATM    4  N1  UNL     1      25.156   8.006  46.906  1.00  0.00    -0.259 NA
HETATM    5  C5  UNL     1      26.225   8.783  46.626  1.00  0.00     0.142 A 
HETATM    6  C6  UNL     1      27.407   8.598  47.325  1.00  0.00     0.089 A 
HETATM    7  C7  UNL     1      28.496   9.466  46.966  1.00  0.00     0.103 C 
HETATM    8  N2  UNL     1      29.394  10.157  46.671  1.00  0.00    -0.191 NA
HETATM    9  C8  UNL     1      27.545   7.636  48.319  1.00  0.00     0.067 A 
HETATM   10  C15 UNL     1      26.417   6.853  48.580  1.00  0.00     0.023 A 
HETATM   11  C16 UNL     1      26.581   5.910  49.572  1.00  0.00     0.048 A 
HETATM   12  C17 UNL     1      25.472   5.135  49.839  1.00  0.00     0.069 A 
ENDROOT
BRANCH   9  13
HETATM   13  N3  UNL     1      28.784   7.549  48.958  1.00  0.00    -0.354 N 
HETATM   14  H6  UNL     1      28.726   8.095  49.845  1.00  0.00     0.166 HD
BRANCH  13  15
HETATM   15  C9  UNL     1      29.941   6.878  48.553  1.00  0.00     0.034 A 
HETATM   16  C10 UNL     1      29.893   5.613  48.004  1.00  0.00     0.029 A 
HETATM   17  C11 UNL     1      31.091   5.011  47.626  1.00  0.00     0.004 A 
HETATM   18  C12 UNL     1      32.305   5.680  47.805  1.00  0.00     0.024 A 
HETATM   19  C13 UNL     1      32.359   6.944  48.353  1.00  0.00     0.036 A 
HETATM   20 CL1  UNL     1      33.866   7.800  48.583  1.00  0.00    -0.084 Cl
HETATM   21  C14 UNL     1      31.156   7.511  48.716  1.00  0.00     0.053 A 
ENDBRANCH  13  15
ENDBRANCH   9  13
BRANCH  12  22
HETATM   22  N4  UNL     1      25.473   4.114  50.833  1.00  0.00    -0.321 N 
HETATM   23  C18 UNL     1      26.201   2.952  50.504  1.00  0.00     0.245 C 
HETATM   24  O2  UNL     1      26.793   2.858  49.411  1.00  0.00    -0.268 OA
HETATM   25  H12 UNL     1      24.951   4.260  51.741  1.00  0.00     0.169 HD
BRANCH  23  26
HETATM   26  C19 UNL     1      26.272   1.843  51.439  1.00  0.00     0.072 C 
HETATM   27  C20 UNL     1      26.556   1.995  52.723  1.00  0.00     0.008 C 
BRANCH  27  28
HETATM   28  C21 UNL     1      26.670   0.986  53.806  1.00  0.00     0.299 C 
BRANCH  28  29
HETATM   29  N5  UNL     1      27.879   0.240  53.626  1.00  0.00     0.083 N 
HETATM   30  C22 UNL     1      27.693  -1.067  53.083  1.00  0.00     0.309 C 
HETATM   31  C23 UNL     1      28.668   0.298  54.821  1.00  0.00     0.309 C 
ENDBRANCH  28  29
ENDBRANCH  27  28
ENDBRANCH  23  26
ENDBRANCH  12  22
BRANCH   1  32
HETATM   32  O1  UNL     1      23.169   4.494  49.450  1.00  0.00    -0.354 OA
HETATM   33  C1  UNL     1      22.645   3.626  48.457  1.00  0.00     0.210 C 
ENDBRANCH   1  32
TORSDOF 7
ENDMDL
