MODEL 1
REMARK VINA RESULT:      -8.2      0.000      0.000
REMARK  2 active torsions:
REMARK  status: ('A' for Active; 'I' for Inactive)
REMARK    1  A    between atoms: C5_6  and  N1_7 
REMARK    2  A    between atoms: N1_7  and  C6_8 
ROOT
HETATM    1  C6  UNL     1      26.770   0.903  52.542  1.00  0.00     0.145 A 
HETATM    2  N2  UNL     1      28.028   1.331  52.713  1.00  0.00    -0.223 NA
HETATM    3  C7  UNL     1      28.671   1.200  53.860  1.00  0.00     0.238 A 
HETATM    4  N3  UNL     1      28.123   0.630  54.955  1.00  0.00    -0.217 NA
HETATM    5  C8  UNL     1      26.849   0.169  54.872  1.00  0.00     0.186 A 
HETATM    6  O1  UNL     1      26.028  -0.419  55.706  1.00  0.00    -0.290 OA
HETATM    7  C9  UNL     1      24.864  -0.675  55.124  1.00  0.00     0.089 A 
HETATM    8  C10 UNL     1      23.724  -1.273  55.615  1.00  0.00     0.038 A 
HETATM    9  C11 UNL     1      22.683  -1.379  54.722  1.00  0.00     0.003 A 
HETATM   10  C12 UNL     1      22.697  -0.940  53.397  1.00  0.00     0.001 A 
HETATM   11  C13 UNL     1      23.876  -0.343  52.953  1.00  0.00     0.015 A 
HETATM   12  C14 UNL     1      24.941  -0.217  53.819  1.00  0.00     0.016 A 
HETATM   13  C15 UNL     1      26.200   0.317  53.661  1.00  0.00     0.076 A 
ENDROOT
BRANCH   1  14
HETATM   14  N1  UNL     1      26.171   1.083  51.269  1.00  0.00    -0.340 N 
HETATM   15  H4  UNL     1      25.979   0.400  50.475  1.00  0.00     0.167 HD
BRANCH  14  16
HETATM   16  C5  UNL     1      25.748   2.423  50.997  1.00  0.00     0.035 A 
HETATM   17  C4  UNL     1      24.613   2.947  51.622  1.00  0.00     0.029 A 
HETATM   18  C3  UNL     1      24.247   4.267  51.340  1.00  0.00     0.004 A 
HETATM   19  C2  UNL     1      24.979   5.078  50.455  1.00  0.00     0.019 A 
HETATM   20  C1  UNL     1      26.119   4.582  49.814  1.00  0.00     0.013 A 
HETATM   21 BR1  UNL     1      27.118   5.669  48.632  1.00  0.00    -0.051 Br
HETATM   22  C16 UNL     1      26.395   3.281  50.154  1.00  0.00     0.048 A 
ENDBRANCH  14  16
ENDBRANCH   1  14
TORSDOF 2
ENDMDL
MODEL 2
REMARK VINA RESULT:      -8.0      2.406      4.036
REMARK  2 active torsions:
REMARK  status: ('A' for Active; 'I' for Inactive)
REMARK    1  A    between atoms: C5_6  and  N1_7 
REMARK    2  A    between atoms: N1_7  and  C6_8 
ROOT
HETATM    1  C6  UNL     1      24.389   1.946  53.187  1.00  0.00     0.145 A 
HETATM    2  N2  UNL     1      23.140   1.472  53.101  1.00  0.00    -0.223 NA
HETATM    3  C7  UNL     1      22.855   0.191  53.259  1.00  0.00     0.238 A 
HETATM    4  N3  UNL     1      23.791  -0.748  53.516  1.00  0.00    -0.217 NA
HETATM    5  C8  UNL     1      25.086  -0.357  53.618  1.00  0.00     0.186 A 
HETATM    6  O1  UNL     1      26.218  -0.974  53.851  1.00  0.00    -0.290 OA
HETATM    7  C9  UNL     1      27.232  -0.120  53.849  1.00  0.00     0.089 A 
HETATM    8  C10 UNL     1      28.581  -0.324  54.046  1.00  0.00     0.038 A 
HETATM    9  C11 UNL     1      29.364   0.805  53.973  1.00  0.00     0.003 A 
HETATM   10  C12 UNL     1      28.907   2.100  53.724  1.00  0.00     0.001 A 
HETATM   11  C13 UNL     1      27.534   2.248  53.532  1.00  0.00     0.015 A 
HETATM   12  C14 UNL     1      26.716   1.140  53.596  1.00  0.00     0.016 A 
HETATM   13  C15 UNL     1      25.356   0.988  53.450  1.00  0.00     0.076 A 
ENDROOT
BRANCH   1  14
HETATM   14  N1  UNL     1      24.589   3.339  53.009  1.00  0.00    -0.340 N 
HETATM   15  H4  UNL     1      24.969   4.088  53.665  1.00  0.00     0.167 HD
BRANCH  14  16
HETATM   16  C5  UNL     1      24.211   3.833  51.721  1.00  0.00     0.035 A 
HETATM   17  C4  UNL     1      24.755   3.273  50.561  1.00  0.00     0.029 A 
HETATM   18  C3  UNL     1      24.343   3.776  49.323  1.00  0.00     0.004 A 
HETATM   19  C2  UNL     1      23.405   4.817  49.207  1.00  0.00     0.019 A 
HETATM   20  C1  UNL     1      22.843   5.397  50.349  1.00  0.00     0.013 A 
HETATM   21 BR1  UNL     1      21.572   6.789  50.204  1.00  0.00    -0.051 Br
HETATM   22  C16 UNL     1      23.310   4.839  51.512  1.00  0.00     0.048 A 
ENDBRANCH  14  16
ENDBRANCH   1  14
TORSDOF 2
ENDMDL
MODEL 3
REMARK VINA RESULT:      -7.8      2.870      4.358
REMARK  2 active torsions:
REMARK  status: ('A' for Active; 'I' for Inactive)
REMARK    1  A    between atoms: C5_6  and  N1_7 
REMARK    2  A    between atoms: N1_7  and  C6_8 
ROOT
HETATM    1  C6  UNL     1      22.594  -0.411  53.074  1.00  0.00     0.145 A 
HETATM    2  N2  UNL     1      21.567  -0.953  53.741  1.00  0.00    -0.223 NA
HETATM    3  C7  UNL     1      21.710  -1.509  54.932  1.00  0.00     0.238 A 
HETATM    4  N3  UNL     1      22.894  -1.583  55.577  1.00  0.00    -0.217 NA
HETATM    5  C8  UNL     1      23.991  -1.061  54.973  1.00  0.00     0.186 A 
HETATM    6  O1  UNL     1      25.257  -0.959  55.294  1.00  0.00    -0.290 OA
HETATM    7  C9  UNL     1      25.940  -0.347  54.336  1.00  0.00     0.089 A 
HETATM    8  C10 UNL     1      27.278  -0.029  54.248  1.00  0.00     0.038 A 
HETATM    9  C11 UNL     1      27.655   0.617  53.093  1.00  0.00     0.003 A 
HETATM   10  C12 UNL     1      26.809   0.964  52.039  1.00  0.00     0.001 A 
HETATM   11  C13 UNL     1      25.466   0.619  52.182  1.00  0.00     0.015 A 
HETATM   12  C14 UNL     1      25.049  -0.031  53.324  1.00  0.00     0.016 A 
HETATM   13  C15 UNL     1      23.814  -0.484  53.730  1.00  0.00     0.076 A 
ENDROOT
BRANCH   1  14
HETATM   14  N1  UNL     1      22.336   0.168  51.806  1.00  0.00    -0.340 N 
HETATM   15  H4  UNL     1      22.442  -0.217  50.818  1.00  0.00     0.167 HD
BRANCH  14  16
HETATM   16  C5  UNL     1      21.848   1.512  51.856  1.00  0.00     0.035 A 
HETATM   17  C4  UNL     1      20.482   1.762  52.024  1.00  0.00     0.029 A 
HETATM   18  C3  UNL     1      20.052   3.091  52.085  1.00  0.00     0.004 A 
HETATM   19  C2  UNL     1      20.940   4.176  51.985  1.00  0.00     0.019 A 
HETATM   20  C1  UNL     1      22.313   3.958  51.817  1.00  0.00     0.013 A 
HETATM   21 BR1  UNL     1      23.518   5.410  51.694  1.00  0.00    -0.051 Br
HETATM   22  C16 UNL     1      22.635   2.625  51.768  1.00  0.00     0.048 A 
ENDBRANCH  14  16
ENDBRANCH   1  14
TORSDOF 2
ENDMDL
MODEL 4
REMARK VINA RESULT:      -7.7      3.096      5.094
REMARK  2 active torsions:
REMARK  status: ('A' for Active; 'I' for Inactive)
REMARK    1  A    between atoms: C5_6  and  N1_7 
REMARK    2  A    between atoms: N1_7  and  C6_8 
ROOT
HETATM    1  C6  UNL     1      25.459   2.661  52.008  1.00  0.00     0.145 A 
HETATM    2  N2  UNL     1      26.195   3.422  51.187  1.00  0.00    -0.223 NA
HETATM    3  C7  UNL     1      25.819   3.697  49.950  1.00  0.00     0.238 A 
HETATM    4  N3  UNL     1      24.672   3.239  49.405  1.00  0.00    -0.217 NA
HETATM    5  C8  UNL     1      23.864   2.457  50.166  1.00  0.00     0.186 A 
HETATM    6  O1  UNL     1      22.716   1.858  49.973  1.00  0.00    -0.290 OA
HETATM    7  C9  UNL     1      22.336   1.199  51.059  1.00  0.00     0.089 A 
HETATM    8  C10 UNL     1      21.214   0.438  51.304  1.00  0.00     0.038 A 
HETATM    9  C11 UNL     1      21.138  -0.112  52.563  1.00  0.00     0.003 A 
HETATM   10  C12 UNL     1      22.084   0.041  53.578  1.00  0.00     0.001 A 
HETATM   11  C13 UNL     1      23.199   0.821  53.276  1.00  0.00     0.015 A 
HETATM   12  C14 UNL     1      23.312   1.388  52.024  1.00  0.00     0.016 A 
HETATM   13  C15 UNL     1      24.280   2.186  51.456  1.00  0.00     0.076 A 
ENDROOT
BRANCH   1  14
HETATM   14  N1  UNL     1      25.946   2.431  53.320  1.00  0.00    -0.340 N 
HETATM   15  H4  UNL     1      25.611   2.780  54.270  1.00  0.00     0.167 HD
BRANCH  14  16
HETATM   16  C5  UNL     1      27.093   1.579  53.387  1.00  0.00     0.035 A 
HETATM   17  C4  UNL     1      28.341   2.100  53.744  1.00  0.00     0.029 A 
HETATM   18  C3  UNL     1      29.431   1.228  53.813  1.00  0.00     0.004 A 
HETATM   19  C2  UNL     1      29.315  -0.146  53.539  1.00  0.00     0.019 A 
HETATM   20  C1  UNL     1      28.080  -0.698  53.180  1.00  0.00     0.013 A 
HETATM   21 BR1  UNL     1      27.910  -2.546  52.821  1.00  0.00    -0.051 Br
HETATM   22  C16 UNL     1      27.075   0.236  53.138  1.00  0.00     0.048 A 
ENDBRANCH  14  16
ENDBRANCH   1  14
TORSDOF 2
ENDMDL
MODEL 5
REMARK VINA RESULT:      -7.7      1.446      2.001
REMARK  2 active torsions:
REMARK  status: ('A' for Active; 'I' for Inactive)
REMARK    1  A    between atoms: C5_6  and  N1_7 
REMARK    2  A    between atoms: N1_7  and  C6_8 
ROOT
HETATM    1  C6  UNL     1      25.994   2.069  51.827  1.00  0.00     0.145 A 
HETATM    2  N2  UNL     1      27.243   2.520  51.996  1.00  0.00    -0.223 NA
HETATM    3  C7  UNL     1      27.992   2.165  53.026  1.00  0.00     0.238 A 
HETATM    4  N3  UNL     1      27.568   1.325  53.994  1.00  0.00    -0.217 NA
HETATM    5  C8  UNL     1      26.312   0.820  53.905  1.00  0.00     0.186 A 
HETATM    6  O1  UNL     1      25.594   0.005  54.638  1.00  0.00    -0.290 OA
HETATM    7  C9  UNL     1      24.393  -0.177  54.105  1.00  0.00     0.089 A 
HETATM    8  C10 UNL     1      23.327  -0.941  54.529  1.00  0.00     0.038 A 
HETATM    9  C11 UNL     1      22.214  -0.899  53.720  1.00  0.00     0.003 A 
HETATM   10  C12 UNL     1      22.091  -0.165  52.540  1.00  0.00     0.001 A 
HETATM   11  C13 UNL     1      23.200   0.589  52.158  1.00  0.00     0.015 A 
HETATM   12  C14 UNL     1      24.333   0.574  52.943  1.00  0.00     0.016 A 
HETATM   13  C15 UNL     1      25.551   1.206  52.818  1.00  0.00     0.076 A 
ENDROOT
BRANCH   1  14
HETATM   14  N1  UNL     1      25.275   2.503  50.685  1.00  0.00    -0.340 N 
HETATM   15  H4  UNL     1      24.461   2.066  50.154  1.00  0.00     0.167 HD
BRANCH  14  16
HETATM   16  C5  UNL     1      25.721   3.749  50.141  1.00  0.00     0.035 A 
HETATM   17  C4  UNL     1      26.818   3.791  49.275  1.00  0.00     0.029 A 
HETATM   18  C3  UNL     1      27.208   5.029  48.755  1.00  0.00     0.004 A 
HETATM   19  C2  UNL     1      26.536   6.223  49.068  1.00  0.00     0.019 A 
HETATM   20  C1  UNL     1      25.434   6.214  49.932  1.00  0.00     0.013 A 
HETATM   21 BR1  UNL     1      24.517   7.813  50.351  1.00  0.00    -0.051 Br
HETATM   22  C16 UNL     1      25.132   4.956  50.390  1.00  0.00     0.048 A 
ENDBRANCH  14  16
ENDBRANCH   1  14
TORSDOF 2
ENDMDL
MODEL 6
REMARK VINA RESULT:      -7.7      3.864      5.324
REMARK  2 active torsions:
REMARK  status: ('A' for Active; 'I' for Inactive)
REMARK    1  A    between atoms: C5_6  and  N1_7 
REMARK    2  A    between atoms: N1_7  and  C6_8 
ROOT
HETATM    1  C6  UNL     1      22.734  -0.508  53.118  1.00  0.00     0.145 A 
HETATM    2  N2  UNL     1      21.734  -1.100  53.782  1.00  0.00    -0.223 NA
HETATM    3  C7  UNL     1      21.895  -1.629  54.983  1.00  0.00     0.238 A 
HETATM    4  N3  UNL     1      23.073  -1.622  55.642  1.00  0.00    -0.217 NA
HETATM    5  C8  UNL     1      24.144  -1.044  55.042  1.00  0.00     0.186 A 
HETATM    6  O1  UNL     1      25.398  -0.862  55.375  1.00  0.00    -0.290 OA
HETATM    7  C9  UNL     1      26.055  -0.225  54.416  1.00  0.00     0.089 A 
HETATM    8  C10 UNL     1      27.373   0.171  54.337  1.00  0.00     0.038 A 
HETATM    9  C11 UNL     1      27.725   0.821  53.176  1.00  0.00     0.003 A 
HETATM   10  C12 UNL     1      26.871   1.101  52.108  1.00  0.00     0.001 A 
HETATM   11  C13 UNL     1      25.549   0.678  52.241  1.00  0.00     0.015 A 
HETATM   12  C14 UNL     1      25.159   0.022  53.389  1.00  0.00     0.016 A 
HETATM   13  C15 UNL     1      23.948  -0.498  53.788  1.00  0.00     0.076 A 
ENDROOT
BRANCH   1  14
HETATM   14  N1  UNL     1      22.457   0.036  51.838  1.00  0.00    -0.340 N 
HETATM   15  H4  UNL     1      22.962  -0.060  50.905  1.00  0.00     0.167 HD
BRANCH  14  16
HETATM   16  C5  UNL     1      21.292   0.865  51.785  1.00  0.00     0.035 A 
HETATM   17  C4  UNL     1      21.302   2.136  52.369  1.00  0.00     0.029 A 
HETATM   18  C3  UNL     1      20.147   2.918  52.277  1.00  0.00     0.004 A 
HETATM   19  C2  UNL     1      18.986   2.474  51.621  1.00  0.00     0.019 A 
HETATM   20  C1  UNL     1      18.945   1.208  51.027  1.00  0.00     0.013 A 
HETATM   21 BR1  UNL     1      17.393   0.605  50.132  1.00  0.00    -0.051 Br
HETATM   22  C16 UNL     1      20.123   0.517  51.171  1.00  0.00     0.048 A 
ENDBRANCH  14  16
ENDBRANCH   1  14
TORSDOF 2
ENDMDL
MODEL 7
REMARK VINA RESULT:      -7.5      2.027      2.900
REMARK  2 active torsions:
REMARK  status: ('A' for Active; 'I' for Inactive)
REMARK    1  A    between atoms: C5_6  and  N1_7 
REMARK    2  A    between atoms: N1_7  and  C6_8 
ROOT
HETATM    1  C6  UNL     1      25.943   2.561  50.901  1.00  0.00     0.145 A 
HETATM    2  N2  UNL     1      27.176   2.724  51.397  1.00  0.00    -0.223 NA
HETATM    3  C7  UNL     1      27.540   2.230  52.568  1.00  0.00     0.238 A 
HETATM    4  N3  UNL     1      26.708   1.524  53.364  1.00  0.00    -0.217 NA
HETATM    5  C8  UNL     1      25.436   1.313  52.941  1.00  0.00     0.186 A 
HETATM    6  O1  UNL     1      24.393   0.694  53.436  1.00  0.00    -0.290 OA
HETATM    7  C9  UNL     1      23.358   0.776  52.611  1.00  0.00     0.089 A 
HETATM    8  C10 UNL     1      22.077   0.280  52.721  1.00  0.00     0.038 A 
HETATM    9  C11 UNL     1      21.245   0.555  51.660  1.00  0.00     0.003 A 
HETATM   10  C12 UNL     1      21.593   1.276  50.517  1.00  0.00     0.001 A 
HETATM   11  C13 UNL     1      22.902   1.754  50.457  1.00  0.00     0.015 A 
HETATM   12  C14 UNL     1      23.765   1.500  51.502  1.00  0.00     0.016 A 
HETATM   13  C15 UNL     1      25.083   1.839  51.713  1.00  0.00     0.076 A 
ENDROOT
BRANCH   1  14
HETATM   14  N1  UNL     1      25.654   3.124  49.632  1.00  0.00    -0.340 N 
HETATM   15  H4  UNL     1      25.252   2.695  48.743  1.00  0.00     0.167 HD
BRANCH  14  16
HETATM   16  C5  UNL     1      25.958   4.518  49.518  1.00  0.00     0.035 A 
HETATM   17  C4  UNL     1      25.170   5.469  50.173  1.00  0.00     0.029 A 
HETATM   18  C3  UNL     1      25.515   6.819  50.047  1.00  0.00     0.004 A 
HETATM   19  C2  UNL     1      26.621   7.247  49.292  1.00  0.00     0.019 A 
HETATM   20  C1  UNL     1      27.428   6.318  48.625  1.00  0.00     0.013 A 
HETATM   21 BR1  UNL     1      28.924   6.882  47.616  1.00  0.00    -0.051 Br
HETATM   22  C16 UNL     1      27.009   5.024  48.807  1.00  0.00     0.048 A 
ENDBRANCH  14  16
ENDBRANCH   1  14
TORSDOF 2
ENDMDL
MODEL 8
REMARK VINA RESULT:      -7.5      2.200      2.514
REMARK  2 active torsions:
REMARK  status: ('A' for Active; 'I' for Inactive)
REMARK    1  A    between atoms: C5_6  and  N1_7 
REMARK    2  A    between atoms: N1_7  and  C6_8 
ROOT
HETATM    1  C6  UNL     1      25.289   1.121  52.044  1.00  0.00     0.145 A 
HETATM    2  N2  UNL     1      26.584   1.444  51.931  1.00  0.00    -0.223 NA
HETATM    3  C7  UNL     1      27.495   1.038  52.799  1.00  0.00     0.238 A 
HETATM    4  N3  UNL     1      27.204   0.269  53.871  1.00  0.00    -0.217 NA
HETATM    5  C8  UNL     1      25.914  -0.105  54.065  1.00  0.00     0.186 A 
HETATM    6  O1  UNL     1      25.290  -0.823  54.966  1.00  0.00    -0.290 OA
HETATM    7  C9  UNL     1      23.993  -0.892  54.701  1.00  0.00     0.089 A 
HETATM    8  C10 UNL     1      22.970  -1.530  55.369  1.00  0.00     0.038 A 
HETATM    9  C11 UNL     1      21.722  -1.392  54.806  1.00  0.00     0.003 A 
HETATM   10  C12 UNL     1      21.426  -0.677  53.645  1.00  0.00     0.001 A 
HETATM   11  C13 UNL     1      22.497  -0.052  53.009  1.00  0.00     0.015 A 
HETATM   12  C14 UNL     1      23.763  -0.166  53.544  1.00  0.00     0.016 A 
HETATM   13  C15 UNL     1      24.983   0.333  53.142  1.00  0.00     0.076 A 
ENDROOT
BRANCH   1  14
HETATM   14  N1  UNL     1      24.392   1.601  51.056  1.00  0.00    -0.340 N 
HETATM   15  H4  UNL     1      24.163   1.247  50.078  1.00  0.00     0.167 HD
BRANCH  14  16
HETATM   16  C5  UNL     1      23.664   2.773  51.435  1.00  0.00     0.035 A 
HETATM   17  C4  UNL     1      24.115   3.576  52.487  1.00  0.00     0.029 A 
HETATM   18  C3  UNL     1      23.381   4.722  52.811  1.00  0.00     0.004 A 
HETATM   19  C2  UNL     1      22.215   5.091  52.117  1.00  0.00     0.019 A 
HETATM   20  C1  UNL     1      21.739   4.307  51.059  1.00  0.00     0.013 A 
HETATM   21 BR1  UNL     1      20.179   4.801  50.112  1.00  0.00    -0.051 Br
HETATM   22  C16 UNL     1      22.524   3.207  50.820  1.00  0.00     0.048 A 
ENDBRANCH  14  16
ENDBRANCH   1  14
TORSDOF 2
ENDMDL
MODEL 9
REMARK VINA RESULT:      -7.3      3.304      4.628
REMARK  2 active torsions:
REMARK  status: ('A' for Active; 'I' for Inactive)
REMARK    1  A    between atoms: C5_6  and  N1_7 
REMARK    2  A    between atoms: N1_7  and  C6_8 
ROOT
HETATM    1  C6  UNL     1      22.420   2.376  52.061  1.00  0.00     0.145 A 
HETATM    2  N2  UNL     1      21.121   2.441  52.377  1.00  0.00    -0.223 NA
HETATM    3  C7  UNL     1      20.530   1.537  53.139  1.00  0.00     0.238 A 
HETATM    4  N3  UNL     1      21.178   0.473  53.662  1.00  0.00    -0.217 NA
HETATM    5  C8  UNL     1      22.500   0.326  53.391  1.00  0.00     0.186 A 
HETATM    6  O1  UNL     1      23.413  -0.554  53.718  1.00  0.00    -0.290 OA
HETATM    7  C9  UNL     1      24.586  -0.239  53.184  1.00  0.00     0.089 A 
HETATM    8  C10 UNL     1      25.808  -0.872  53.261  1.00  0.00     0.038 A 
HETATM    9  C11 UNL     1      26.831  -0.261  52.573  1.00  0.00     0.003 A 
HETATM   10  C12 UNL     1      26.726   0.915  51.828  1.00  0.00     0.001 A 
HETATM   11  C13 UNL     1      25.467   1.512  51.785  1.00  0.00     0.015 A 
HETATM   12  C14 UNL     1      24.416   0.929  52.460  1.00  0.00     0.016 A 
HETATM   13  C15 UNL     1      23.092   1.286  52.593  1.00  0.00     0.076 A 
ENDROOT
BRANCH   1  14
HETATM   14  N1  UNL     1      22.961   3.401  51.243  1.00  0.00    -0.340 N 
HETATM   15  H4  UNL     1      23.538   4.264  51.480  1.00  0.00     0.167 HD
BRANCH  14  16
HETATM   16  C5  UNL     1      22.683   3.254  49.847  1.00  0.00     0.035 A 
HETATM   17  C4  UNL     1      22.484   1.984  49.295  1.00  0.00     0.029 A 
HETATM   18  C3  UNL     1      22.197   1.890  47.930  1.00  0.00     0.004 A 
HETATM   19  C2  UNL     1      22.101   3.021  47.100  1.00  0.00     0.019 A 
HETATM   20  C1  UNL     1      22.294   4.305  47.623  1.00  0.00     0.013 A 
HETATM   21 BR1  UNL     1      22.155   5.833  46.519  1.00  0.00    -0.051 Br
HETATM   22  C16 UNL     1      22.571   4.293  48.967  1.00  0.00     0.048 A 
ENDBRANCH  14  16
ENDBRANCH   1  14
TORSDOF 2
ENDMDL
