MODEL 1
REMARK VINA RESULT:      -9.1      0.000      0.000
REMARK  7 active torsions:
REMARK  status: ('A' for Active; 'I' for Inactive)
REMARK    1  A    between atoms: O1_2  and  C2_3 
REMARK    2  A    between atoms: C5_6  and  C6_7 
REMARK    3  A    between atoms: C7_8  and  C8_9 
REMARK       I    between atoms: C8_9  and  N1_11 
REMARK    4  A    between atoms: N1_11  and  C9_12 
REMARK    5  A    between atoms: C9_12  and  C10_13 
REMARK    6  A    between atoms: C11_14  and  C12_15 
REMARK    7  A    between atoms: C14_19  and  N4_20 
ROOT
HETATM    1  C10 UNL     1      27.570   5.299  48.869  1.00  0.00    -0.005 C 
HETATM    2  C11 UNL     1      28.609   5.751  48.237  1.00  0.00     0.031 C 
ENDROOT
BRANCH   1   3
HETATM    3  C9  UNL     1      26.345   4.528  48.974  1.00  0.00     0.150 C 
BRANCH   3   4
HETATM    4  N1  UNL     1      26.073   4.277  50.396  1.00  0.00    -0.354 N 
HETATM    5  C8  UNL     1      24.752   3.799  50.734  1.00  0.00     0.241 C 
HETATM    6  O2  UNL     1      24.324   3.790  49.545  1.00  0.00    -0.269 OA
HETATM    7  H8  UNL     1      26.809   4.439  51.153  1.00  0.00     0.163 HD
BRANCH   5   8
HETATM    8  C7  UNL     1      24.430   3.536  52.133  1.00  0.00     0.075 C 
HETATM    9  C6  UNL     1      24.769   2.684  53.061  1.00  0.00     0.017 C 
BRANCH   9  10
HETATM   10  C5  UNL     1      25.670   1.553  53.124  1.00  0.00    -0.036 A 
HETATM   11  C4  UNL     1      25.928   0.633  52.153  1.00  0.00     0.014 A 
HETATM   12  C3  UNL     1      26.783  -0.439  52.214  1.00  0.00     0.037 A 
HETATM   13  C2  UNL     1      27.465  -0.613  53.398  1.00  0.00     0.068 A 
HETATM   14  C22 UNL     1      27.271   0.264  54.440  1.00  0.00     0.037 A 
HETATM   15  C21 UNL     1      26.391   1.304  54.268  1.00  0.00     0.014 A 
BRANCH  13  16
HETATM   16  O1  UNL     1      28.354  -1.661  53.575  1.00  0.00    -0.356 OA
HETATM   17  C1  UNL     1      29.762  -1.401  53.563  1.00  0.00     0.210 C 
ENDBRANCH  13  16
ENDBRANCH   9  10
ENDBRANCH   5   8
ENDBRANCH   3   4
ENDBRANCH   1   3
BRANCH   2  18
HETATM   18  C12 UNL     1      29.807   6.553  48.262  1.00  0.00     0.083 A 
HETATM   19  N2  UNL     1      29.579   7.800  48.714  1.00  0.00    -0.240 NA
HETATM   20  C13 UNL     1      30.569   8.693  48.810  1.00  0.00     0.236 A 
HETATM   21  N3  UNL     1      31.777   8.264  48.431  1.00  0.00    -0.223 NA
HETATM   22  C14 UNL     1      32.043   7.037  47.978  1.00  0.00     0.151 A 
HETATM   23  C20 UNL     1      31.044   6.109  47.873  1.00  0.00     0.108 A 
HETATM   24 CL1  UNL     1      31.297   4.502  47.297  1.00  0.00    -0.078 Cl
BRANCH  22  25
HETATM   25  N4  UNL     1      33.371   6.629  47.583  1.00  0.00    -0.360 N 
HETATM   26  C15 UNL     1      33.834   6.150  46.271  1.00  0.00     0.154 C 
HETATM   27  C16 UNL     1      34.298   4.753  46.508  1.00  0.00     0.030 C 
HETATM   28  C17 UNL     1      34.708   4.354  47.704  1.00  0.00     0.093 C 
HETATM   29  F1  UNL     1      35.130   3.072  47.907  1.00  0.00    -0.211 F 
HETATM   30  C18 UNL     1      34.750   5.223  48.902  1.00  0.00     0.089 C 
HETATM   31  C19 UNL     1      34.460   6.671  48.567  1.00  0.00     0.131 C 
ENDBRANCH  22  25
ENDBRANCH   2  18
TORSDOF 7
ENDMDL
MODEL 2
REMARK VINA RESULT:      -8.8      2.491      3.358
REMARK  7 active torsions:
REMARK  status: ('A' for Active; 'I' for Inactive)
REMARK    1  A    between atoms: O1_2  and  C2_3 
REMARK    2  A    between atoms: C5_6  and  C6_7 
REMARK    3  A    between atoms: C7_8  and  C8_9 
REMARK       I    between atoms: C8_9  and  N1_11 
REMARK    4  A    between atoms: N1_11  and  C9_12 
REMARK    5  A    between atoms: C9_12  and  C10_13 
REMARK    6  A    between atoms: C11_14  and  C12_15 
REMARK    7  A    between atoms: C14_19  and  N4_20 
ROOT
HETATM    1  C10 UNL     1      26.941   4.897  48.994  1.00  0.00    -0.005 C 
HETATM    2  C11 UNL     1      28.115   5.095  48.480  1.00  0.00     0.031 C 
ENDROOT
BRANCH   1   3
HETATM    3  C9  UNL     1      25.730   4.128  49.215  1.00  0.00     0.150 C 
BRANCH   3   4
HETATM    4  N1  UNL     1      25.630   3.817  50.647  1.00  0.00    -0.354 N 
HETATM    5  C8  UNL     1      24.301   3.641  51.185  1.00  0.00     0.241 C 
HETATM    6  O2  UNL     1      23.704   3.846  50.091  1.00  0.00    -0.269 OA
HETATM    7  H8  UNL     1      26.492   3.726  51.271  1.00  0.00     0.163 HD
BRANCH   5   8
HETATM    8  C7  UNL     1      24.145   3.331  52.603  1.00  0.00     0.075 C 
HETATM    9  C6  UNL     1      24.624   2.479  53.467  1.00  0.00     0.017 C 
BRANCH   9  10
HETATM   10  C5  UNL     1      25.580   1.393  53.403  1.00  0.00    -0.036 A 
HETATM   11  C4  UNL     1      25.504   0.254  52.660  1.00  0.00     0.014 A 
HETATM   12  C3  UNL     1      26.412  -0.774  52.600  1.00  0.00     0.037 A 
HETATM   13  C2  UNL     1      27.537  -0.645  53.384  1.00  0.00     0.068 A 
HETATM   14  C22 UNL     1      27.705   0.470  54.171  1.00  0.00     0.037 A 
HETATM   15  C21 UNL     1      26.731   1.438  54.152  1.00  0.00     0.014 A 
BRANCH  13  16
HETATM   16  O1  UNL     1      28.521  -1.622  53.405  1.00  0.00    -0.356 OA
HETATM   17  C1  UNL     1      29.875  -1.250  53.683  1.00  0.00     0.210 C 
ENDBRANCH  13  16
ENDBRANCH   9  10
ENDBRANCH   5   8
ENDBRANCH   3   4
ENDBRANCH   1   3
BRANCH   2  18
HETATM   18  C12 UNL     1      29.264   5.955  48.341  1.00  0.00     0.083 A 
HETATM   19  N2  UNL     1      30.380   5.407  48.857  1.00  0.00    -0.240 NA
HETATM   20  C13 UNL     1      31.548   6.056  48.823  1.00  0.00     0.236 A 
HETATM   21  N3  UNL     1      31.527   7.263  48.251  1.00  0.00    -0.223 NA
HETATM   22  C14 UNL     1      30.442   7.841  47.729  1.00  0.00     0.151 A 
HETATM   23  C20 UNL     1      29.237   7.194  47.754  1.00  0.00     0.108 A 
HETATM   24 CL1  UNL     1      27.786   7.865  47.104  1.00  0.00    -0.078 Cl
BRANCH  22  25
HETATM   25  N4  UNL     1      30.479   9.150  47.122  1.00  0.00    -0.360 N 
HETATM   26  C15 UNL     1      30.890   9.521  45.758  1.00  0.00     0.154 C 
HETATM   27  C16 UNL     1      32.079  10.403  45.936  1.00  0.00     0.030 C 
HETATM   28  C17 UNL     1      32.267  11.094  47.052  1.00  0.00     0.093 C 
HETATM   29  F1  UNL     1      33.361  11.897  47.200  1.00  0.00    -0.211 F 
HETATM   30  C18 UNL     1      31.347  11.068  48.211  1.00  0.00     0.089 C 
HETATM   31  C19 UNL     1      30.066  10.321  47.908  1.00  0.00     0.131 C 
ENDBRANCH  22  25
ENDBRANCH   2  18
TORSDOF 7
ENDMDL
MODEL 3
REMARK VINA RESULT:      -8.7      2.335      3.174
REMARK  7 active torsions:
REMARK  status: ('A' for Active; 'I' for Inactive)
REMARK    1  A    between atoms: O1_2  and  C2_3 
REMARK    2  A    between atoms: C5_6  and  C6_7 
REMARK    3  A    between atoms: C7_8  and  C8_9 
REMARK       I    between atoms: C8_9  and  N1_11 
REMARK    4  A    between atoms: N1_11  and  C9_12 
REMARK    5  A    between atoms: C9_12  and  C10_13 
REMARK    6  A    between atoms: C11_14  and  C12_15 
REMARK    7  A    between atoms: C14_19  and  N4_20 
ROOT
HETATM    1  C10 UNL     1      27.598   5.609  48.672  1.00  0.00    -0.005 C 
HETATM    2  C11 UNL     1      28.785   5.682  48.153  1.00  0.00     0.031 C 
ENDROOT
BRANCH   1   3
HETATM    3  C9  UNL     1      26.424   4.896  49.137  1.00  0.00     0.150 C 
BRANCH   3   4
HETATM    4  N1  UNL     1      26.831   3.978  50.210  1.00  0.00    -0.354 N 
HETATM    5  C8  UNL     1      25.953   2.864  50.485  1.00  0.00     0.241 C 
HETATM    6  O2  UNL     1      25.104   3.163  49.599  1.00  0.00    -0.269 OA
HETATM    7  H8  UNL     1      27.731   4.119  50.767  1.00  0.00     0.163 HD
BRANCH   5   8
HETATM    8  C7  UNL     1      26.311   1.923  51.541  1.00  0.00     0.075 C 
HETATM    9  C6  UNL     1      25.705   1.098  52.351  1.00  0.00     0.017 C 
BRANCH   9  10
HETATM   10  C5  UNL     1      24.325   0.726  52.578  1.00  0.00    -0.036 A 
HETATM   11  C4  UNL     1      23.214   1.211  51.959  1.00  0.00     0.014 A 
HETATM   12  C3  UNL     1      21.906   0.857  52.175  1.00  0.00     0.037 A 
HETATM   13  C2  UNL     1      21.682  -0.106  53.134  1.00  0.00     0.068 A 
HETATM   14  C22 UNL     1      22.742  -0.658  53.817  1.00  0.00     0.037 A 
HETATM   15  C21 UNL     1      24.010  -0.227  53.518  1.00  0.00     0.014 A 
BRANCH  13  16
HETATM   16  O1  UNL     1      20.402  -0.543  53.439  1.00  0.00    -0.356 OA
HETATM   17  C1  UNL     1      19.308  -0.151  52.603  1.00  0.00     0.210 C 
ENDBRANCH  13  16
ENDBRANCH   9  10
ENDBRANCH   5   8
ENDBRANCH   3   4
ENDBRANCH   1   3
BRANCH   2  18
HETATM   18  C12 UNL     1      29.889   6.506  47.727  1.00  0.00     0.083 A 
HETATM   19  N2  UNL     1      29.566   7.812  47.683  1.00  0.00    -0.240 NA
HETATM   20  C13 UNL     1      30.460   8.733  47.310  1.00  0.00     0.236 A 
HETATM   21  N3  UNL     1      31.672   8.271  46.990  1.00  0.00    -0.223 NA
HETATM   22  C14 UNL     1      32.031   6.985  47.021  1.00  0.00     0.151 A 
HETATM   23  C20 UNL     1      31.131   6.027  47.400  1.00  0.00     0.108 A 
HETATM   24 CL1  UNL     1      31.507   4.345  47.466  1.00  0.00    -0.078 Cl
BRANCH  22  25
HETATM   25  N4  UNL     1      33.358   6.544  46.664  1.00  0.00    -0.360 N 
HETATM   26  C15 UNL     1      33.805   5.870  45.433  1.00  0.00     0.154 C 
HETATM   27  C16 UNL     1      34.303   4.537  45.877  1.00  0.00     0.030 C 
HETATM   28  C17 UNL     1      34.746   4.340  47.111  1.00  0.00     0.093 C 
HETATM   29  F1  UNL     1      35.199   3.114  47.504  1.00  0.00    -0.211 F 
HETATM   30  C18 UNL     1      34.794   5.390  48.154  1.00  0.00     0.089 C 
HETATM   31  C19 UNL     1      34.467   6.761  47.603  1.00  0.00     0.131 C 
ENDBRANCH  22  25
ENDBRANCH   2  18
TORSDOF 7
ENDMDL
MODEL 4
REMARK VINA RESULT:      -8.7      5.505      8.216
REMARK  7 active torsions:
REMARK  status: ('A' for Active; 'I' for Inactive)
REMARK    1  A    between atoms: O1_2  and  C2_3 
REMARK    2  A    between atoms: C5_6  and  C6_7 
REMARK    3  A    between atoms: C7_8  and  C8_9 
REMARK       I    between atoms: C8_9  and  N1_11 
REMARK    4  A    between atoms: N1_11  and  C9_12 
REMARK    5  A    between atoms: C9_12  and  C10_13 
REMARK    6  A    between atoms: C11_14  and  C12_15 
REMARK    7  A    between atoms: C14_19  and  N4_20 
ROOT
HETATM    1  C10 UNL     1      26.889   0.742  52.371  1.00  0.00    -0.005 C 
HETATM    2  C11 UNL     1      26.089   1.681  51.968  1.00  0.00     0.031 C 
ENDROOT
BRANCH   1   3
HETATM    3  C9  UNL     1      27.236  -0.415  53.174  1.00  0.00     0.150 C 
BRANCH   3   4
HETATM    4  N1  UNL     1      25.995  -1.035  53.659  1.00  0.00    -0.354 N 
HETATM    5  C8  UNL     1      25.614  -0.753  55.024  1.00  0.00     0.241 C 
HETATM    6  O2  UNL     1      26.606  -0.011  55.271  1.00  0.00    -0.269 OA
HETATM    7  H8  UNL     1      25.396  -1.666  53.040  1.00  0.00     0.163 HD
BRANCH   5   8
HETATM    8  C7  UNL     1      24.390  -1.345  55.554  1.00  0.00     0.075 C 
HETATM    9  C6  UNL     1      23.108  -1.296  55.315  1.00  0.00     0.017 C 
BRANCH   9  10
HETATM   10  C5  UNL     1      22.277  -0.593  54.362  1.00  0.00    -0.036 A 
HETATM   11  C4  UNL     1      21.139   0.114  54.604  1.00  0.00     0.014 A 
HETATM   12  C3  UNL     1      20.351   0.781  53.699  1.00  0.00     0.037 A 
HETATM   13  C2  UNL     1      20.755   0.732  52.383  1.00  0.00     0.068 A 
HETATM   14  C22 UNL     1      21.893   0.041  52.036  1.00  0.00     0.037 A 
HETATM   15  C21 UNL     1      22.605  -0.589  53.027  1.00  0.00     0.014 A 
BRANCH  13  16
HETATM   16  O1  UNL     1      20.038   1.366  51.381  1.00  0.00    -0.356 OA
HETATM   17  C1  UNL     1      20.706   1.758  50.177  1.00  0.00     0.210 C 
ENDBRANCH  13  16
ENDBRANCH   9  10
ENDBRANCH   5   8
ENDBRANCH   3   4
ENDBRANCH   1   3
BRANCH   2  18
HETATM   18  C12 UNL     1      25.869   2.824  51.117  1.00  0.00     0.083 A 
HETATM   19  N2  UNL     1      26.877   3.014  50.245  1.00  0.00    -0.240 NA
HETATM   20  C13 UNL     1      26.854   4.025  49.371  1.00  0.00     0.236 A 
HETATM   21  N3  UNL     1      25.778   4.817  49.427  1.00  0.00    -0.223 NA
HETATM   22  C14 UNL     1      24.760   4.662  50.276  1.00  0.00     0.151 A 
HETATM   23  C20 UNL     1      24.765   3.633  51.178  1.00  0.00     0.108 A 
HETATM   24 CL1  UNL     1      23.493   3.359  52.311  1.00  0.00    -0.078 Cl
BRANCH  22  25
HETATM   25  N4  UNL     1      23.622   5.551  50.290  1.00  0.00    -0.360 N 
HETATM   26  C15 UNL     1      22.412   5.510  49.452  1.00  0.00     0.154 C 
HETATM   27  C16 UNL     1      22.437   6.781  48.672  1.00  0.00     0.030 C 
HETATM   28  C17 UNL     1      23.074   7.855  49.118  1.00  0.00     0.093 C 
HETATM   29  F1  UNL     1      23.088   9.011  48.393  1.00  0.00    -0.211 F 
HETATM   30  C18 UNL     1      23.812   7.911  50.400  1.00  0.00     0.089 C 
HETATM   31  C19 UNL     1      23.593   6.670  51.240  1.00  0.00     0.131 C 
ENDBRANCH  22  25
ENDBRANCH   2  18
TORSDOF 7
ENDMDL
MODEL 5
REMARK VINA RESULT:      -8.5      5.556      8.533
REMARK  7 active torsions:
REMARK  status: ('A' for Active; 'I' for Inactive)
REMARK    1  A    between atoms: O1_2  and  C2_3 
REMARK    2  A    between atoms: C5_6  and  C6_7 
REMARK    3  A    between atoms: C7_8  and  C8_9 
REMARK       I    between atoms: C8_9  and  N1_11 
REMARK    4  A    between atoms: N1_11  and  C9_12 
REMARK    5  A    between atoms: C9_12  and  C10_13 
REMARK    6  A    between atoms: C11_14  and  C12_15 
REMARK    7  A    between atoms: C14_19  and  N4_20 
ROOT
HETATM    1  C10 UNL     1      26.929   1.857  52.947  1.00  0.00    -0.005 C 
HETATM    2  C11 UNL     1      26.618   2.202  51.735  1.00  0.00     0.031 C 
ENDROOT
BRANCH   1   3
HETATM    3  C9  UNL     1      27.345   0.909  53.963  1.00  0.00     0.150 C 
BRANCH   3   4
HETATM    4  N1  UNL     1      26.170   0.539  54.765  1.00  0.00    -0.354 N 
HETATM    5  C8  UNL     1      25.690  -0.817  54.634  1.00  0.00     0.241 C 
HETATM    6  O2  UNL     1      26.567  -1.171  53.797  1.00  0.00    -0.269 OA
HETATM    7  H8  UNL     1      25.686   1.234  55.416  1.00  0.00     0.163 HD
BRANCH   5   8
HETATM    8  C7  UNL     1      24.526  -1.235  55.409  1.00  0.00     0.075 C 
HETATM    9  C6  UNL     1      23.226  -1.206  55.295  1.00  0.00     0.017 C 
BRANCH   9  10
HETATM   10  C5  UNL     1      22.303  -0.720  54.293  1.00  0.00    -0.036 A 
HETATM   11  C4  UNL     1      22.584   0.012  53.180  1.00  0.00     0.014 A 
HETATM   12  C3  UNL     1      21.707   0.473  52.230  1.00  0.00     0.037 A 
HETATM   13  C2  UNL     1      20.379   0.160  52.419  1.00  0.00     0.068 A 
HETATM   14  C22 UNL     1      19.994  -0.576  53.515  1.00  0.00     0.037 A 
HETATM   15  C21 UNL     1      20.958  -0.985  54.403  1.00  0.00     0.014 A 
BRANCH  13  16
HETATM   16  O1  UNL     1      19.403   0.573  51.525  1.00  0.00    -0.356 OA
HETATM   17  C1  UNL     1      19.785   0.995  50.211  1.00  0.00     0.210 C 
ENDBRANCH  13  16
ENDBRANCH   9  10
ENDBRANCH   5   8
ENDBRANCH   3   4
ENDBRANCH   1   3
BRANCH   2  18
HETATM   18  C12 UNL     1      26.201   3.238  50.824  1.00  0.00     0.083 A 
HETATM   19  N2  UNL     1      27.162   3.560  49.939  1.00  0.00    -0.240 NA
HETATM   20  C13 UNL     1      26.962   4.502  49.012  1.00  0.00     0.236 A 
HETATM   21  N3  UNL     1      25.761   5.089  49.030  1.00  0.00    -0.223 NA
HETATM   22  C14 UNL     1      24.783   4.799  49.891  1.00  0.00     0.151 A 
HETATM   23  C20 UNL     1      24.968   3.838  50.847  1.00  0.00     0.108 A 
HETATM   24 CL1  UNL     1      23.761   3.401  51.999  1.00  0.00    -0.078 Cl
BRANCH  22  25
HETATM   25  N4  UNL     1      23.504   5.468  49.863  1.00  0.00    -0.360 N 
HETATM   26  C15 UNL     1      22.974   6.480  50.791  1.00  0.00     0.154 C 
HETATM   27  C16 UNL     1      21.776   5.848  51.414  1.00  0.00     0.030 C 
HETATM   28  C17 UNL     1      21.102   4.885  50.798  1.00  0.00     0.093 C 
HETATM   29  F1  UNL     1      20.008   4.315  51.381  1.00  0.00    -0.211 F 
HETATM   30  C18 UNL     1      21.454   4.347  49.465  1.00  0.00     0.089 C 
HETATM   31  C19 UNL     1      22.548   5.150  48.794  1.00  0.00     0.131 C 
ENDBRANCH  22  25
ENDBRANCH   2  18
TORSDOF 7
ENDMDL
MODEL 6
REMARK VINA RESULT:      -8.4      6.537      9.744
REMARK  7 active torsions:
REMARK  status: ('A' for Active; 'I' for Inactive)
REMARK    1  A    between atoms: O1_2  and  C2_3 
REMARK    2  A    between atoms: C5_6  and  C6_7 
REMARK    3  A    between atoms: C7_8  and  C8_9 
REMARK       I    between atoms: C8_9  and  N1_11 
REMARK    4  A    between atoms: N1_11  and  C9_12 
REMARK    5  A    between atoms: C9_12  and  C10_13 
REMARK    6  A    between atoms: C11_14  and  C12_15 
REMARK    7  A    between atoms: C14_19  and  N4_20 
ROOT
HETATM    1  C10 UNL     1      20.349  -0.142  52.921  1.00  0.00    -0.005 C 
HETATM    2  C11 UNL     1      21.192  -0.367  53.882  1.00  0.00     0.031 C 
ENDROOT
BRANCH   1   3
HETATM    3  C9  UNL     1      19.024   0.111  52.386  1.00  0.00     0.150 C 
BRANCH   3   4
HETATM    4  N1  UNL     1      19.118   1.200  51.405  1.00  0.00    -0.354 N 
HETATM    5  C8  UNL     1      18.283   1.096  50.231  1.00  0.00     0.241 C 
HETATM    6  O2  UNL     1      17.757  -0.004  50.560  1.00  0.00    -0.269 OA
HETATM    7  H8  UNL     1      19.771   2.034  51.543  1.00  0.00     0.163 HD
BRANCH   5   8
HETATM    8  C7  UNL     1      18.339   2.152  49.225  1.00  0.00     0.075 C 
HETATM    9  C6  UNL     1      19.244   2.897  48.652  1.00  0.00     0.017 C 
BRANCH   9  10
HETATM   10  C5  UNL     1      20.682   3.018  48.764  1.00  0.00    -0.036 A 
HETATM   11  C4  UNL     1      21.635   2.333  48.075  1.00  0.00     0.014 A 
HETATM   12  C3  UNL     1      22.999   2.450  48.182  1.00  0.00     0.037 A 
HETATM   13  C2  UNL     1      23.466   3.369  49.095  1.00  0.00     0.068 A 
HETATM   14  C22 UNL     1      22.580   4.111  49.841  1.00  0.00     0.037 A 
HETATM   15  C21 UNL     1      21.235   3.911  49.651  1.00  0.00     0.014 A 
BRANCH  13  16
HETATM   16  O1  UNL     1      24.824   3.572  49.290  1.00  0.00    -0.356 OA
HETATM   17  C1  UNL     1      25.298   4.878  49.635  1.00  0.00     0.210 C 
ENDBRANCH  13  16
ENDBRANCH   9  10
ENDBRANCH   5   8
ENDBRANCH   3   4
ENDBRANCH   1   3
BRANCH   2  18
HETATM   18  C12 UNL     1      22.554  -0.612  54.286  1.00  0.00     0.083 A 
HETATM   19  N2  UNL     1      22.632  -1.343  55.413  1.00  0.00    -0.240 NA
HETATM   20  C13 UNL     1      23.813  -1.674  55.944  1.00  0.00     0.236 A 
HETATM   21  N3  UNL     1      24.890  -1.232  55.286  1.00  0.00    -0.223 NA
HETATM   22  C14 UNL     1      24.855  -0.506  54.166  1.00  0.00     0.151 A 
HETATM   23  C20 UNL     1      23.656  -0.157  53.607  1.00  0.00     0.108 A 
HETATM   24 CL1  UNL     1      23.517   0.779  52.165  1.00  0.00    -0.078 Cl
BRANCH  22  25
HETATM   25  N4  UNL     1      26.053  -0.057  53.498  1.00  0.00    -0.360 N 
HETATM   26  C15 UNL     1      26.734  -0.647  52.334  1.00  0.00     0.154 C 
HETATM   27  C16 UNL     1      28.077  -1.058  52.834  1.00  0.00     0.030 C 
HETATM   28  C17 UNL     1      28.636  -0.466  53.881  1.00  0.00     0.093 C 
HETATM   29  F1  UNL     1      29.866  -0.853  54.328  1.00  0.00    -0.211 F 
HETATM   30  C18 UNL     1      28.007   0.633  54.648  1.00  0.00     0.089 C 
HETATM   31  C19 UNL     1      26.744   1.144  53.987  1.00  0.00     0.131 C 
ENDBRANCH  22  25
ENDBRANCH   2  18
TORSDOF 7
ENDMDL
MODEL 7
REMARK VINA RESULT:      -8.4      4.036      9.701
REMARK  7 active torsions:
REMARK  status: ('A' for Active; 'I' for Inactive)
REMARK    1  A    between atoms: O1_2  and  C2_3 
REMARK    2  A    between atoms: C5_6  and  C6_7 
REMARK    3  A    between atoms: C7_8  and  C8_9 
REMARK       I    between atoms: C8_9  and  N1_11 
REMARK    4  A    between atoms: N1_11  and  C9_12 
REMARK    5  A    between atoms: C9_12  and  C10_13 
REMARK    6  A    between atoms: C11_14  and  C12_15 
REMARK    7  A    between atoms: C14_19  and  N4_20 
ROOT
HETATM    1  C10 UNL     1      26.276   4.196  49.426  1.00  0.00    -0.005 C 
HETATM    2  C11 UNL     1      25.738   3.749  50.519  1.00  0.00     0.031 C 
ENDROOT
BRANCH   1   3
HETATM    3  C9  UNL     1      26.803   5.242  48.569  1.00  0.00     0.150 C 
BRANCH   3   4
HETATM    4  N1  UNL     1      27.235   6.363  49.414  1.00  0.00    -0.354 N 
HETATM    5  C8  UNL     1      26.662   7.657  49.125  1.00  0.00     0.241 C 
HETATM    6  O2  UNL     1      25.947   7.257  48.164  1.00  0.00    -0.269 OA
HETATM    7  H8  UNL     1      27.941   6.239  50.206  1.00  0.00     0.163 HD
BRANCH   5   8
HETATM    8  C7  UNL     1      27.059   8.805  49.935  1.00  0.00     0.075 C 
HETATM    9  C6  UNL     1      28.069   9.626  50.022  1.00  0.00     0.017 C 
BRANCH   9  10
HETATM   10  C5  UNL     1      29.323   9.776  49.314  1.00  0.00    -0.036 A 
HETATM   11  C4  UNL     1      30.198   8.800  48.946  1.00  0.00     0.014 A 
HETATM   12  C3  UNL     1      31.387   8.944  48.274  1.00  0.00     0.037 A 
HETATM   13  C2  UNL     1      31.743  10.228  47.927  1.00  0.00     0.068 A 
HETATM   14  C22 UNL     1      30.924  11.283  48.256  1.00  0.00     0.037 A 
HETATM   15  C21 UNL     1      29.757  11.022  48.929  1.00  0.00     0.014 A 
BRANCH  13  16
HETATM   16  O1  UNL     1      32.922  10.495  47.247  1.00  0.00    -0.356 OA
HETATM   17  C1  UNL     1      32.883  11.288  46.056  1.00  0.00     0.210 C 
ENDBRANCH  13  16
ENDBRANCH   9  10
ENDBRANCH   5   8
ENDBRANCH   3   4
ENDBRANCH   1   3
BRANCH   2  18
HETATM   18  C12 UNL     1      25.245   2.622  51.271  1.00  0.00     0.083 A 
HETATM   19  N2  UNL     1      23.932   2.405  51.068  1.00  0.00    -0.240 NA
HETATM   20  C13 UNL     1      23.294   1.403  51.679  1.00  0.00     0.236 A 
HETATM   21  N3  UNL     1      24.040   0.648  52.492  1.00  0.00    -0.223 NA
HETATM   22  C14 UNL     1      25.343   0.831  52.720  1.00  0.00     0.151 A 
HETATM   23  C20 UNL     1      26.015   1.851  52.104  1.00  0.00     0.108 A 
HETATM   24 CL1  UNL     1      27.695   2.161  52.341  1.00  0.00    -0.078 Cl
BRANCH  22  25
HETATM   25  N4  UNL     1      26.099  -0.018  53.610  1.00  0.00    -0.360 N 
HETATM   26  C15 UNL     1      26.566   0.265  54.977  1.00  0.00     0.154 C 
HETATM   27  C16 UNL     1      28.055   0.221  54.896  1.00  0.00     0.030 C 
HETATM   28  C17 UNL     1      28.677  -0.483  53.960  1.00  0.00     0.093 C 
HETATM   29  F1  UNL     1      30.039  -0.514  53.899  1.00  0.00    -0.211 F 
HETATM   30  C18 UNL     1      27.984  -1.279  52.921  1.00  0.00     0.089 C 
HETATM   31  C19 UNL     1      26.492  -1.361  53.163  1.00  0.00     0.131 C 
ENDBRANCH  22  25
ENDBRANCH   2  18
TORSDOF 7
ENDMDL
MODEL 8
REMARK VINA RESULT:      -8.3      5.903      9.667
REMARK  7 active torsions:
REMARK  status: ('A' for Active; 'I' for Inactive)
REMARK    1  A    between atoms: O1_2  and  C2_3 
REMARK    2  A    between atoms: C5_6  and  C6_7 
REMARK    3  A    between atoms: C7_8  and  C8_9 
REMARK       I    between atoms: C8_9  and  N1_11 
REMARK    4  A    between atoms: N1_11  and  C9_12 
REMARK    5  A    between atoms: C9_12  and  C10_13 
REMARK    6  A    between atoms: C11_14  and  C12_15 
REMARK    7  A    between atoms: C14_19  and  N4_20 
ROOT
HETATM    1  C10 UNL     1      20.151   0.238  51.774  1.00  0.00    -0.005 C 
HETATM    2  C11 UNL     1      20.728  -0.016  52.908  1.00  0.00     0.031 C 
ENDROOT
BRANCH   1   3
HETATM    3  C9  UNL     1      19.013   0.578  50.941  1.00  0.00     0.150 C 
BRANCH   3   4
HETATM    4  N1  UNL     1      19.506   0.966  49.613  1.00  0.00    -0.354 N 
HETATM    5  C8  UNL     1      19.500   2.376  49.300  1.00  0.00     0.241 C 
HETATM    6  O2  UNL     1      19.023   2.740  50.412  1.00  0.00    -0.269 OA
HETATM    7  H8  UNL     1      19.854   0.247  48.904  1.00  0.00     0.163 HD
BRANCH   5   8
HETATM    8  C7  UNL     1      19.980   2.815  47.993  1.00  0.00     0.075 C 
HETATM    9  C6  UNL     1      21.045   3.378  47.491  1.00  0.00     0.017 C 
BRANCH   9  10
HETATM   10  C5  UNL     1      22.300   3.848  48.036  1.00  0.00    -0.036 A 
HETATM   11  C4  UNL     1      22.825   5.103  47.969  1.00  0.00     0.014 A 
HETATM   12  C3  UNL     1      24.015   5.548  48.487  1.00  0.00     0.037 A 
HETATM   13  C2  UNL     1      24.778   4.617  49.157  1.00  0.00     0.068 A 
HETATM   14  C22 UNL     1      24.333   3.321  49.279  1.00  0.00     0.037 A 
HETATM   15  C21 UNL     1      23.125   2.987  48.721  1.00  0.00     0.014 A 
BRANCH  13  16
HETATM   16  O1  UNL     1      25.999   4.951  49.721  1.00  0.00    -0.356 OA
HETATM   17  C1  UNL     1      27.192   4.834  48.938  1.00  0.00     0.210 C 
ENDBRANCH  13  16
ENDBRANCH   9  10
ENDBRANCH   5   8
ENDBRANCH   3   4
ENDBRANCH   1   3
BRANCH   2  18
HETATM   18  C12 UNL     1      21.933  -0.357  53.622  1.00  0.00     0.083 A 
HETATM   19  N2  UNL     1      21.707  -1.222  54.628  1.00  0.00    -0.240 NA
HETATM   20  C13 UNL     1      22.704  -1.656  55.405  1.00  0.00     0.236 A 
HETATM   21  N3  UNL     1      23.918  -1.178  55.114  1.00  0.00    -0.223 NA
HETATM   22  C14 UNL     1      24.183  -0.320  54.126  1.00  0.00     0.151 A 
HETATM   23  C20 UNL     1      23.177   0.137  53.320  1.00  0.00     0.108 A 
HETATM   24 CL1  UNL     1      23.428   1.245  52.023  1.00  0.00    -0.078 Cl
BRANCH  22  25
HETATM   25  N4  UNL     1      25.517   0.163  53.859  1.00  0.00    -0.360 N 
HETATM   26  C15 UNL     1      26.105   1.473  54.188  1.00  0.00     0.154 C 
HETATM   27  C16 UNL     1      26.435   2.092  52.872  1.00  0.00     0.030 C 
HETATM   28  C17 UNL     1      26.664   1.352  51.796  1.00  0.00     0.093 C 
HETATM   29  F1  UNL     1      26.965   1.933  50.599  1.00  0.00    -0.211 F 
HETATM   30  C18 UNL     1      26.618  -0.128  51.781  1.00  0.00     0.089 C 
HETATM   31  C19 UNL     1      26.476  -0.711  53.171  1.00  0.00     0.131 C 
ENDBRANCH  22  25
ENDBRANCH   2  18
TORSDOF 7
ENDMDL
MODEL 9
REMARK VINA RESULT:      -8.3      4.493     10.017
REMARK  7 active torsions:
REMARK  status: ('A' for Active; 'I' for Inactive)
REMARK    1  A    between atoms: O1_2  and  C2_3 
REMARK    2  A    between atoms: C5_6  and  C6_7 
REMARK    3  A    between atoms: C7_8  and  C8_9 
REMARK       I    between atoms: C8_9  and  N1_11 
REMARK    4  A    between atoms: N1_11  and  C9_12 
REMARK    5  A    between atoms: C9_12  and  C10_13 
REMARK    6  A    between atoms: C11_14  and  C12_15 
REMARK    7  A    between atoms: C14_19  and  N4_20 
ROOT
HETATM    1  C10 UNL     1      26.978   5.548  48.848  1.00  0.00    -0.005 C 
HETATM    2  C11 UNL     1      26.775   4.337  49.268  1.00  0.00     0.031 C 
ENDROOT
BRANCH   1   3
HETATM    3  C9  UNL     1      27.706   6.563  48.110  1.00  0.00     0.150 C 
BRANCH   3   4
HETATM    4  N1  UNL     1      28.954   6.857  48.827  1.00  0.00    -0.354 N 
HETATM    5  C8  UNL     1      29.613   8.102  48.508  1.00  0.00     0.241 C 
HETATM    6  O2  UNL     1      28.759   8.470  47.653  1.00  0.00    -0.269 OA
HETATM    7  H8  UNL     1      29.363   6.187  49.551  1.00  0.00     0.163 HD
BRANCH   5   8
HETATM    8  C7  UNL     1      30.857   8.441  49.193  1.00  0.00     0.075 C 
HETATM    9  C6  UNL     1      32.074   7.978  49.276  1.00  0.00     0.017 C 
BRANCH   9  10
HETATM   10  C5  UNL     1      32.778   6.855  48.694  1.00  0.00    -0.036 A 
HETATM   11  C4  UNL     1      34.017   6.845  48.131  1.00  0.00     0.014 A 
HETATM   12  C3  UNL     1      34.684   5.779  47.579  1.00  0.00     0.037 A 
HETATM   13  C2  UNL     1      34.024   4.570  47.593  1.00  0.00     0.068 A 
HETATM   14  C22 UNL     1      32.765   4.478  48.139  1.00  0.00     0.037 A 
HETATM   15  C21 UNL     1      32.193   5.611  48.664  1.00  0.00     0.014 A 
BRANCH  13  16
HETATM   16  O1  UNL     1      34.598   3.425  47.062  1.00  0.00    -0.356 OA
HETATM   17  C1  UNL     1      35.199   3.476  45.764  1.00  0.00     0.210 C 
ENDBRANCH  13  16
ENDBRANCH   9  10
ENDBRANCH   5   8
ENDBRANCH   3   4
ENDBRANCH   1   3
BRANCH   2  18
HETATM   18  C12 UNL     1      25.965   3.426  50.039  1.00  0.00     0.083 A 
HETATM   19  N2  UNL     1      26.706   2.605  50.805  1.00  0.00    -0.240 NA
HETATM   20  C13 UNL     1      26.133   1.689  51.593  1.00  0.00     0.236 A 
HETATM   21  N3  UNL     1      24.798   1.650  51.562  1.00  0.00    -0.223 NA
HETATM   22  C14 UNL     1      24.028   2.446  50.816  1.00  0.00     0.151 A 
HETATM   23  C20 UNL     1      24.595   3.390  50.004  1.00  0.00     0.108 A 
HETATM   24 CL1  UNL     1      23.678   4.459  49.007  1.00  0.00    -0.078 Cl
BRANCH  22  25
HETATM   25  N4  UNL     1      22.587   2.358  50.825  1.00  0.00    -0.360 N 
HETATM   26  C15 UNL     1      21.626   3.072  51.682  1.00  0.00     0.154 C 
HETATM   27  C16 UNL     1      20.939   2.007  52.467  1.00  0.00     0.030 C 
HETATM   28  C17 UNL     1      20.849   0.763  52.015  1.00  0.00     0.093 C 
HETATM   29  F1  UNL     1      20.217  -0.201  52.745  1.00  0.00    -0.211 F 
HETATM   30  C18 UNL     1      21.405   0.307  50.721  1.00  0.00     0.089 C 
HETATM   31  C19 UNL     1      21.914   1.458  49.879  1.00  0.00     0.131 C 
ENDBRANCH  22  25
ENDBRANCH   2  18
TORSDOF 7
ENDMDL
