MODEL 1
REMARK VINA RESULT:      -7.7      0.000      0.000
REMARK  1 active torsions:
REMARK  status: ('A' for Active; 'I' for Inactive)
REMARK    1  A    between atoms: C4_5  and  N1_6 
ROOT
HETATM    1  N1  UNL     1      23.443   4.028  50.836  1.00  0.00    -0.209 N 
HETATM    2  N2  UNL     1      23.266   5.013  51.773  1.00  0.00    -0.177 NA
HETATM    3  C5  UNL     1      23.509   4.928  53.050  1.00  0.00     0.150 C 
HETATM    4  C6  UNL     1      24.002   3.534  53.165  1.00  0.00    -0.016 A 
HETATM    5  C7  UNL     1      25.253   3.192  53.629  1.00  0.00     0.014 A 
HETATM    6  C8  UNL     1      25.663   1.877  53.542  1.00  0.00     0.025 A 
HETATM    7  C9  UNL     1      24.812   0.946  52.995  1.00  0.00     0.040 A 
HETATM    8 CL1  UNL     1      25.060  -0.742  52.760  1.00  0.00    -0.084 Cl
HETATM    9  C10 UNL     1      23.595   1.378  52.564  1.00  0.00    -0.031 A 
HETATM   10  C11 UNL     1      23.100   2.654  52.616  1.00  0.00     0.022 A 
HETATM   11  C12 UNL     1      22.506   0.754  51.768  1.00  0.00     0.081 C 
HETATM   12  C13 UNL     1      22.345   1.581  50.492  1.00  0.00    -0.025 A 
HETATM   13  C14 UNL     1      21.691   0.904  49.507  1.00  0.00     0.010 A 
HETATM   14  C15 UNL     1      21.410   1.387  48.250  1.00  0.00     0.001 A 
HETATM   15  C16 UNL     1      21.809   2.662  47.919  1.00  0.00     0.002 A 
HETATM   16  C17 UNL     1      22.483   3.355  48.941  1.00  0.00     0.032 A 
HETATM   17  C18 UNL     1      22.774   2.892  50.207  1.00  0.00     0.067 A 
ENDROOT
BRANCH   1  18
HETATM   18  C4  UNL     1      24.823   4.161  50.169  1.00  0.00     0.194 A 
HETATM   19  S1  UNL     1      26.354   3.061  49.928  1.00  0.00    -0.060 SA
HETATM   20  C3  UNL     1      27.254   4.297  49.041  1.00  0.00     0.080 A 
HETATM   21  C2  UNL     1      26.305   5.375  49.033  1.00  0.00     0.040 A 
HETATM   22  C1  UNL     1      26.572   6.715  48.385  1.00  0.00     0.071 C 
HETATM   23  N3  UNL     1      25.133   5.228  49.609  1.00  0.00    -0.227 NA
ENDBRANCH   1  18
TORSDOF 1
ENDMDL
MODEL 2
REMARK VINA RESULT:      -7.7      2.558      4.493
REMARK  1 active torsions:
REMARK  status: ('A' for Active; 'I' for Inactive)
REMARK    1  A    between atoms: C4_5  and  N1_6 
ROOT
HETATM    1  N1  UNL     1      23.017   2.162  50.231  1.00  0.00    -0.209 N 
HETATM    2  N2  UNL     1      22.414   1.737  49.075  1.00  0.00    -0.177 NA
HETATM    3  C5  UNL     1      21.313   1.048  48.977  1.00  0.00     0.150 C 
HETATM    4  C6  UNL     1      20.943   0.878  50.403  1.00  0.00    -0.016 A 
HETATM    5  C7  UNL     1      19.767   1.334  50.957  1.00  0.00     0.014 A 
HETATM    6  C8  UNL     1      19.599   1.263  52.325  1.00  0.00     0.025 A 
HETATM    7  C9  UNL     1      20.609   0.739  53.097  1.00  0.00     0.040 A 
HETATM    8 CL1  UNL     1      20.672   0.536  54.805  1.00  0.00    -0.084 Cl
HETATM    9  C10 UNL     1      21.735   0.313  52.460  1.00  0.00    -0.031 A 
HETATM   10  C11 UNL     1      21.987   0.336  51.114  1.00  0.00     0.022 A 
HETATM   11  C12 UNL     1      23.078  -0.117  52.927  1.00  0.00     0.081 C 
HETATM   12  C13 UNL     1      24.097   0.861  52.341  1.00  0.00    -0.025 A 
HETATM   13  C14 UNL     1      25.288   0.839  53.003  1.00  0.00     0.010 A 
HETATM   14  C15 UNL     1      26.385   1.613  52.710  1.00  0.00     0.001 A 
HETATM   15  C16 UNL     1      26.315   2.503  51.663  1.00  0.00     0.002 A 
HETATM   16  C17 UNL     1      25.084   2.521  50.983  1.00  0.00     0.032 A 
HETATM   17  C18 UNL     1      23.971   1.754  51.259  1.00  0.00     0.067 A 
ENDROOT
BRANCH   1  18
HETATM   18  C4  UNL     1      22.569   3.592  50.579  1.00  0.00     0.194 A 
HETATM   19  S1  UNL     1      22.053   4.537  52.145  1.00  0.00    -0.060 SA
HETATM   20  C3  UNL     1      21.774   6.056  51.284  1.00  0.00     0.080 A 
HETATM   21  C2  UNL     1      22.099   5.674  49.939  1.00  0.00     0.040 A 
HETATM   22  C1  UNL     1      22.028   6.621  48.763  1.00  0.00     0.071 C 
HETATM   23  N3  UNL     1      22.482   4.443  49.676  1.00  0.00    -0.227 NA
ENDBRANCH   1  18
TORSDOF 1
ENDMDL
MODEL 3
REMARK VINA RESULT:      -7.7      2.270      3.852
REMARK  1 active torsions:
REMARK  status: ('A' for Active; 'I' for Inactive)
REMARK    1  A    between atoms: C4_5  and  N1_6 
ROOT
HETATM    1  N1  UNL     1      22.341   2.272  52.382  1.00  0.00    -0.209 N 
HETATM    2  N2  UNL     1      22.638   3.584  52.651  1.00  0.00    -0.177 NA
HETATM    3  C5  UNL     1      23.825   4.109  52.756  1.00  0.00     0.150 C 
HETATM    4  C6  UNL     1      24.693   2.931  52.511  1.00  0.00    -0.016 A 
HETATM    5  C7  UNL     1      25.603   2.840  51.481  1.00  0.00     0.014 A 
HETATM    6  C8  UNL     1      26.241   1.638  51.254  1.00  0.00     0.025 A 
HETATM    7  C9  UNL     1      25.949   0.564  52.060  1.00  0.00     0.040 A 
HETATM    8 CL1  UNL     1      26.580  -1.037  52.003  1.00  0.00    -0.084 Cl
HETATM    9  C10 UNL     1      25.035   0.748  53.054  1.00  0.00    -0.031 A 
HETATM   10  C11 UNL     1      24.362   1.901  53.359  1.00  0.00     0.022 A 
HETATM   11  C12 UNL     1      24.325  -0.172  53.980  1.00  0.00     0.081 C 
HETATM   12  C13 UNL     1      22.830  -0.043  53.692  1.00  0.00    -0.025 A 
HETATM   13  C14 UNL     1      22.111  -1.100  54.162  1.00  0.00     0.010 A 
HETATM   14  C15 UNL     1      20.751  -1.265  54.042  1.00  0.00     0.001 A 
HETATM   15  C16 UNL     1      20.015  -0.298  53.396  1.00  0.00     0.002 A 
HETATM   16  C17 UNL     1      20.763   0.791  52.913  1.00  0.00     0.032 A 
HETATM   17  C18 UNL     1      22.125   0.977  53.022  1.00  0.00     0.067 A 
ENDROOT
BRANCH   1  18
HETATM   18  C4  UNL     1      22.121   2.068  50.873  1.00  0.00     0.194 A 
HETATM   19  S1  UNL     1      21.521   0.664  49.741  1.00  0.00    -0.060 SA
HETATM   20  C3  UNL     1      21.710   1.611  48.261  1.00  0.00     0.080 A 
HETATM   21  C2  UNL     1      22.196   2.855  48.790  1.00  0.00     0.040 A 
HETATM   22  C1  UNL     1      22.533   4.052  47.931  1.00  0.00     0.071 C 
HETATM   23  N3  UNL     1      22.370   2.998  50.086  1.00  0.00    -0.227 NA
ENDBRANCH   1  18
TORSDOF 1
ENDMDL
MODEL 4
REMARK VINA RESULT:      -7.3      2.664      4.814
REMARK  1 active torsions:
REMARK  status: ('A' for Active; 'I' for Inactive)
REMARK    1  A    between atoms: C4_5  and  N1_6 
ROOT
HETATM    1  N1  UNL     1      23.028   2.732  49.751  1.00  0.00    -0.209 N 
HETATM    2  N2  UNL     1      23.191   2.668  48.391  1.00  0.00    -0.177 NA
HETATM    3  C5  UNL     1      22.308   2.277  47.517  1.00  0.00     0.150 C 
HETATM    4  C6  UNL     1      21.154   1.947  48.389  1.00  0.00    -0.016 A 
HETATM    5  C7  UNL     1      19.921   2.556  48.305  1.00  0.00     0.014 A 
HETATM    6  C8  UNL     1      18.973   2.285  49.269  1.00  0.00     0.025 A 
HETATM    7  C9  UNL     1      19.284   1.416  50.288  1.00  0.00     0.040 A 
HETATM    8 CL1  UNL     1      18.310   0.905  51.612  1.00  0.00    -0.084 Cl
HETATM    9  C10 UNL     1      20.529   0.862  50.288  1.00  0.00    -0.031 A 
HETATM   10  C11 UNL     1      21.528   1.064  49.374  1.00  0.00     0.022 A 
HETATM   11  C12 UNL     1      21.296   0.061  51.277  1.00  0.00     0.081 C 
HETATM   12  C13 UNL     1      22.541   0.866  51.647  1.00  0.00    -0.025 A 
HETATM   13  C14 UNL     1      23.104   0.455  52.818  1.00  0.00     0.010 A 
HETATM   14  C15 UNL     1      24.223   0.997  53.405  1.00  0.00     0.001 A 
HETATM   15  C16 UNL     1      24.859   2.050  52.789  1.00  0.00     0.002 A 
HETATM   16  C17 UNL     1      24.273   2.470  51.581  1.00  0.00     0.032 A 
HETATM   17  C18 UNL     1      23.153   1.941  50.973  1.00  0.00     0.067 A 
ENDROOT
BRANCH   1  18
HETATM   18  C4  UNL     1      22.582   4.142  50.175  1.00  0.00     0.194 A 
HETATM   19  S1  UNL     1      21.268   4.889  51.326  1.00  0.00    -0.060 SA
HETATM   20  C3  UNL     1      21.728   6.559  50.970  1.00  0.00     0.080 A 
HETATM   21  C2  UNL     1      22.803   6.355  50.039  1.00  0.00     0.040 A 
HETATM   22  C1  UNL     1      23.576   7.485  49.400  1.00  0.00     0.071 C 
HETATM   23  N3  UNL     1      23.162   5.136  49.701  1.00  0.00    -0.227 NA
ENDBRANCH   1  18
TORSDOF 1
ENDMDL
MODEL 5
REMARK VINA RESULT:      -7.2      2.445      4.312
REMARK  1 active torsions:
REMARK  status: ('A' for Active; 'I' for Inactive)
REMARK    1  A    between atoms: C4_5  and  N1_6 
ROOT
HETATM    1  N1  UNL     1      21.685   2.990  52.048  1.00  0.00    -0.209 N 
HETATM    2  N2  UNL     1      21.364   4.251  52.481  1.00  0.00    -0.177 NA
HETATM    3  C5  UNL     1      22.114   5.314  52.412  1.00  0.00     0.150 C 
HETATM    4  C6  UNL     1      23.334   4.774  51.766  1.00  0.00    -0.016 A 
HETATM    5  C7  UNL     1      23.831   5.215  50.559  1.00  0.00     0.014 A 
HETATM    6  C8  UNL     1      24.880   4.533  49.976  1.00  0.00     0.025 A 
HETATM    7  C9  UNL     1      25.398   3.432  50.615  1.00  0.00     0.040 A 
HETATM    8 CL1  UNL     1      26.686   2.400  50.122  1.00  0.00    -0.084 Cl
HETATM    9  C10 UNL     1      24.841   3.070  51.804  1.00  0.00    -0.031 A 
HETATM   10  C11 UNL     1      23.810   3.687  52.461  1.00  0.00     0.022 A 
HETATM   11  C12 UNL     1      24.975   1.877  52.680  1.00  0.00     0.081 C 
HETATM   12  C13 UNL     1      23.598   1.218  52.764  1.00  0.00    -0.025 A 
HETATM   13  C14 UNL     1      23.660  -0.078  53.179  1.00  0.00     0.010 A 
HETATM   14  C15 UNL     1      22.587  -0.923  53.339  1.00  0.00     0.001 A 
HETATM   15  C16 UNL     1      21.322  -0.457  53.064  1.00  0.00     0.002 A 
HETATM   16  C17 UNL     1      21.264   0.882  52.636  1.00  0.00     0.032 A 
HETATM   17  C18 UNL     1      22.326   1.747  52.470  1.00  0.00     0.067 A 
ENDROOT
BRANCH   1  18
HETATM   18  C4  UNL     1      21.169   2.765  50.616  1.00  0.00     0.194 A 
HETATM   19  S1  UNL     1      19.487   2.791  49.732  1.00  0.00    -0.060 SA
HETATM   20  C3  UNL     1      20.172   2.384  48.154  1.00  0.00     0.080 A 
HETATM   21  C2  UNL     1      21.567   2.279  48.479  1.00  0.00     0.040 A 
HETATM   22  C1  UNL     1      22.635   1.939  47.464  1.00  0.00     0.071 C 
HETATM   23  N3  UNL     1      21.976   2.481  49.712  1.00  0.00    -0.227 NA
ENDBRANCH   1  18
TORSDOF 1
ENDMDL
MODEL 6
REMARK VINA RESULT:      -7.1      3.569      6.156
REMARK  1 active torsions:
REMARK  status: ('A' for Active; 'I' for Inactive)
REMARK    1  A    between atoms: C4_5  and  N1_6 
ROOT
HETATM    1  N1  UNL     1      24.073   5.027  50.294  1.00  0.00    -0.209 N 
HETATM    2  N2  UNL     1      23.461   4.758  51.492  1.00  0.00    -0.177 NA
HETATM    3  C5  UNL     1      22.615   5.521  52.123  1.00  0.00     0.150 C 
HETATM    4  C6  UNL     1      22.526   6.686  51.210  1.00  0.00    -0.016 A 
HETATM    5  C7  UNL     1      21.363   7.108  50.605  1.00  0.00     0.014 A 
HETATM    6  C8  UNL     1      21.427   8.103  49.651  1.00  0.00     0.025 A 
HETATM    7  C9  UNL     1      22.649   8.643  49.329  1.00  0.00     0.040 A 
HETATM    8 CL1  UNL     1      23.022   9.876  48.186  1.00  0.00    -0.084 Cl
HETATM    9  C10 UNL     1      23.745   8.161  49.980  1.00  0.00    -0.031 A 
HETATM   10  C11 UNL     1      23.777   7.188  50.942  1.00  0.00     0.022 A 
HETATM   11  C12 UNL     1      25.209   8.332  49.791  1.00  0.00     0.081 C 
HETATM   12  C13 UNL     1      25.792   6.952  49.485  1.00  0.00    -0.025 A 
HETATM   13  C14 UNL     1      27.018   7.018  48.896  1.00  0.00     0.010 A 
HETATM   14  C15 UNL     1      27.779   5.944  48.499  1.00  0.00     0.001 A 
HETATM   15  C16 UNL     1      27.293   4.672  48.696  1.00  0.00     0.002 A 
HETATM   16  C17 UNL     1      26.026   4.610  49.304  1.00  0.00     0.032 A 
HETATM   17  C18 UNL     1      25.247   5.673  49.711  1.00  0.00     0.067 A 
ENDROOT
BRANCH   1  18
HETATM   18  C4  UNL     1      23.275   4.413  49.131  1.00  0.00     0.194 A 
HETATM   19  S1  UNL     1      22.639   4.988  47.435  1.00  0.00    -0.060 SA
HETATM   20  C3  UNL     1      21.886   3.435  47.054  1.00  0.00     0.080 A 
HETATM   21  C2  UNL     1      22.200   2.680  48.235  1.00  0.00     0.040 A 
HETATM   22  C1  UNL     1      21.779   1.243  48.441  1.00  0.00     0.071 C 
HETATM   23  N3  UNL     1      22.887   3.234  49.210  1.00  0.00    -0.227 NA
ENDBRANCH   1  18
TORSDOF 1
ENDMDL
MODEL 7
REMARK VINA RESULT:      -6.9     19.135     21.755
REMARK  1 active torsions:
REMARK  status: ('A' for Active; 'I' for Inactive)
REMARK    1  A    between atoms: C4_5  and  N1_6 
ROOT
HETATM    1  N1  UNL     1      43.459   5.644  56.528  1.00  0.00    -0.209 N 
HETATM    2  N2  UNL     1      42.176   5.307  56.181  1.00  0.00    -0.177 NA
HETATM    3  C5  UNL     1      41.401   5.940  55.347  1.00  0.00     0.150 C 
HETATM    4  C6  UNL     1      42.276   7.059  54.922  1.00  0.00    -0.016 A 
HETATM    5  C7  UNL     1      42.667   7.285  53.620  1.00  0.00     0.014 A 
HETATM    6  C8  UNL     1      43.609   8.259  53.363  1.00  0.00     0.025 A 
HETATM    7  C9  UNL     1      44.133   8.976  54.412  1.00  0.00     0.040 A 
HETATM    8 CL1  UNL     1      45.313  10.231  54.384  1.00  0.00    -0.084 Cl
HETATM    9  C10 UNL     1      43.686   8.683  55.664  1.00  0.00    -0.031 A 
HETATM   10  C11 UNL     1      42.752   7.745  56.014  1.00  0.00     0.022 A 
HETATM   11  C12 UNL     1      44.124   9.075  57.029  1.00  0.00     0.081 C 
HETATM   12  C13 UNL     1      44.538   7.797  57.759  1.00  0.00    -0.025 A 
HETATM   13  C14 UNL     1      45.330   8.042  58.840  1.00  0.00     0.010 A 
HETATM   14  C15 UNL     1      45.861   7.091  59.679  1.00  0.00     0.001 A 
HETATM   15  C16 UNL     1      45.594   5.763  59.439  1.00  0.00     0.002 A 
HETATM   16  C17 UNL     1      44.776   5.516  58.322  1.00  0.00     0.032 A 
HETATM   17  C18 UNL     1      44.232   6.453  57.468  1.00  0.00     0.067 A 
ENDROOT
BRANCH   1  18
HETATM   18  C4  UNL     1      44.472   4.892  55.647  1.00  0.00     0.194 A 
HETATM   19  S1  UNL     1      46.029   5.329  54.650  1.00  0.00    -0.060 SA
HETATM   20  C3  UNL     1      46.285   3.671  54.091  1.00  0.00     0.080 A 
HETATM   21  C2  UNL     1      45.181   2.997  54.715  1.00  0.00     0.040 A 
HETATM   22  C1  UNL     1      44.915   1.517  54.563  1.00  0.00     0.071 C 
HETATM   23  N3  UNL     1      44.335   3.669  55.465  1.00  0.00    -0.227 NA
ENDBRANCH   1  18
TORSDOF 1
ENDMDL
MODEL 8
REMARK VINA RESULT:      -6.8      8.661     11.081
REMARK  1 active torsions:
REMARK  status: ('A' for Active; 'I' for Inactive)
REMARK    1  A    between atoms: C4_5  and  N1_6 
ROOT
HETATM    1  N1  UNL     1      33.589   7.975  47.133  1.00  0.00    -0.209 N 
HETATM    2  N2  UNL     1      34.609   7.171  47.573  1.00  0.00    -0.177 NA
HETATM    3  C5  UNL     1      34.493   6.012  48.157  1.00  0.00     0.150 C 
HETATM    4  C6  UNL     1      33.020   5.846  48.194  1.00  0.00    -0.016 A 
HETATM    5  C7  UNL     1      32.342   4.811  47.589  1.00  0.00     0.014 A 
HETATM    6  C8  UNL     1      30.963   4.843  47.553  1.00  0.00     0.025 A 
HETATM    7  C9  UNL     1      30.304   5.908  48.120  1.00  0.00     0.040 A 
HETATM    8 CL1  UNL     1      28.611   6.209  48.214  1.00  0.00    -0.084 Cl
HETATM    9  C10 UNL     1      31.059   6.885  48.696  1.00  0.00    -0.031 A 
HETATM   10  C11 UNL     1      32.424   6.934  48.787  1.00  0.00     0.022 A 
HETATM   11  C12 UNL     1      30.756   8.241  49.223  1.00  0.00     0.081 C 
HETATM   12  C13 UNL     1      31.557   9.242  48.391  1.00  0.00    -0.025 A 
HETATM   13  C14 UNL     1      31.072  10.512  48.485  1.00  0.00     0.010 A 
HETATM   14  C15 UNL     1      31.581  11.616  47.843  1.00  0.00     0.001 A 
HETATM   15  C16 UNL     1      32.675  11.468  47.022  1.00  0.00     0.002 A 
HETATM   16  C17 UNL     1      33.171  10.155  46.929  1.00  0.00     0.032 A 
HETATM   17  C18 UNL     1      32.678   9.033  47.564  1.00  0.00     0.067 A 
ENDROOT
BRANCH   1  18
HETATM   18  C4  UNL     1      33.297   7.711  45.646  1.00  0.00     0.194 A 
HETATM   19  S1  UNL     1      31.754   7.522  44.553  1.00  0.00    -0.060 SA
HETATM   20  C3  UNL     1      32.685   7.247  43.075  1.00  0.00     0.080 A 
HETATM   21  C2  UNL     1      34.028   7.330  43.577  1.00  0.00     0.040 A 
HETATM   22  C1  UNL     1      35.253   7.163  42.708  1.00  0.00     0.071 C 
HETATM   23  N3  UNL     1      34.243   7.561  44.853  1.00  0.00    -0.227 NA
ENDBRANCH   1  18
TORSDOF 1
ENDMDL
MODEL 9
REMARK VINA RESULT:      -6.8      8.749     10.587
REMARK  1 active torsions:
REMARK  status: ('A' for Active; 'I' for Inactive)
REMARK    1  A    between atoms: C4_5  and  N1_6 
ROOT
HETATM    1  N1  UNL     1      33.188   7.532  46.995  1.00  0.00    -0.209 N 
HETATM    2  N2  UNL     1      34.265   7.704  47.827  1.00  0.00    -0.177 NA
HETATM    3  C5  UNL     1      34.932   6.769  48.441  1.00  0.00     0.150 C 
HETATM    4  C6  UNL     1      34.216   5.550  47.993  1.00  0.00    -0.016 A 
HETATM    5  C7  UNL     1      34.804   4.520  47.293  1.00  0.00     0.014 A 
HETATM    6  C8  UNL     1      34.008   3.512  46.788  1.00  0.00     0.025 A 
HETATM    7  C9  UNL     1      32.651   3.564  46.997  1.00  0.00     0.040 A 
HETATM    8 CL1  UNL     1      31.433   2.461  46.484  1.00  0.00    -0.084 Cl
HETATM    9  C10 UNL     1      32.159   4.622  47.701  1.00  0.00    -0.031 A 
HETATM   10  C11 UNL     1      32.869   5.659  48.245  1.00  0.00     0.022 A 
HETATM   11  C12 UNL     1      30.789   5.132  47.966  1.00  0.00     0.081 C 
HETATM   12  C13 UNL     1      30.702   6.535  47.366  1.00  0.00    -0.025 A 
HETATM   13  C14 UNL     1      29.417   6.945  47.171  1.00  0.00     0.010 A 
HETATM   14  C15 UNL     1      29.031   8.153  46.640  1.00  0.00     0.001 A 
HETATM   15  C16 UNL     1      29.997   9.054  46.256  1.00  0.00     0.002 A 
HETATM   16  C17 UNL     1      31.321   8.625  46.459  1.00  0.00     0.032 A 
HETATM   17  C18 UNL     1      31.732   7.420  46.991  1.00  0.00     0.067 A 
ENDROOT
BRANCH   1  18
HETATM   18  C4  UNL     1      33.647   7.460  45.528  1.00  0.00     0.194 A 
HETATM   19  S1  UNL     1      34.575   8.588  44.312  1.00  0.00    -0.060 SA
HETATM   20  C3  UNL     1      34.482   7.431  42.978  1.00  0.00     0.080 A 
HETATM   21  C2  UNL     1      33.774   6.349  43.601  1.00  0.00     0.040 A 
HETATM   22  C1  UNL     1      33.416   5.066  42.886  1.00  0.00     0.071 C 
HETATM   23  N3  UNL     1      33.398   6.441  44.858  1.00  0.00    -0.227 NA
ENDBRANCH   1  18
TORSDOF 1
ENDMDL
