MODEL 1
REMARK VINA RESULT:      -8.9      0.000      0.000
REMARK  4 active torsions:
REMARK  status: ('A' for Active; 'I' for Inactive)
REMARK    1  A    between atoms: C3_3  and  C5_5 
REMARK    2  A    between atoms: C5_5  and  O1_6 
REMARK    3  A    between atoms: C5_5  and  C6_7 
REMARK    4  A    between atoms: C18_21  and  O3_22 
ROOT
HETATM    1  C6  UNL     1      26.084   2.360  51.379  1.00  0.00     0.049 C 
HETATM    2  C7  UNL     1      26.840   3.137  50.371  1.00  0.00    -0.012 C 
HETATM    3  C8  UNL     1      26.612   4.170  49.517  1.00  0.00    -0.066 C 
HETATM    4  C9  UNL     1      27.643   4.715  48.611  1.00  0.00     0.048 C 
HETATM    5  C10 UNL     1      25.535   5.086  49.205  1.00  0.00     0.002 C 
HETATM    6  C11 UNL     1      24.646   5.959  48.827  1.00  0.00    -0.026 C 
HETATM    7  C12 UNL     1      23.299   6.382  49.200  1.00  0.00     0.035 C 
HETATM    8  C13 UNL     1      22.182   6.179  48.242  1.00  0.00     0.009 C 
HETATM    9  C14 UNL     1      22.192   7.000  47.014  1.00  0.00     0.014 C 
HETATM   10  C15 UNL     1      20.937   6.234  49.070  1.00  0.00    -0.003 C 
HETATM   11  C16 UNL     1      20.210   5.180  49.385  1.00  0.00     0.113 C 
HETATM   12  N1  UNL     1      19.086   4.557  50.028  1.00  0.00    -0.266 N 
HETATM   13  C17 UNL     1      17.947   5.167  49.401  1.00  0.00     0.185 C 
HETATM   14  O2  UNL     1      19.296   3.600  51.026  1.00  0.00    -0.210 OA
HETATM   15  C18 UNL     1      19.990   2.417  50.789  1.00  0.00     0.215 C 
HETATM   16  C20 UNL     1      21.114   1.701  50.741  1.00  0.00     0.031 C 
HETATM   17  C21 UNL     1      21.016   0.264  50.326  1.00  0.00     0.056 C 
HETATM   18  C22 UNL     1      22.481   2.005  51.059  1.00  0.00     0.093 A 
HETATM   19  O4  UNL     1      23.609   1.481  50.993  1.00  0.00    -0.334 OA
HETATM   20  C23 UNL     1      23.445   2.947  51.594  1.00  0.00     0.117 A 
HETATM   21  C24 UNL     1      22.655   4.002  52.262  1.00  0.00     0.055 C 
HETATM   22  C25 UNL     1      24.731   2.908  51.618  1.00  0.00     0.046 C 
ENDROOT
BRANCH   1  23
HETATM   23  C5  UNL     1      26.856   2.184  52.632  1.00  0.00     0.154 C 
BRANCH  23  24
HETATM   24  C3  UNL     1      27.024   0.761  53.078  1.00  0.00    -0.059 C 
HETATM   25  C2  UNL     1      26.689  -0.237  52.197  1.00  0.00    -0.026 C 
HETATM   26  C1  UNL     1      26.882  -1.642  52.660  1.00  0.00     0.036 C 
HETATM   27  C4  UNL     1      27.524   0.153  54.344  1.00  0.00     0.046 C 
ENDBRANCH  23  24
BRANCH  23  28
HETATM   28  O1  UNL     1      28.114   2.788  52.505  1.00  0.00    -0.391 OA
HETATM   29  H9  UNL     1      28.596   2.526  51.677  1.00  0.00     0.210 HD
ENDBRANCH  23  28
ENDBRANCH   1  23
BRANCH  15  30
HETATM   30  O3  UNL     1      18.819   1.791  50.450  1.00  0.00    -0.334 OA
HETATM   31  C19 UNL     1      17.758   1.548  51.350  1.00  0.00     0.212 C 
ENDBRANCH  15  30
TORSDOF 4
ENDMDL
MODEL 2
REMARK VINA RESULT:      -8.9      2.264      5.009
REMARK  4 active torsions:
REMARK  status: ('A' for Active; 'I' for Inactive)
REMARK    1  A    between atoms: C3_3  and  C5_5 
REMARK    2  A    between atoms: C5_5  and  O1_6 
REMARK    3  A    between atoms: C5_5  and  C6_7 
REMARK    4  A    between atoms: C18_21  and  O3_22 
ROOT
HETATM    1  C6  UNL     1      24.925   0.821  52.738  1.00  0.00     0.049 C 
HETATM    2  C7  UNL     1      23.991  -0.030  53.509  1.00  0.00    -0.012 C 
HETATM    3  C8  UNL     1      22.663  -0.324  53.512  1.00  0.00    -0.066 C 
HETATM    4  C9  UNL     1      22.042  -1.260  54.469  1.00  0.00     0.048 C 
HETATM    5  C10 UNL     1      21.494  -0.009  52.718  1.00  0.00     0.002 C 
HETATM    6  C11 UNL     1      20.371   0.203  52.094  1.00  0.00    -0.026 C 
HETATM    7  C12 UNL     1      19.897   0.889  50.896  1.00  0.00     0.035 C 
HETATM    8  C13 UNL     1      18.989   2.056  51.037  1.00  0.00     0.009 C 
HETATM    9  C14 UNL     1      17.622   1.789  51.529  1.00  0.00     0.014 C 
HETATM   10  C15 UNL     1      19.098   2.800  49.743  1.00  0.00    -0.003 C 
HETATM   11  C16 UNL     1      19.743   3.941  49.598  1.00  0.00     0.113 C 
HETATM   12  N1  UNL     1      20.203   5.050  48.807  1.00  0.00    -0.266 N 
HETATM   13  C17 UNL     1      18.993   5.664  48.337  1.00  0.00     0.185 C 
HETATM   14  O2  UNL     1      21.574   5.280  48.660  1.00  0.00    -0.210 OA
HETATM   15  C18 UNL     1      22.408   5.533  49.745  1.00  0.00     0.215 C 
HETATM   16  C20 UNL     1      23.218   5.132  50.726  1.00  0.00     0.031 C 
HETATM   17  C21 UNL     1      23.823   6.178  51.613  1.00  0.00     0.056 C 
HETATM   18  C22 UNL     1      23.706   3.841  51.124  1.00  0.00     0.093 A 
HETATM   19  O4  UNL     1      24.382   3.321  52.033  1.00  0.00    -0.334 OA
HETATM   20  C23 UNL     1      23.797   2.418  50.859  1.00  0.00     0.117 A 
HETATM   21  C24 UNL     1      23.308   2.231  49.476  1.00  0.00     0.055 C 
HETATM   22  C25 UNL     1      24.276   1.461  51.573  1.00  0.00     0.046 C 
ENDROOT
BRANCH   1  23
HETATM   23  C5  UNL     1      26.161   0.090  52.370  1.00  0.00     0.154 C 
BRANCH  23  24
HETATM   24  C3  UNL     1      27.421   0.634  52.976  1.00  0.00    -0.059 C 
HETATM   25  C2  UNL     1      27.562   1.997  53.063  1.00  0.00    -0.026 C 
HETATM   26  C1  UNL     1      28.817   2.509  53.685  1.00  0.00     0.036 C 
HETATM   27  C4  UNL     1      28.627  -0.024  53.558  1.00  0.00     0.046 C 
ENDBRANCH  23  24
BRANCH  23  28
HETATM   28  O1  UNL     1      26.028  -1.266  52.699  1.00  0.00    -0.391 OA
HETATM   29  H9  UNL     1      25.129  -1.500  53.054  1.00  0.00     0.210 HD
ENDBRANCH  23  28
ENDBRANCH   1  23
BRANCH  15  30
HETATM   30  O3  UNL     1      22.179   6.878  49.616  1.00  0.00    -0.334 OA
HETATM   31  C19 UNL     1      22.592   7.651  48.509  1.00  0.00     0.212 C 
ENDBRANCH  15  30
TORSDOF 4
ENDMDL
MODEL 3
REMARK VINA RESULT:      -8.5      2.137      5.341
REMARK  4 active torsions:
REMARK  status: ('A' for Active; 'I' for Inactive)
REMARK    1  A    between atoms: C3_3  and  C5_5 
REMARK    2  A    between atoms: C5_5  and  O1_6 
REMARK    3  A    between atoms: C5_5  and  C6_7 
REMARK    4  A    between atoms: C18_21  and  O3_22 
ROOT
HETATM    1  C6  UNL     1      25.046   3.768  50.344  1.00  0.00     0.049 C 
HETATM    2  C7  UNL     1      25.178   2.915  51.547  1.00  0.00    -0.012 C 
HETATM    3  C8  UNL     1      24.460   1.950  52.181  1.00  0.00    -0.066 C 
HETATM    4  C9  UNL     1      24.913   1.284  53.418  1.00  0.00     0.048 C 
HETATM    5  C10 UNL     1      23.231   1.213  51.969  1.00  0.00     0.002 C 
HETATM    6  C11 UNL     1      22.149   0.493  51.898  1.00  0.00    -0.026 C 
HETATM    7  C12 UNL     1      21.045   0.264  50.971  1.00  0.00     0.035 C 
HETATM    8  C13 UNL     1      19.669   0.656  51.369  1.00  0.00     0.009 C 
HETATM    9  C14 UNL     1      19.034  -0.124  52.451  1.00  0.00     0.014 C 
HETATM   10  C15 UNL     1      18.903   0.763  50.088  1.00  0.00    -0.003 C 
HETATM   11  C16 UNL     1      18.541   1.904  49.535  1.00  0.00     0.113 C 
HETATM   12  N1  UNL     1      17.904   2.670  48.499  1.00  0.00    -0.266 N 
HETATM   13  C17 UNL     1      16.530   2.252  48.557  1.00  0.00     0.185 C 
HETATM   14  O2  UNL     1      18.656   3.557  47.724  1.00  0.00    -0.210 OA
HETATM   15  C18 UNL     1      19.346   4.631  48.280  1.00  0.00     0.215 C 
HETATM   16  C20 UNL     1      20.433   5.173  48.830  1.00  0.00     0.031 C 
HETATM   17  C21 UNL     1      20.379   6.620  49.219  1.00  0.00     0.056 C 
HETATM   18  C22 UNL     1      21.745   4.661  49.112  1.00  0.00     0.093 A 
HETATM   19  O4  UNL     1      22.801   5.014  49.673  1.00  0.00    -0.334 OA
HETATM   20  C23 UNL     1      22.697   3.572  49.002  1.00  0.00     0.117 A 
HETATM   21  C24 UNL     1      22.123   2.628  48.021  1.00  0.00     0.055 C 
HETATM   22  C25 UNL     1      23.861   3.420  49.530  1.00  0.00     0.046 C 
ENDROOT
BRANCH   1  23
HETATM   23  C5  UNL     1      26.296   3.793  49.547  1.00  0.00     0.154 C 
BRANCH  23  24
HETATM   24  C3  UNL     1      26.635   5.125  48.944  1.00  0.00    -0.059 C 
HETATM   25  C2  UNL     1      27.923   5.332  48.517  1.00  0.00    -0.026 C 
HETATM   26  C1  UNL     1      28.228   6.658  47.906  1.00  0.00     0.036 C 
HETATM   27  C4  UNL     1      25.823   6.346  48.673  1.00  0.00     0.046 C 
ENDBRANCH  23  24
BRANCH  23  28
HETATM   28  O1  UNL     1      27.368   3.344  50.329  1.00  0.00    -0.391 OA
HETATM   29  H9  UNL     1      28.149   3.958  50.319  1.00  0.00     0.210 HD
ENDBRANCH  23  28
ENDBRANCH   1  23
BRANCH  15  30
HETATM   30  O3  UNL     1      18.248   5.432  48.112  1.00  0.00    -0.334 OA
HETATM   31  C19 UNL     1      17.733   5.821  46.855  1.00  0.00     0.212 C 
ENDBRANCH  15  30
TORSDOF 4
ENDMDL
MODEL 4
REMARK VINA RESULT:      -8.5      2.750      5.085
REMARK  4 active torsions:
REMARK  status: ('A' for Active; 'I' for Inactive)
REMARK    1  A    between atoms: C3_3  and  C5_5 
REMARK    2  A    between atoms: C5_5  and  O1_6 
REMARK    3  A    between atoms: C5_5  and  C6_7 
REMARK    4  A    between atoms: C18_21  and  O3_22 
ROOT
HETATM    1  C6  UNL     1      24.497   2.566  52.853  1.00  0.00     0.049 C 
HETATM    2  C7  UNL     1      23.400   1.573  52.854  1.00  0.00    -0.012 C 
HETATM    3  C8  UNL     1      22.443   1.127  51.995  1.00  0.00    -0.066 C 
HETATM    4  C9  UNL     1      21.466   0.076  52.345  1.00  0.00     0.048 C 
HETATM    5  C10 UNL     1      22.052   1.345  50.618  1.00  0.00     0.002 C 
HETATM    6  C11 UNL     1      21.597   1.458  49.404  1.00  0.00    -0.026 C 
HETATM    7  C12 UNL     1      21.945   2.145  48.164  1.00  0.00     0.035 C 
HETATM    8  C13 UNL     1      21.033   3.190  47.632  1.00  0.00     0.009 C 
HETATM    9  C14 UNL     1      19.724   2.741  47.116  1.00  0.00     0.014 C 
HETATM   10  C15 UNL     1      21.871   4.008  46.700  1.00  0.00    -0.003 C 
HETATM   11  C16 UNL     1      22.309   5.222  46.971  1.00  0.00     0.113 C 
HETATM   12  N1  UNL     1      23.034   6.417  46.635  1.00  0.00    -0.266 N 
HETATM   13  C17 UNL     1      22.364   6.910  45.464  1.00  0.00     0.185 C 
HETATM   14  O2  UNL     1      24.125   6.812  47.415  1.00  0.00    -0.210 OA
HETATM   15  C18 UNL     1      24.006   7.103  48.770  1.00  0.00     0.215 C 
HETATM   16  C20 UNL     1      24.016   6.748  50.056  1.00  0.00     0.031 C 
HETATM   17  C21 UNL     1      23.760   7.810  51.082  1.00  0.00     0.056 C 
HETATM   18  C22 UNL     1      24.277   5.504  50.725  1.00  0.00     0.093 A 
HETATM   19  O4  UNL     1      24.249   5.020  51.872  1.00  0.00    -0.334 OA
HETATM   20  C23 UNL     1      24.692   4.117  50.636  1.00  0.00     0.117 A 
HETATM   21  C24 UNL     1      25.255   3.946  49.281  1.00  0.00     0.055 C 
HETATM   22  C25 UNL     1      24.698   3.186  51.525  1.00  0.00     0.046 C 
ENDROOT
BRANCH   1  23
HETATM   23  C5  UNL     1      25.749   2.003  53.413  1.00  0.00     0.154 C 
BRANCH  23  24
HETATM   24  C3  UNL     1      25.843   0.507  53.377  1.00  0.00    -0.059 C 
HETATM   25  C2  UNL     1      26.501  -0.075  52.322  1.00  0.00    -0.026 C 
HETATM   26  C1  UNL     1      26.595  -1.563  52.320  1.00  0.00     0.036 C 
HETATM   27  C4  UNL     1      25.362  -0.557  54.304  1.00  0.00     0.046 C 
ENDBRANCH  23  24
BRANCH  23  28
HETATM   28  O1  UNL     1      26.855   2.560  52.759  1.00  0.00    -0.391 OA
HETATM   29  H9  UNL     1      27.660   1.978  52.777  1.00  0.00     0.210 HD
ENDBRANCH  23  28
ENDBRANCH   1  23
BRANCH  15  30
HETATM   30  O3  UNL     1      23.756   8.417  48.473  1.00  0.00    -0.334 OA
HETATM   31  C19 UNL     1      24.698   9.293  47.890  1.00  0.00     0.212 C 
ENDBRANCH  15  30
TORSDOF 4
ENDMDL
MODEL 5
REMARK VINA RESULT:      -8.4      1.643      1.881
REMARK  4 active torsions:
REMARK  status: ('A' for Active; 'I' for Inactive)
REMARK    1  A    between atoms: C3_3  and  C5_5 
REMARK    2  A    between atoms: C5_5  and  O1_6 
REMARK    3  A    between atoms: C5_5  and  C6_7 
REMARK    4  A    between atoms: C18_21  and  O3_22 
ROOT
HETATM    1  C6  UNL     1      25.747   2.889  50.611  1.00  0.00     0.049 C 
HETATM    2  C7  UNL     1      26.788   3.592  49.830  1.00  0.00    -0.012 C 
HETATM    3  C8  UNL     1      26.892   4.717  49.072  1.00  0.00    -0.066 C 
HETATM    4  C9  UNL     1      28.143   5.133  48.406  1.00  0.00     0.048 C 
HETATM    5  C10 UNL     1      26.057   5.839  48.698  1.00  0.00     0.002 C 
HETATM    6  C11 UNL     1      25.409   6.890  48.284  1.00  0.00    -0.026 C 
HETATM    7  C12 UNL     1      24.110   7.524  48.486  1.00  0.00     0.035 C 
HETATM    8  C13 UNL     1      23.160   7.612  47.347  1.00  0.00     0.009 C 
HETATM    9  C14 UNL     1      23.524   8.514  46.236  1.00  0.00     0.014 C 
HETATM   10  C15 UNL     1      21.816   7.830  47.969  1.00  0.00    -0.003 C 
HETATM   11  C16 UNL     1      20.877   6.907  48.044  1.00  0.00     0.113 C 
HETATM   12  N1  UNL     1      19.569   6.453  48.429  1.00  0.00    -0.266 N 
HETATM   13  C17 UNL     1      18.678   7.314  47.702  1.00  0.00     0.185 C 
HETATM   14  O2  UNL     1      19.436   5.395  49.333  1.00  0.00    -0.210 OA
HETATM   15  C18 UNL     1      19.950   4.127  49.077  1.00  0.00     0.215 C 
HETATM   16  C20 UNL     1      20.927   3.221  49.127  1.00  0.00     0.031 C 
HETATM   17  C21 UNL     1      20.662   1.866  48.543  1.00  0.00     0.056 C 
HETATM   18  C22 UNL     1      22.248   3.238  49.689  1.00  0.00     0.093 A 
HETATM   19  O4  UNL     1      23.266   2.521  49.744  1.00  0.00    -0.334 OA
HETATM   20  C23 UNL     1      23.249   3.938  50.472  1.00  0.00     0.117 A 
HETATM   21  C24 UNL     1      22.544   5.063  51.121  1.00  0.00     0.055 C 
HETATM   22  C25 UNL     1      24.486   3.658  50.694  1.00  0.00     0.046 C 
ENDROOT
BRANCH   1  23
HETATM   23  C5  UNL     1      26.246   2.471  51.943  1.00  0.00     0.154 C 
BRANCH  23  24
HETATM   24  C3  UNL     1      25.957   1.044  52.308  1.00  0.00    -0.059 C 
HETATM   25  C2  UNL     1      26.960   0.120  52.149  1.00  0.00    -0.026 C 
HETATM   26  C1  UNL     1      26.651  -1.287  52.536  1.00  0.00     0.036 C 
HETATM   27  C4  UNL     1      24.746   0.369  52.857  1.00  0.00     0.046 C 
ENDBRANCH  23  24
BRANCH  23  28
HETATM   28  O1  UNL     1      27.624   2.709  52.031  1.00  0.00    -0.391 OA
HETATM   29  H9  UNL     1      27.900   3.581  51.643  1.00  0.00     0.210 HD
ENDBRANCH  23  28
ENDBRANCH   1  23
BRANCH  15  30
HETATM   30  O3  UNL     1      18.767   3.760  48.490  1.00  0.00    -0.334 OA
HETATM   31  C19 UNL     1      17.538   3.653  49.177  1.00  0.00     0.212 C 
ENDBRANCH  15  30
TORSDOF 4
ENDMDL
MODEL 6
REMARK VINA RESULT:      -8.4      7.683     10.215
REMARK  4 active torsions:
REMARK  status: ('A' for Active; 'I' for Inactive)
REMARK    1  A    between atoms: C3_3  and  C5_5 
REMARK    2  A    between atoms: C5_5  and  O1_6 
REMARK    3  A    between atoms: C5_5  and  C6_7 
REMARK    4  A    between atoms: C18_21  and  O3_22 
ROOT
HETATM    1  C6  UNL     1      32.952   4.424  46.916  1.00  0.00     0.049 C 
HETATM    2  C7  UNL     1      33.645   4.739  45.647  1.00  0.00    -0.012 C 
HETATM    3  C8  UNL     1      33.963   5.844  44.920  1.00  0.00    -0.066 C 
HETATM    4  C9  UNL     1      34.692   5.788  43.637  1.00  0.00     0.048 C 
HETATM    5  C10 UNL     1      33.849   7.282  45.048  1.00  0.00     0.002 C 
HETATM    6  C11 UNL     1      33.799   8.583  45.039  1.00  0.00    -0.026 C 
HETATM    7  C12 UNL     1      33.391   9.669  45.925  1.00  0.00     0.035 C 
HETATM    8  C13 UNL     1      32.242  10.528  45.541  1.00  0.00     0.009 C 
HETATM    9  C14 UNL     1      32.432  11.428  44.385  1.00  0.00     0.014 C 
HETATM   10  C15 UNL     1      31.783  11.167  46.814  1.00  0.00    -0.003 C 
HETATM   11  C16 UNL     1      30.684  10.828  47.458  1.00  0.00     0.113 C 
HETATM   12  N1  UNL     1      29.754  10.962  48.546  1.00  0.00    -0.266 N 
HETATM   13  C17 UNL     1      29.281  12.314  48.431  1.00  0.00     0.185 C 
HETATM   14  O2  UNL     1      29.528   9.884  49.407  1.00  0.00    -0.210 OA
HETATM   15  C18 UNL     1      29.033   8.663  48.957  1.00  0.00     0.215 C 
HETATM   16  C20 UNL     1      29.200   7.432  48.474  1.00  0.00     0.031 C 
HETATM   17  C21 UNL     1      27.977   6.606  48.210  1.00  0.00     0.056 C 
HETATM   18  C22 UNL     1      30.367   6.651  48.168  1.00  0.00     0.093 A 
HETATM   19  O4  UNL     1      30.669   5.556  47.657  1.00  0.00    -0.334 OA
HETATM   20  C23 UNL     1      31.812   6.525  48.199  1.00  0.00     0.117 A 
HETATM   21  C24 UNL     1      32.296   7.603  49.085  1.00  0.00     0.055 C 
HETATM   22  C25 UNL     1      32.586   5.639  47.678  1.00  0.00     0.046 C 
ENDROOT
BRANCH   1  23
HETATM   23  C5  UNL     1      33.715   3.449  47.733  1.00  0.00     0.154 C 
BRANCH  23  24
HETATM   24  C3  UNL     1      33.141   2.064  47.763  1.00  0.00    -0.059 C 
HETATM   25  C2  UNL     1      32.457   1.622  46.657  1.00  0.00    -0.026 C 
HETATM   26  C1  UNL     1      31.912   0.234  46.708  1.00  0.00     0.036 C 
HETATM   27  C4  UNL     1      33.167   0.983  48.790  1.00  0.00     0.046 C 
ENDBRANCH  23  24
BRANCH  23  28
HETATM   28  O1  UNL     1      35.044   3.399  47.294  1.00  0.00    -0.391 OA
HETATM   29  H9  UNL     1      35.132   3.309  46.308  1.00  0.00     0.210 HD
ENDBRANCH  23  28
ENDBRANCH   1  23
BRANCH  15  30
HETATM   30  O3  UNL     1      27.751   9.094  49.177  1.00  0.00    -0.334 OA
HETATM   31  C19 UNL     1      27.167   9.233  50.455  1.00  0.00     0.212 C 
ENDBRANCH  15  30
TORSDOF 4
ENDMDL
MODEL 7
REMARK VINA RESULT:      -8.3      2.643      5.920
REMARK  4 active torsions:
REMARK  status: ('A' for Active; 'I' for Inactive)
REMARK    1  A    between atoms: C3_3  and  C5_5 
REMARK    2  A    between atoms: C5_5  and  O1_6 
REMARK    3  A    between atoms: C5_5  and  C6_7 
REMARK    4  A    between atoms: C18_21  and  O3_22 
ROOT
HETATM    1  C6  UNL     1      24.765   5.080  49.208  1.00  0.00     0.049 C 
HETATM    2  C7  UNL     1      23.702   5.130  48.180  1.00  0.00    -0.012 C 
HETATM    3  C8  UNL     1      22.432   4.670  48.020  1.00  0.00    -0.066 C 
HETATM    4  C9  UNL     1      21.628   4.916  46.806  1.00  0.00     0.048 C 
HETATM    5  C10 UNL     1      21.444   3.955  48.801  1.00  0.00     0.002 C 
HETATM    6  C11 UNL     1      20.477   3.316  49.393  1.00  0.00    -0.026 C 
HETATM    7  C12 UNL     1      20.183   2.747  50.705  1.00  0.00     0.035 C 
HETATM    8  C13 UNL     1      20.019   1.277  50.840  1.00  0.00     0.009 C 
HETATM    9  C14 UNL     1      18.824   0.674  50.216  1.00  0.00     0.014 C 
HETATM   10  C15 UNL     1      20.229   0.988  52.293  1.00  0.00    -0.003 C 
HETATM   11  C16 UNL     1      21.312   0.419  52.786  1.00  0.00     0.113 C 
HETATM   12  N1  UNL     1      22.098  -0.089  53.877  1.00  0.00    -0.266 N 
HETATM   13  C17 UNL     1      21.286  -1.138  54.428  1.00  0.00     0.185 C 
HETATM   14  O2  UNL     1      23.345   0.476  54.161  1.00  0.00    -0.210 OA
HETATM   15  C18 UNL     1      24.386   0.485  53.237  1.00  0.00     0.215 C 
HETATM   16  C20 UNL     1      25.063   1.041  52.232  1.00  0.00     0.031 C 
HETATM   17  C21 UNL     1      26.266   0.316  51.706  1.00  0.00     0.056 C 
HETATM   18  C22 UNL     1      24.915   2.281  51.522  1.00  0.00     0.093 A 
HETATM   19  O4  UNL     1      25.406   2.879  50.545  1.00  0.00    -0.334 OA
HETATM   20  C23 UNL     1      24.236   3.555  51.388  1.00  0.00     0.117 A 
HETATM   21  C24 UNL     1      23.462   3.736  52.634  1.00  0.00     0.055 C 
HETATM   22  C25 UNL     1      24.307   4.450  50.466  1.00  0.00     0.046 C 
ENDROOT
BRANCH   1  23
HETATM   23  C5  UNL     1      25.379   6.411  49.430  1.00  0.00     0.154 C 
BRANCH  23  24
HETATM   24  C3  UNL     1      26.789   6.548  48.936  1.00  0.00    -0.059 C 
HETATM   25  C2  UNL     1      27.491   5.402  48.654  1.00  0.00    -0.026 C 
HETATM   26  C1  UNL     1      28.883   5.568  48.147  1.00  0.00     0.036 C 
HETATM   27  C4  UNL     1      27.646   7.733  48.646  1.00  0.00     0.046 C 
ENDBRANCH  23  24
BRANCH  23  28
HETATM   28  O1  UNL     1      24.580   7.406  48.853  1.00  0.00    -0.391 OA
HETATM   29  H9  UNL     1      24.313   8.119  49.493  1.00  0.00     0.210 HD
ENDBRANCH  23  28
ENDBRANCH   1  23
BRANCH  15  30
HETATM   30  O3  UNL     1      24.833  -0.718  53.720  1.00  0.00    -0.334 OA
HETATM   31  C19 UNL     1      25.275  -0.927  55.044  1.00  0.00     0.212 C 
ENDBRANCH  15  30
TORSDOF 4
ENDMDL
MODEL 8
REMARK VINA RESULT:      -8.1      5.730      8.544
REMARK  4 active torsions:
REMARK  status: ('A' for Active; 'I' for Inactive)
REMARK    1  A    between atoms: C3_3  and  C5_5 
REMARK    2  A    between atoms: C5_5  and  O1_6 
REMARK    3  A    between atoms: C5_5  and  C6_7 
REMARK    4  A    between atoms: C18_21  and  O3_22 
ROOT
HETATM    1  C6  UNL     1      27.035   5.598  48.592  1.00  0.00     0.049 C 
HETATM    2  C7  UNL     1      28.454   5.270  48.327  1.00  0.00    -0.012 C 
HETATM    3  C8  UNL     1      29.644   5.924  48.260  1.00  0.00    -0.066 C 
HETATM    4  C9  UNL     1      30.923   5.251  47.956  1.00  0.00     0.048 C 
HETATM    5  C10 UNL     1      30.145   7.264  48.482  1.00  0.00     0.002 C 
HETATM    6  C11 UNL     1      30.717   8.423  48.641  1.00  0.00    -0.026 C 
HETATM    7  C12 UNL     1      30.360   9.767  49.085  1.00  0.00     0.035 C 
HETATM    8  C13 UNL     1      30.414  10.891  48.115  1.00  0.00     0.009 C 
HETATM    9  C14 UNL     1      31.749  11.308  47.643  1.00  0.00     0.014 C 
HETATM   10  C15 UNL     1      29.550  11.962  48.705  1.00  0.00    -0.003 C 
HETATM   11  C16 UNL     1      28.351  12.277  48.256  1.00  0.00     0.113 C 
HETATM   12  N1  UNL     1      27.140  13.050  48.297  1.00  0.00    -0.266 N 
HETATM   13  C17 UNL     1      27.585  14.399  48.081  1.00  0.00     0.185 C 
HETATM   14  O2  UNL     1      25.915  12.416  48.523  1.00  0.00    -0.210 OA
HETATM   15  C18 UNL     1      25.418  11.432  47.674  1.00  0.00     0.215 C 
HETATM   16  C20 UNL     1      25.292  10.161  47.291  1.00  0.00     0.031 C 
HETATM   17  C21 UNL     1      24.454   9.867  46.083  1.00  0.00     0.056 C 
HETATM   18  C22 UNL     1      25.777   8.923  47.837  1.00  0.00     0.093 A 
HETATM   19  O4  UNL     1      25.805   7.710  47.557  1.00  0.00    -0.334 OA
HETATM   20  C23 UNL     1      26.467   8.232  48.908  1.00  0.00     0.117 A 
HETATM   21  C24 UNL     1      26.582   9.206  50.014  1.00  0.00     0.055 C 
HETATM   22  C25 UNL     1      26.848   7.006  49.006  1.00  0.00     0.046 C 
ENDROOT
BRANCH   1  23
HETATM   23  C5  UNL     1      26.415   4.640  49.539  1.00  0.00     0.154 C 
BRANCH  23  24
HETATM   24  C3  UNL     1      24.970   4.337  49.276  1.00  0.00    -0.059 C 
HETATM   25  C2  UNL     1      24.529   3.054  49.490  1.00  0.00    -0.026 C 
HETATM   26  C1  UNL     1      23.084   2.785  49.237  1.00  0.00     0.036 C 
HETATM   27  C4  UNL     1      23.828   5.181  48.821  1.00  0.00     0.046 C 
ENDBRANCH  23  24
BRANCH  23  28
HETATM   28  O1  UNL     1      27.151   3.448  49.559  1.00  0.00    -0.391 OA
HETATM   29  H9  UNL     1      26.713   2.722  50.079  1.00  0.00     0.210 HD
ENDBRANCH  23  28
ENDBRANCH   1  23
BRANCH  15  30
HETATM   30  O3  UNL     1      24.774  12.388  46.932  1.00  0.00    -0.334 OA
HETATM   31  C19 UNL     1      23.727  13.200  47.420  1.00  0.00     0.212 C 
ENDBRANCH  15  30
TORSDOF 4
ENDMDL
MODEL 9
REMARK VINA RESULT:      -8.0      2.783      8.714
REMARK  4 active torsions:
REMARK  status: ('A' for Active; 'I' for Inactive)
REMARK    1  A    between atoms: C3_3  and  C5_5 
REMARK    2  A    between atoms: C5_5  and  O1_6 
REMARK    3  A    between atoms: C5_5  and  C6_7 
REMARK    4  A    between atoms: C18_21  and  O3_22 
ROOT
HETATM    1  C6  UNL     1      17.511   2.398  49.995  1.00  0.00     0.049 C 
HETATM    2  C7  UNL     1      16.924   1.135  50.495  1.00  0.00    -0.012 C 
HETATM    3  C8  UNL     1      17.252   0.149  51.372  1.00  0.00    -0.066 C 
HETATM    4  C9  UNL     1      16.391  -1.021  51.636  1.00  0.00     0.048 C 
HETATM    5  C10 UNL     1      18.311  -0.137  52.317  1.00  0.00     0.002 C 
HETATM    6  C11 UNL     1      19.202  -0.512  53.190  1.00  0.00    -0.026 C 
HETATM    7  C12 UNL     1      20.418   0.010  53.806  1.00  0.00     0.035 C 
HETATM    8  C13 UNL     1      21.714  -0.667  53.544  1.00  0.00     0.009 C 
HETATM    9  C14 UNL     1      21.897  -2.015  54.120  1.00  0.00     0.014 C 
HETATM   10  C15 UNL     1      22.763   0.347  53.874  1.00  0.00    -0.003 C 
HETATM   11  C16 UNL     1      23.478   0.993  52.973  1.00  0.00     0.113 C 
HETATM   12  N1  UNL     1      24.487   1.943  52.593  1.00  0.00    -0.266 N 
HETATM   13  C17 UNL     1      25.688   1.427  53.189  1.00  0.00     0.185 C 
HETATM   14  O2  UNL     1      24.143   3.055  51.820  1.00  0.00    -0.210 OA
HETATM   15  C18 UNL     1      23.585   2.936  50.550  1.00  0.00     0.215 C 
HETATM   16  C20 UNL     1      22.540   2.826  49.729  1.00  0.00     0.031 C 
HETATM   17  C21 UNL     1      22.807   2.731  48.257  1.00  0.00     0.056 C 
HETATM   18  C22 UNL     1      21.121   2.821  49.948  1.00  0.00     0.093 A 
HETATM   19  O4  UNL     1      20.063   2.655  49.311  1.00  0.00    -0.334 OA
HETATM   20  C23 UNL     1      20.012   2.972  50.872  1.00  0.00     0.117 A 
HETATM   21  C24 UNL     1      20.587   3.550  52.105  1.00  0.00     0.055 C 
HETATM   22  C25 UNL     1      18.752   2.767  50.710  1.00  0.00     0.046 C 
ENDROOT
BRANCH   1  23
HETATM   23  C5  UNL     1      16.517   3.498  49.976  1.00  0.00     0.154 C 
BRANCH  23  24
HETATM   24  C3  UNL     1      15.553   3.499  51.125  1.00  0.00    -0.059 C 
HETATM   25  C2  UNL     1      15.914   4.159  52.273  1.00  0.00    -0.026 C 
HETATM   26  C1  UNL     1      14.929   4.159  53.393  1.00  0.00     0.036 C 
HETATM   27  C4  UNL     1      14.190   2.919  51.299  1.00  0.00     0.046 C 
ENDBRANCH  23  24
BRANCH  23  28
HETATM   28  O1  UNL     1      17.176   4.733  49.913  1.00  0.00    -0.391 OA
HETATM   29  H9  UNL     1      16.969   5.331  50.679  1.00  0.00     0.210 HD
ENDBRANCH  23  28
ENDBRANCH   1  23
BRANCH  15  30
HETATM   30  O3  UNL     1      24.837   2.949  49.992  1.00  0.00    -0.334 OA
HETATM   31  C19 UNL     1      25.731   4.039  50.072  1.00  0.00     0.212 C 
ENDBRANCH  15  30
TORSDOF 4
ENDMDL
