MODEL 1
REMARK VINA RESULT:      -8.5      0.000      0.000
REMARK  5 active torsions:
REMARK  status: ('A' for Active; 'I' for Inactive)
REMARK    1  A    between atoms: N1_1  and  C1_2 
REMARK    2  A    between atoms: C10_15  and  O1_16 
REMARK    3  A    between atoms: O1_16  and  C11_17 
REMARK    4  A    between atoms: C11_17  and  C12_18 
REMARK    5  A    between atoms: C12_18  and  C13_19 
ROOT
HETATM    1  C1  UNL     1      21.738  -0.508  53.336  1.00  0.00     0.121 C 
HETATM    2  N2  UNL     1      20.747  -0.587  54.205  1.00  0.00    -0.166 NA
HETATM    3  N3  UNL     1      19.462  -0.886  53.744  1.00  0.00    -0.312 N 
HETATM    4  C2  UNL     1      18.221  -1.539  53.377  1.00  0.00     0.145 C 
HETATM    5  C3  UNL     1      17.351  -0.554  52.574  1.00  0.00     0.048 C 
HETATM    6  C4  UNL     1      18.165  -0.184  51.353  1.00  0.00    -0.029 C 
HETATM    7  C5  UNL     1      18.637   0.979  50.945  1.00  0.00    -0.030 C 
HETATM    8  C6  UNL     1      18.498   2.296  51.592  1.00  0.00     0.029 C 
HETATM    9  C7  UNL     1      19.832   2.888  51.982  1.00  0.00     0.037 C 
HETATM   10  C8  UNL     1      20.687   2.999  50.757  1.00  0.00     0.224 A 
HETATM   11  N4  UNL     1      21.978   3.589  50.983  1.00  0.00    -0.265 NA
HETATM   12  C9  UNL     1      22.852   3.025  51.707  1.00  0.00     0.141 A 
HETATM   13 CL1  UNL     1      21.908   4.044  50.682  1.00  0.00    -0.143 Cl
HETATM   14  C10 UNL     1      23.669   2.220  52.549  1.00  0.00     0.104 C 
HETATM   15  C18 UNL     1      23.466   1.103  53.127  1.00  0.00     0.021 C 
HETATM   16  C19 UNL     1      23.121  -0.182  53.745  1.00  0.00     0.110 C 
HETATM   17  H3  UNL     1      19.424   0.167  53.551  1.00  0.00     0.182 HD
ENDROOT
BRANCH  14  18
HETATM   18  O1  UNL     1      24.473   3.269  52.276  1.00  0.00    -0.344 OA
BRANCH  18  19
HETATM   19  C11 UNL     1      25.504   3.150  51.284  1.00  0.00     0.204 C 
BRANCH  19  20
HETATM   20  C12 UNL     1      26.166   1.848  51.350  1.00  0.00     0.011 C 
BRANCH  20  21
HETATM   21  C13 UNL     1      27.024   1.347  52.218  1.00  0.00    -0.035 A 
HETATM   22  C14 UNL     1      27.012  -0.101  52.315  1.00  0.00     0.012 A 
HETATM   23  C15 UNL     1      27.772  -0.807  53.102  1.00  0.00     0.011 A 
HETATM   24  P1  UNL     1      28.976   0.027  54.201  1.00  0.00    -0.040 P 
HETATM   25  C16 UNL     1      28.754   1.829  53.851  1.00  0.00     0.121 A 
HETATM   26  H21 UNL     1      30.330  -0.390  53.879  1.00  0.00     0.069 HD
HETATM   27  F1  UNL     1      29.620   2.448  54.641  1.00  0.00    -0.205 F 
HETATM   28  C17 UNL     1      27.874   2.211  52.974  1.00  0.00     0.054 A 
ENDBRANCH  20  21
ENDBRANCH  19  20
ENDBRANCH  18  19
ENDBRANCH  14  18
BRANCH   1  29
HETATM   29  N1  UNL     1      21.438  -0.734  51.956  1.00  0.00    -0.386 N 
HETATM   30  H1  UNL     1      20.584  -1.267  51.681  1.00  0.00     0.157 HD
HETATM   31  H2  UNL     1      22.118  -0.339  51.272  1.00  0.00     0.157 HD
ENDBRANCH   1  29
TORSDOF 5
ENDMDL
MODEL 2
REMARK VINA RESULT:      -8.3      4.313      6.276
REMARK  5 active torsions:
REMARK  status: ('A' for Active; 'I' for Inactive)
REMARK    1  A    between atoms: N1_1  and  C1_2 
REMARK    2  A    between atoms: C10_15  and  O1_16 
REMARK    3  A    between atoms: O1_16  and  C11_17 
REMARK    4  A    between atoms: C11_17  and  C12_18 
REMARK    5  A    between atoms: C12_18  and  C13_19 
ROOT
HETATM    1  C1  UNL     1      22.804   2.566  50.114  1.00  0.00     0.121 C 
HETATM    2  N2  UNL     1      22.274   1.387  49.841  1.00  0.00    -0.166 NA
HETATM    3  N3  UNL     1      21.705   0.642  50.878  1.00  0.00    -0.312 N 
HETATM    4  C2  UNL     1      20.798   0.015  51.820  1.00  0.00     0.145 C 
HETATM    5  C3  UNL     1      21.620  -0.683  52.921  1.00  0.00     0.048 C 
HETATM    6  C4  UNL     1      22.437   0.408  53.580  1.00  0.00    -0.029 C 
HETATM    7  C5  UNL     1      23.742   0.575  53.677  1.00  0.00    -0.030 C 
HETATM    8  C6  UNL     1      24.813  -0.289  53.149  1.00  0.00     0.029 C 
HETATM    9  C7  UNL     1      25.684   0.425  52.143  1.00  0.00     0.037 C 
HETATM   10  C8  UNL     1      26.272   1.641  52.792  1.00  0.00     0.224 A 
HETATM   11  N4  UNL     1      27.160   2.396  51.950  1.00  0.00    -0.265 NA
HETATM   12  C9  UNL     1      26.750   2.984  50.906  1.00  0.00     0.141 A 
HETATM   13 CL1  UNL     1      27.622   2.315  52.237  1.00  0.00    -0.143 Cl
HETATM   14  C10 UNL     1      26.075   3.558  49.792  1.00  0.00     0.104 C 
HETATM   15  C18 UNL     1      24.859   3.520  49.414  1.00  0.00     0.021 C 
HETATM   16  C19 UNL     1      23.437   3.406  49.075  1.00  0.00     0.110 C 
HETATM   17  H3  UNL     1      22.717   0.332  51.039  1.00  0.00     0.182 HD
ENDROOT
BRANCH  14  18
HETATM   18  O1  UNL     1      27.345   3.976  49.612  1.00  0.00    -0.344 OA
BRANCH  18  19
HETATM   19  C11 UNL     1      27.674   4.833  48.508  1.00  0.00     0.204 C 
BRANCH  19  20
HETATM   20  C12 UNL     1      27.422   6.238  48.824  1.00  0.00     0.011 C 
BRANCH  20  21
HETATM   21  C13 UNL     1      26.304   6.939  48.859  1.00  0.00    -0.035 A 
HETATM   22  C14 UNL     1      25.869   7.451  47.574  1.00  0.00     0.012 A 
HETATM   23  C15 UNL     1      24.799   8.164  47.372  1.00  0.00     0.011 A 
HETATM   24  P1  UNL     1      23.709   8.594  48.780  1.00  0.00    -0.040 P 
HETATM   25  C16 UNL     1      24.517   7.814  50.249  1.00  0.00     0.121 A 
HETATM   26  H21 UNL     1      22.380   8.043  48.578  1.00  0.00     0.069 HD
HETATM   27  F1  UNL     1      23.738   8.117  51.277  1.00  0.00    -0.205 F 
HETATM   28  C17 UNL     1      25.620   7.144  50.097  1.00  0.00     0.054 A 
ENDBRANCH  20  21
ENDBRANCH  19  20
ENDBRANCH  18  19
ENDBRANCH  14  18
BRANCH   1  29
HETATM   29  N1  UNL     1      22.765   3.019  51.470  1.00  0.00    -0.386 N 
HETATM   30  H1  UNL     1      23.128   3.964  51.723  1.00  0.00     0.157 HD
HETATM   31  H2  UNL     1      22.360   2.352  52.161  1.00  0.00     0.157 HD
ENDBRANCH   1  29
TORSDOF 5
ENDMDL
MODEL 3
REMARK VINA RESULT:      -8.2      3.708      7.181
REMARK  5 active torsions:
REMARK  status: ('A' for Active; 'I' for Inactive)
REMARK    1  A    between atoms: N1_1  and  C1_2 
REMARK    2  A    between atoms: C10_15  and  O1_16 
REMARK    3  A    between atoms: O1_16  and  C11_17 
REMARK    4  A    between atoms: C11_17  and  C12_18 
REMARK    5  A    between atoms: C12_18  and  C13_19 
ROOT
HETATM    1  C1  UNL     1      25.330  -0.758  54.605  1.00  0.00     0.121 C 
HETATM    2  N2  UNL     1      26.265  -1.429  53.956  1.00  0.00    -0.166 NA
HETATM    3  N3  UNL     1      27.553  -0.894  53.876  1.00  0.00    -0.312 N 
HETATM    4  C2  UNL     1      28.953  -0.573  54.076  1.00  0.00     0.145 C 
HETATM    5  C3  UNL     1      29.319   0.646  53.208  1.00  0.00     0.048 C 
HETATM    6  C4  UNL     1      28.420   1.770  53.676  1.00  0.00    -0.029 C 
HETATM    7  C5  UNL     1      27.497   2.465  53.038  1.00  0.00    -0.030 C 
HETATM    8  C6  UNL     1      27.066   2.334  51.635  1.00  0.00     0.029 C 
HETATM    9  C7  UNL     1      25.608   1.956  51.514  1.00  0.00     0.037 C 
HETATM   10  C8  UNL     1      24.782   2.989  52.217  1.00  0.00     0.224 A 
HETATM   11  N4  UNL     1      23.364   2.770  52.143  1.00  0.00    -0.265 NA
HETATM   12  C9  UNL     1      22.815   1.766  52.687  1.00  0.00     0.141 A 
HETATM   13 CL1  UNL     1      23.234   3.214  51.847  1.00  0.00    -0.143 Cl
HETATM   14  C10 UNL     1      22.420   0.580  53.368  1.00  0.00     0.104 C 
HETATM   15  C18 UNL     1      23.081  -0.300  54.009  1.00  0.00     0.021 C 
HETATM   16  C19 UNL     1      23.941  -1.252  54.721  1.00  0.00     0.110 C 
HETATM   17  H3  UNL     1      27.140  -0.353  53.050  1.00  0.00     0.182 HD
ENDROOT
BRANCH  14  18
HETATM   18  O1  UNL     1      21.246   1.057  52.905  1.00  0.00    -0.344 OA
BRANCH  18  19
HETATM   19  C11 UNL     1      20.245   0.156  52.409  1.00  0.00     0.204 C 
BRANCH  19  20
HETATM   20  C12 UNL     1      19.844   0.495  51.045  1.00  0.00     0.011 C 
BRANCH  20  21
HETATM   21  C13 UNL     1      20.337   1.359  50.178  1.00  0.00    -0.035 A 
HETATM   22  C14 UNL     1      19.812   2.706  50.298  1.00  0.00     0.012 A 
HETATM   23  C15 UNL     1      20.156   3.715  49.551  1.00  0.00     0.011 A 
HETATM   24  P1  UNL     1      21.397   3.490  48.223  1.00  0.00    -0.040 P 
HETATM   25  C16 UNL     1      21.864   1.704  48.323  1.00  0.00     0.121 A 
HETATM   26  H21 UNL     1      22.555   4.333  48.463  1.00  0.00     0.069 HD
HETATM   27  F1  UNL     1      22.763   1.524  47.366  1.00  0.00    -0.205 F 
HETATM   28  C17 UNL     1      21.311   0.942  49.219  1.00  0.00     0.054 A 
ENDBRANCH  20  21
ENDBRANCH  19  20
ENDBRANCH  18  19
ENDBRANCH  14  18
BRANCH   1  29
HETATM   29  N1  UNL     1      25.693   0.493  55.196  1.00  0.00    -0.386 N 
HETATM   30  H1  UNL     1      25.195   0.842  56.043  1.00  0.00     0.157 HD
HETATM   31  H2  UNL     1      26.468   1.009  54.727  1.00  0.00     0.157 HD
ENDBRANCH   1  29
TORSDOF 5
ENDMDL
MODEL 4
REMARK VINA RESULT:      -8.2      4.594      6.162
REMARK  5 active torsions:
REMARK  status: ('A' for Active; 'I' for Inactive)
REMARK    1  A    between atoms: N1_1  and  C1_2 
REMARK    2  A    between atoms: C10_15  and  O1_16 
REMARK    3  A    between atoms: O1_16  and  C11_17 
REMARK    4  A    between atoms: C11_17  and  C12_18 
REMARK    5  A    between atoms: C12_18  and  C13_19 
ROOT
HETATM    1  C1  UNL     1      22.690   2.477  50.281  1.00  0.00     0.121 C 
HETATM    2  N2  UNL     1      22.167   1.290  50.028  1.00  0.00    -0.166 NA
HETATM    3  N3  UNL     1      21.668   0.529  51.089  1.00  0.00    -0.312 N 
HETATM    4  C2  UNL     1      20.825  -0.121  52.073  1.00  0.00     0.145 C 
HETATM    5  C3  UNL     1      21.716  -0.810  53.124  1.00  0.00     0.048 C 
HETATM    6  C4  UNL     1      22.548   0.291  53.746  1.00  0.00    -0.029 C 
HETATM    7  C5  UNL     1      23.854   0.481  53.774  1.00  0.00    -0.030 C 
HETATM    8  C6  UNL     1      24.909  -0.360  53.183  1.00  0.00     0.029 C 
HETATM    9  C7  UNL     1      25.713   0.376  52.137  1.00  0.00     0.037 C 
HETATM   10  C8  UNL     1      26.313   1.598  52.762  1.00  0.00     0.224 A 
HETATM   11  N4  UNL     1      27.141   2.374  51.880  1.00  0.00    -0.265 NA
HETATM   12  C9  UNL     1      26.665   2.961  50.863  1.00  0.00     0.141 A 
HETATM   13 CL1  UNL     1      27.619   2.300  52.140  1.00  0.00    -0.143 Cl
HETATM   14  C10 UNL     1      25.921   3.530  49.791  1.00  0.00     0.104 C 
HETATM   15  C18 UNL     1      24.688   3.472  49.479  1.00  0.00     0.021 C 
HETATM   16  C19 UNL     1      23.251   3.334  49.215  1.00  0.00     0.110 C 
HETATM   17  H3  UNL     1      22.692   0.235  51.193  1.00  0.00     0.182 HD
ENDROOT
BRANCH  14  18
HETATM   18  O1  UNL     1      27.172   3.972  49.547  1.00  0.00    -0.344 OA
BRANCH  18  19
HETATM   19  C11 UNL     1      27.390   5.046  48.619  1.00  0.00     0.204 C 
BRANCH  19  20
HETATM   20  C12 UNL     1      28.808   5.199  48.296  1.00  0.00     0.011 C 
BRANCH  20  21
HETATM   21  C13 UNL     1      29.612   6.243  48.361  1.00  0.00    -0.035 A 
HETATM   22  C14 UNL     1      28.991   7.509  48.019  1.00  0.00     0.012 A 
HETATM   23  C15 UNL     1      29.592   8.663  48.016  1.00  0.00     0.011 A 
HETATM   24  P1  UNL     1      31.363   8.774  48.471  1.00  0.00    -0.040 P 
HETATM   25  C16 UNL     1      31.856   7.032  48.846  1.00  0.00     0.121 A 
HETATM   26  H21 UNL     1      31.534   9.614  49.643  1.00  0.00     0.069 HD
HETATM   27  F1  UNL     1      33.137   7.095  49.177  1.00  0.00    -0.205 F 
HETATM   28  C17 UNL     1      30.978   6.079  48.747  1.00  0.00     0.054 A 
ENDBRANCH  20  21
ENDBRANCH  19  20
ENDBRANCH  18  19
ENDBRANCH  14  18
BRANCH   1  29
HETATM   29  N1  UNL     1      22.716   2.921  51.640  1.00  0.00    -0.386 N 
HETATM   30  H1  UNL     1      21.859   3.315  52.085  1.00  0.00     0.157 HD
HETATM   31  H2  UNL     1      23.630   2.822  52.132  1.00  0.00     0.157 HD
ENDBRANCH   1  29
TORSDOF 5
ENDMDL
MODEL 5
REMARK VINA RESULT:      -8.1      2.963      5.658
REMARK  5 active torsions:
REMARK  status: ('A' for Active; 'I' for Inactive)
REMARK    1  A    between atoms: N1_1  and  C1_2 
REMARK    2  A    between atoms: C10_15  and  O1_16 
REMARK    3  A    between atoms: O1_16  and  C11_17 
REMARK    4  A    between atoms: C11_17  and  C12_18 
REMARK    5  A    between atoms: C12_18  and  C13_19 
ROOT
HETATM    1  C1  UNL     1      25.237   5.002  49.728  1.00  0.00     0.121 C 
HETATM    2  N2  UNL     1      24.958   5.522  48.546  1.00  0.00    -0.166 NA
HETATM    3  N3  UNL     1      24.427   6.813  48.481  1.00  0.00    -0.312 N 
HETATM    4  C2  UNL     1      24.229   8.243  48.342  1.00  0.00     0.145 C 
HETATM    5  C3  UNL     1      22.790   8.595  48.763  1.00  0.00     0.048 C 
HETATM    6  C4  UNL     1      22.661   8.155  50.205  1.00  0.00    -0.029 C 
HETATM    7  C5  UNL     1      21.871   7.264  50.773  1.00  0.00    -0.030 C 
HETATM    8  C6  UNL     1      20.851   6.414  50.134  1.00  0.00     0.029 C 
HETATM    9  C7  UNL     1      21.152   4.941  50.286  1.00  0.00     0.037 C 
HETATM   10  C8  UNL     1      21.257   4.619  51.745  1.00  0.00     0.224 A 
HETATM   11  N4  UNL     1      21.504   3.232  52.033  1.00  0.00    -0.265 NA
HETATM   12  C9  UNL     1      22.582   2.662  51.690  1.00  0.00     0.141 A 
HETATM   13 CL1  UNL     1      21.030   3.123  52.289  1.00  0.00    -0.143 Cl
HETATM   14  C10 UNL     1      23.854   2.233  51.216  1.00  0.00     0.104 C 
HETATM   15  C18 UNL     1      24.785   2.841  50.594  1.00  0.00     0.021 C 
HETATM   16  C19 UNL     1      25.787   3.638  49.879  1.00  0.00     0.110 C 
HETATM   17  H3  UNL     1      23.502   6.303  48.655  1.00  0.00     0.182 HD
ENDROOT
BRANCH  14  18
HETATM   18  O1  UNL     1      23.360   1.113  51.784  1.00  0.00    -0.344 OA
BRANCH  18  19
HETATM   19  C11 UNL     1      23.924   0.615  53.006  1.00  0.00     0.204 C 
BRANCH  19  20
HETATM   20  C12 UNL     1      25.133  -0.170  52.760  1.00  0.00     0.011 C 
BRANCH  20  21
HETATM   21  C13 UNL     1      26.400   0.061  53.050  1.00  0.00    -0.035 A 
HETATM   22  C14 UNL     1      27.247  -1.117  53.048  1.00  0.00     0.012 A 
HETATM   23  C15 UNL     1      28.523  -1.124  53.304  1.00  0.00     0.011 A 
HETATM   24  P1  UNL     1      29.384   0.441  53.706  1.00  0.00    -0.040 P 
HETATM   25  C16 UNL     1      28.062   1.731  53.630  1.00  0.00     0.121 A 
HETATM   26  H21 UNL     1      30.421   0.715  52.726  1.00  0.00     0.069 HD
HETATM   27  F1  UNL     1      28.671   2.872  53.919  1.00  0.00    -0.205 F 
HETATM   28  C17 UNL     1      26.844   1.389  53.334  1.00  0.00     0.054 A 
ENDBRANCH  20  21
ENDBRANCH  19  20
ENDBRANCH  18  19
ENDBRANCH  14  18
BRANCH   1  29
HETATM   29  N1  UNL     1      24.975   5.797  50.887  1.00  0.00    -0.386 N 
HETATM   30  H1  UNL     1      25.667   6.507  51.210  1.00  0.00     0.157 HD
HETATM   31  H2  UNL     1      24.067   5.614  51.368  1.00  0.00     0.157 HD
ENDBRANCH   1  29
TORSDOF 5
ENDMDL
MODEL 6
REMARK VINA RESULT:      -8.0      5.093      8.367
REMARK  5 active torsions:
REMARK  status: ('A' for Active; 'I' for Inactive)
REMARK    1  A    between atoms: N1_1  and  C1_2 
REMARK    2  A    between atoms: C10_15  and  O1_16 
REMARK    3  A    between atoms: O1_16  and  C11_17 
REMARK    4  A    between atoms: C11_17  and  C12_18 
REMARK    5  A    between atoms: C12_18  and  C13_19 
ROOT
HETATM    1  C1  UNL     1      28.505   6.827  48.163  1.00  0.00     0.121 C 
HETATM    2  N2  UNL     1      28.621   7.362  46.960  1.00  0.00    -0.166 NA
HETATM    3  N3  UNL     1      28.316   8.714  46.787  1.00  0.00    -0.312 N 
HETATM    4  C2  UNL     1      28.369  10.155  46.632  1.00  0.00     0.145 C 
HETATM    5  C3  UNL     1      26.937  10.719  46.672  1.00  0.00     0.048 C 
HETATM    6  C4  UNL     1      26.377  10.327  48.023  1.00  0.00    -0.029 C 
HETATM    7  C5  UNL     1      25.346   9.570  48.348  1.00  0.00    -0.030 C 
HETATM    8  C6  UNL     1      24.415   8.866  47.450  1.00  0.00     0.029 C 
HETATM    9  C7  UNL     1      24.451   7.368  47.644  1.00  0.00     0.037 C 
HETATM   10  C8  UNL     1      24.127   7.059  49.073  1.00  0.00     0.224 A 
HETATM   11  N4  UNL     1      24.088   5.657  49.386  1.00  0.00    -0.265 NA
HETATM   12  C9  UNL     1      25.124   4.930  49.322  1.00  0.00     0.141 A 
HETATM   13 CL1  UNL     1      23.553   5.621  49.508  1.00  0.00    -0.143 Cl
HETATM   14  C10 UNL     1      26.399   4.314  49.184  1.00  0.00     0.104 C 
HETATM   15  C18 UNL     1      27.537   4.769  48.837  1.00  0.00     0.021 C 
HETATM   16  C19 UNL     1      28.795   5.401  48.423  1.00  0.00     0.110 C 
HETATM   17  H3  UNL     1      27.314   8.347  46.705  1.00  0.00     0.182 HD
ENDROOT
BRANCH  14  18
HETATM   18  O1  UNL     1      25.620   3.287  49.582  1.00  0.00    -0.344 OA
BRANCH  18  19
HETATM   19  C11 UNL     1      25.402   3.045  50.980  1.00  0.00     0.204 C 
BRANCH  19  20
HETATM   20  C12 UNL     1      25.822   1.699  51.365  1.00  0.00     0.011 C 
BRANCH  20  21
HETATM   21  C13 UNL     1      26.780   1.278  52.169  1.00  0.00    -0.035 A 
HETATM   22  C14 UNL     1      26.882  -0.164  52.287  1.00  0.00     0.012 A 
HETATM   23  C15 UNL     1      27.752  -0.798  53.020  1.00  0.00     0.011 A 
HETATM   24  P1  UNL     1      28.973   0.144  54.008  1.00  0.00    -0.040 P 
HETATM   25  C16 UNL     1      28.591   1.917  53.652  1.00  0.00     0.121 A 
HETATM   26  H21 UNL     1      30.324  -0.181  53.586  1.00  0.00     0.069 HD
HETATM   27  F1  UNL     1      29.468   2.612  54.362  1.00  0.00    -0.205 F 
HETATM   28  C17 UNL     1      27.620   2.217  52.842  1.00  0.00     0.054 A 
ENDBRANCH  20  21
ENDBRANCH  19  20
ENDBRANCH  18  19
ENDBRANCH  14  18
BRANCH   1  29
HETATM   29  N1  UNL     1      28.069   7.672  49.231  1.00  0.00    -0.386 N 
HETATM   30  H1  UNL     1      28.348   7.467  50.215  1.00  0.00     0.157 HD
HETATM   31  H2  UNL     1      27.470   8.479  48.956  1.00  0.00     0.157 HD
ENDBRANCH   1  29
TORSDOF 5
ENDMDL
MODEL 7
REMARK VINA RESULT:      -7.9      5.209      8.820
REMARK  5 active torsions:
REMARK  status: ('A' for Active; 'I' for Inactive)
REMARK    1  A    between atoms: N1_1  and  C1_2 
REMARK    2  A    between atoms: C10_15  and  O1_16 
REMARK    3  A    between atoms: O1_16  and  C11_17 
REMARK    4  A    between atoms: C11_17  and  C12_18 
REMARK    5  A    between atoms: C12_18  and  C13_19 
ROOT
HETATM    1  C1  UNL     1      23.668   3.546  52.406  1.00  0.00     0.121 C 
HETATM    2  N2  UNL     1      24.434   3.593  53.482  1.00  0.00    -0.166 NA
HETATM    3  N3  UNL     1      25.416   2.615  53.660  1.00  0.00    -0.312 N 
HETATM    4  C2  UNL     1      26.656   1.865  53.706  1.00  0.00     0.145 C 
HETATM    5  C3  UNL     1      26.346   0.401  54.073  1.00  0.00     0.048 C 
HETATM    6  C4  UNL     1      25.427  -0.112  52.984  1.00  0.00    -0.029 C 
HETATM    7  C5  UNL     1      24.188  -0.562  53.036  1.00  0.00    -0.030 C 
HETATM    8  C6  UNL     1      23.316  -0.696  54.217  1.00  0.00     0.029 C 
HETATM    9  C7  UNL     1      22.069   0.149  54.110  1.00  0.00     0.037 C 
HETATM   10  C8  UNL     1      21.326  -0.243  52.869  1.00  0.00     0.224 A 
HETATM   11  N4  UNL     1      20.090   0.462  52.666  1.00  0.00    -0.265 NA
HETATM   12  C9  UNL     1      20.062   1.711  52.453  1.00  0.00     0.141 A 
HETATM   13 CL1  UNL     1      19.750   0.034  52.716  1.00  0.00    -0.143 Cl
HETATM   14  C10 UNL     1      20.268   3.101  52.230  1.00  0.00     0.104 C 
HETATM   15  C18 UNL     1      21.323   3.814  52.184  1.00  0.00     0.021 C 
HETATM   16  C19 UNL     1      22.600   4.536  52.155  1.00  0.00     0.110 C 
HETATM   17  H3  UNL     1      24.600   2.053  54.067  1.00  0.00     0.182 HD
ENDROOT
BRANCH  14  18
HETATM   18  O1  UNL     1      18.926   2.988  52.152  1.00  0.00    -0.344 OA
BRANCH  18  19
HETATM   19  C11 UNL     1      18.210   3.609  51.073  1.00  0.00     0.204 C 
BRANCH  19  20
HETATM   20  C12 UNL     1      16.980   4.245  51.540  1.00  0.00     0.011 C 
BRANCH  20  21
HETATM   21  C13 UNL     1      15.856   3.737  52.008  1.00  0.00    -0.035 A 
HETATM   22  C14 UNL     1      15.454   2.486  51.395  1.00  0.00     0.012 A 
HETATM   23  C15 UNL     1      14.386   1.808  51.701  1.00  0.00     0.011 A 
HETATM   24  P1  UNL     1      13.253   2.426  53.001  1.00  0.00    -0.040 P 
HETATM   25  C16 UNL     1      14.023   4.005  53.576  1.00  0.00     0.121 A 
HETATM   26  H21 UNL     1      13.168   1.473  54.093  1.00  0.00     0.069 HD
HETATM   27  F1  UNL     1      13.213   4.465  54.519  1.00  0.00    -0.205 F 
HETATM   28  C17 UNL     1      15.135   4.412  53.041  1.00  0.00     0.054 A 
ENDBRANCH  20  21
ENDBRANCH  19  20
ENDBRANCH  18  19
ENDBRANCH  14  18
BRANCH   1  29
HETATM   29  N1  UNL     1      23.889   2.483  51.475  1.00  0.00    -0.386 N 
HETATM   30  H1  UNL     1      24.050   2.690  50.465  1.00  0.00     0.157 HD
HETATM   31  H2  UNL     1      23.875   1.520  51.873  1.00  0.00     0.157 HD
ENDBRANCH   1  29
TORSDOF 5
ENDMDL
MODEL 8
REMARK VINA RESULT:      -7.9      5.894      9.437
REMARK  5 active torsions:
REMARK  status: ('A' for Active; 'I' for Inactive)
REMARK    1  A    between atoms: N1_1  and  C1_2 
REMARK    2  A    between atoms: C10_15  and  O1_16 
REMARK    3  A    between atoms: O1_16  and  C11_17 
REMARK    4  A    between atoms: C11_17  and  C12_18 
REMARK    5  A    between atoms: C12_18  and  C13_19 
ROOT
HETATM    1  C1  UNL     1      29.564   6.948  47.969  1.00  0.00     0.121 C 
HETATM    2  N2  UNL     1      29.668   7.643  46.850  1.00  0.00    -0.166 NA
HETATM    3  N3  UNL     1      29.810   9.031  46.924  1.00  0.00    -0.312 N 
HETATM    4  C2  UNL     1      30.318  10.389  46.954  1.00  0.00     0.145 C 
HETATM    5  C3  UNL     1      29.180  11.343  47.362  1.00  0.00     0.048 C 
HETATM    6  C4  UNL     1      28.732  10.888  48.735  1.00  0.00    -0.029 C 
HETATM    7  C5  UNL     1      27.569  10.433  49.160  1.00  0.00    -0.030 C 
HETATM    8  C6  UNL     1      26.331  10.231  48.386  1.00  0.00     0.029 C 
HETATM    9  C7  UNL     1      25.894   8.785  48.368  1.00  0.00     0.037 C 
HETATM   10  C8  UNL     1      25.705   8.321  49.780  1.00  0.00     0.224 A 
HETATM   11  N4  UNL     1      25.247   6.964  49.905  1.00  0.00    -0.265 NA
HETATM   12  C9  UNL     1      25.959   5.983  49.534  1.00  0.00     0.141 A 
HETATM   13 CL1  UNL     1      24.756   7.070  50.129  1.00  0.00    -0.143 Cl
HETATM   14  C10 UNL     1      26.919   5.048  49.057  1.00  0.00     0.104 C 
HETATM   15  C18 UNL     1      28.077   5.193  48.548  1.00  0.00     0.021 C 
HETATM   16  C19 UNL     1      29.396   5.479  47.973  1.00  0.00     0.110 C 
HETATM   17  H3  UNL     1      28.743   9.009  47.001  1.00  0.00     0.182 HD
ENDROOT
BRANCH  14  18
HETATM   18  O1  UNL     1      25.910   4.250  49.466  1.00  0.00    -0.344 OA
BRANCH  18  19
HETATM   19  C11 UNL     1      26.179   2.903  49.886  1.00  0.00     0.204 C 
BRANCH  19  20
HETATM   20  C12 UNL     1      26.563   2.846  51.295  1.00  0.00     0.011 C 
BRANCH  20  21
HETATM   21  C13 UNL     1      27.053   1.864  52.028  1.00  0.00    -0.035 A 
HETATM   22  C14 UNL     1      28.024   2.278  53.024  1.00  0.00     0.012 A 
HETATM   23  C15 UNL     1      28.633   1.483  53.856  1.00  0.00     0.011 A 
HETATM   24  P1  UNL     1      28.285  -0.315  53.821  1.00  0.00    -0.040 P 
HETATM   25  C16 UNL     1      27.035  -0.521  52.474  1.00  0.00     0.121 A 
HETATM   26  H21 UNL     1      27.737  -0.750  55.095  1.00  0.00     0.069 HD
HETATM   27  F1  UNL     1      26.773  -1.820  52.437  1.00  0.00    -0.205 F 
HETATM   28  C17 UNL     1      26.623   0.519  51.814  1.00  0.00     0.054 A 
ENDBRANCH  20  21
ENDBRANCH  19  20
ENDBRANCH  18  19
ENDBRANCH  14  18
BRANCH   1  29
HETATM   29  N1  UNL     1      29.601   7.664  49.207  1.00  0.00    -0.386 N 
HETATM   30  H1  UNL     1      30.012   8.621  49.252  1.00  0.00     0.157 HD
HETATM   31  H2  UNL     1      29.199   7.168  50.031  1.00  0.00     0.157 HD
ENDBRANCH   1  29
TORSDOF 5
ENDMDL
MODEL 9
REMARK VINA RESULT:      -7.9      6.832     10.638
REMARK  5 active torsions:
REMARK  status: ('A' for Active; 'I' for Inactive)
REMARK    1  A    between atoms: N1_1  and  C1_2 
REMARK    2  A    between atoms: C10_15  and  O1_16 
REMARK    3  A    between atoms: O1_16  and  C11_17 
REMARK    4  A    between atoms: C11_17  and  C12_18 
REMARK    5  A    between atoms: C12_18  and  C13_19 
ROOT
HETATM    1  C1  UNL     1      27.201   9.480  48.720  1.00  0.00     0.121 C 
HETATM    2  N2  UNL     1      27.678  10.300  49.639  1.00  0.00    -0.166 NA
HETATM    3  N3  UNL     1      28.717  11.170  49.299  1.00  0.00    -0.312 N 
HETATM    4  C2  UNL     1      29.516  12.316  48.909  1.00  0.00     0.145 C 
HETATM    5  C3  UNL     1      30.965  11.858  48.661  1.00  0.00     0.048 C 
HETATM    6  C4  UNL     1      30.889  10.832  47.551  1.00  0.00    -0.029 C 
HETATM    7  C5  UNL     1      31.215   9.553  47.528  1.00  0.00    -0.030 C 
HETATM    8  C6  UNL     1      31.765   8.734  48.623  1.00  0.00     0.029 C 
HETATM    9  C7  UNL     1      30.854   7.589  48.998  1.00  0.00     0.037 C 
HETATM   10  C8  UNL     1      30.619   6.743  47.784  1.00  0.00     0.224 A 
HETATM   11  N4  UNL     1      29.795   5.587  48.012  1.00  0.00    -0.265 NA
HETATM   12  C9  UNL     1      28.576   5.693  48.342  1.00  0.00     0.141 A 
HETATM   13 CL1  UNL     1      30.174   5.203  47.912  1.00  0.00    -0.143 Cl
HETATM   14  C10 UNL     1      27.245   6.046  48.701  1.00  0.00     0.104 C 
HETATM   15  C18 UNL     1      26.670   7.172  48.856  1.00  0.00     0.021 C 
HETATM   16  C19 UNL     1      26.113   8.521  49.008  1.00  0.00     0.110 C 
HETATM   17  H3  UNL     1      29.329  10.318  49.510  1.00  0.00     0.182 HD
ENDROOT
BRANCH  14  18
HETATM   18  O1  UNL     1      27.203   4.697  48.711  1.00  0.00    -0.344 OA
BRANCH  18  19
HETATM   19  C11 UNL     1      26.120   4.014  49.360  1.00  0.00     0.204 C 
BRANCH  19  20
HETATM   20  C12 UNL     1      26.590   3.208  50.486  1.00  0.00     0.011 C 
BRANCH  20  21
HETATM   21  C13 UNL     1      25.959   2.368  51.283  1.00  0.00    -0.035 A 
HETATM   22  C14 UNL     1      26.729   1.198  51.662  1.00  0.00     0.012 A 
HETATM   23  C15 UNL     1      26.309   0.241  52.439  1.00  0.00     0.011 A 
HETATM   24  P1  UNL     1      24.621   0.313  53.146  1.00  0.00    -0.040 P 
HETATM   25  C16 UNL     1      23.909   1.888  52.490  1.00  0.00     0.121 A 
HETATM   26  H21 UNL     1      24.680   0.346  54.597  1.00  0.00     0.069 HD
HETATM   27  F1  UNL     1      22.685   1.954  52.994  1.00  0.00    -0.205 F 
HETATM   28  C17 UNL     1      24.623   2.641  51.708  1.00  0.00     0.054 A 
ENDBRANCH  20  21
ENDBRANCH  19  20
ENDBRANCH  18  19
ENDBRANCH  14  18
BRANCH   1  29
HETATM   29  N1  UNL     1      27.782   9.527  47.415  1.00  0.00    -0.386 N 
HETATM   30  H1  UNL     1      27.284  10.004  46.631  1.00  0.00     0.157 HD
HETATM   31  H2  UNL     1      28.709   9.063  47.313  1.00  0.00     0.157 HD
ENDBRANCH   1  29
TORSDOF 5
ENDMDL
