MODEL 1
REMARK VINA RESULT:      -8.3      0.000      0.000
REMARK  8 active torsions:
REMARK  status: ('A' for Active; 'I' for Inactive)
REMARK    1  A    between atoms: C3_4  and  C4_5 
REMARK    2  A    between atoms: C4_5  and  N1_6 
REMARK    3  A    between atoms: N1_6  and  C5_7 
REMARK    4  A    between atoms: C8_10  and  N2_11 
REMARK       I    between atoms: N2_11  and  C9_12 
REMARK    5  A    between atoms: C9_12  and  C10_14 
REMARK    6  A    between atoms: C10_14  and  C11_15 
REMARK    7  A    between atoms: C11_15  and  C12_16 
REMARK    8  A    between atoms: C12_16  and  N3_17 
ROOT
HETATM    1  C5  UNL     1      26.002   0.345  54.383  1.00  0.00     0.045 C 
HETATM    2  C6  UNL     1      25.562   0.990  53.396  1.00  0.00     0.033 C 
HETATM    3  C7  UNL     1      25.213   1.758  52.291  1.00  0.00     0.029 C 
HETATM    4  C8  UNL     1      24.804   2.448  51.268  1.00  0.00     0.035 C 
HETATM    5  C15 UNL     1      23.464   1.995  51.601  1.00  0.00     0.225 C 
HETATM    6  O2  UNL     1      22.655   1.196  50.787  1.00  0.00    -0.376 OA
HETATM    7  C16 UNL     1      21.639   0.455  51.714  1.00  0.00     0.063 C 
HETATM    8  C17 UNL     1      20.228   0.527  51.253  1.00  0.00     0.045 C 
HETATM    9  C18 UNL     1      22.012  -0.249  52.907  1.00  0.00     0.099 C 
HETATM   10  C19 UNL     1      21.273  -0.961  53.872  1.00  0.00     0.111 C 
HETATM   11  N4  UNL     1      21.715  -1.541  54.928  1.00  0.00    -0.281 NA
HETATM   12  C20 UNL     1      23.056  -1.586  55.347  1.00  0.00     0.296 C 
HETATM   13  N5  UNL     1      23.970  -0.680  54.622  1.00  0.00    -0.278 NA
HETATM   14  C21 UNL     1      25.190  -0.591  55.209  1.00  0.00     0.141 C 
ENDROOT
BRANCH   4  15
HETATM   15  N2  UNL     1      25.464   3.290  50.358  1.00  0.00    -0.329 N 
HETATM   16  C9  UNL     1      25.512   4.440  49.439  1.00  0.00     0.222 C 
HETATM   17  O1  UNL     1      24.451   4.979  49.380  1.00  0.00    -0.273 OA
HETATM   18  H10 UNL     1      26.163   2.526  50.646  1.00  0.00     0.168 HD
BRANCH  16  19
HETATM   19  C10 UNL     1      26.999   4.389  48.981  1.00  0.00     0.068 C 
BRANCH  19  20
HETATM   20  C11 UNL     1      27.940   5.325  48.573  1.00  0.00     0.069 C 
BRANCH  20  21
HETATM   21  C12 UNL     1      27.480   6.616  48.179  1.00  0.00     0.277 C 
BRANCH  21  22
HETATM   22  N3  UNL     1      27.629   7.806  48.927  1.00  0.00     0.080 NA
HETATM   23  C13 UNL     1      26.512   8.036  49.848  1.00  0.00     0.309 C 
HETATM   24  C14 UNL     1      27.587   8.941  47.973  1.00  0.00     0.309 C 
ENDBRANCH  21  22
ENDBRANCH  20  21
ENDBRANCH  19  20
ENDBRANCH  16  19
ENDBRANCH   4  15
BRANCH   1  25
HETATM   25  N1  UNL     1      27.321   0.718  54.503  1.00  0.00    -0.385 N 
HETATM   26  H7  UNL     1      26.873   1.545  55.062  1.00  0.00     0.160 HD
BRANCH  25  27
HETATM   27  C4  UNL     1      28.716   0.873  54.478  1.00  0.00     0.148 C 
BRANCH  27  28
HETATM   28  C3  UNL     1      29.388  -0.410  54.044  1.00  0.00     0.011 C 
HETATM   29  C2  UNL     1      28.528  -1.265  53.429  1.00  0.00     0.005 C 
HETATM   30  C1  UNL     1      29.698  -2.247  53.255  1.00  0.00     0.061 C 
HETATM   31 CL1  UNL     1      27.566  -2.548  52.613  1.00  0.00    -0.090 Cl
ENDBRANCH  27  28
ENDBRANCH  25  27
ENDBRANCH   1  25
TORSDOF 8
ENDMDL
MODEL 2
REMARK VINA RESULT:      -8.1      1.609      2.302
REMARK  8 active torsions:
REMARK  status: ('A' for Active; 'I' for Inactive)
REMARK    1  A    between atoms: C3_4  and  C4_5 
REMARK    2  A    between atoms: C4_5  and  N1_6 
REMARK    3  A    between atoms: N1_6  and  C5_7 
REMARK    4  A    between atoms: C8_10  and  N2_11 
REMARK       I    between atoms: N2_11  and  C9_12 
REMARK    5  A    between atoms: C9_12  and  C10_14 
REMARK    6  A    between atoms: C10_14  and  C11_15 
REMARK    7  A    between atoms: C11_15  and  C12_16 
REMARK    8  A    between atoms: C12_16  and  N3_17 
ROOT
HETATM    1  C5  UNL     1      26.005   0.405  54.367  1.00  0.00     0.045 C 
HETATM    2  C6  UNL     1      25.503   1.098  53.444  1.00  0.00     0.033 C 
HETATM    3  C7  UNL     1      25.084   1.925  52.407  1.00  0.00     0.029 C 
HETATM    4  C8  UNL     1      24.611   2.666  51.450  1.00  0.00     0.035 C 
HETATM    5  C15 UNL     1      23.299   2.159  51.817  1.00  0.00     0.225 C 
HETATM    6  O2  UNL     1      22.469   1.392  50.994  1.00  0.00    -0.376 OA
HETATM    7  C16 UNL     1      21.515   0.571  51.919  1.00  0.00     0.063 C 
HETATM    8  C17 UNL     1      20.082   0.636  51.530  1.00  0.00     0.045 C 
HETATM    9  C18 UNL     1      21.962  -0.197  53.046  1.00  0.00     0.099 C 
HETATM   10  C19 UNL     1      21.286  -0.986  53.998  1.00  0.00     0.111 C 
HETATM   11  N4  UNL     1      21.792  -1.618  54.993  1.00  0.00    -0.281 NA
HETATM   12  C20 UNL     1      23.153  -1.656  55.345  1.00  0.00     0.296 C 
HETATM   13  N5  UNL     1      24.010  -0.684  54.636  1.00  0.00    -0.278 NA
HETATM   14  C21 UNL     1      25.255  -0.601  55.170  1.00  0.00     0.141 C 
ENDROOT
BRANCH   4  15
HETATM   15  N2  UNL     1      25.206   3.579  50.565  1.00  0.00    -0.329 N 
HETATM   16  C9  UNL     1      26.221   3.963  49.569  1.00  0.00     0.222 C 
HETATM   17  O1  UNL     1      26.987   3.070  49.379  1.00  0.00    -0.273 OA
HETATM   18  H10 UNL     1      24.393   4.091  51.048  1.00  0.00     0.168 HD
BRANCH  16  19
HETATM   19  C10 UNL     1      25.770   5.414  49.233  1.00  0.00     0.068 C 
BRANCH  19  20
HETATM   20  C11 UNL     1      24.668   5.988  48.613  1.00  0.00     0.069 C 
BRANCH  20  21
HETATM   21  C12 UNL     1      23.583   6.420  49.433  1.00  0.00     0.277 C 
BRANCH  21  22
HETATM   22  N3  UNL     1      22.754   5.579  50.209  1.00  0.00     0.080 NA
HETATM   23  C13 UNL     1      21.921   4.695  49.389  1.00  0.00     0.309 C 
HETATM   24  C14 UNL     1      21.798   6.448  50.940  1.00  0.00     0.309 C 
ENDBRANCH  21  22
ENDBRANCH  20  21
ENDBRANCH  19  20
ENDBRANCH  16  19
ENDBRANCH   4  15
BRANCH   1  25
HETATM   25  N1  UNL     1      27.320   0.803  54.447  1.00  0.00    -0.385 N 
HETATM   26  H7  UNL     1      26.859   1.694  54.885  1.00  0.00     0.160 HD
BRANCH  25  27
HETATM   27  C4  UNL     1      28.714   0.966  54.414  1.00  0.00     0.148 C 
BRANCH  27  28
HETATM   28  C3  UNL     1      29.393  -0.328  54.026  1.00  0.00     0.011 C 
HETATM   29  C2  UNL     1      28.543  -1.203  53.425  1.00  0.00     0.005 C 
HETATM   30  C1  UNL     1      29.717  -2.187  53.295  1.00  0.00     0.061 C 
HETATM   31 CL1  UNL     1      27.593  -2.510  52.634  1.00  0.00    -0.090 Cl
ENDBRANCH  27  28
ENDBRANCH  25  27
ENDBRANCH   1  25
TORSDOF 8
ENDMDL
MODEL 3
REMARK VINA RESULT:      -7.9      1.690      2.357
REMARK  8 active torsions:
REMARK  status: ('A' for Active; 'I' for Inactive)
REMARK    1  A    between atoms: C3_4  and  C4_5 
REMARK    2  A    between atoms: C4_5  and  N1_6 
REMARK    3  A    between atoms: N1_6  and  C5_7 
REMARK    4  A    between atoms: C8_10  and  N2_11 
REMARK       I    between atoms: N2_11  and  C9_12 
REMARK    5  A    between atoms: C9_12  and  C10_14 
REMARK    6  A    between atoms: C10_14  and  C11_15 
REMARK    7  A    between atoms: C11_15  and  C12_16 
REMARK    8  A    between atoms: C12_16  and  N3_17 
ROOT
HETATM    1  C5  UNL     1      23.694  -0.278  53.858  1.00  0.00     0.045 C 
HETATM    2  C6  UNL     1      23.720   0.554  52.914  1.00  0.00     0.033 C 
HETATM    3  C7  UNL     1      23.895   1.488  51.898  1.00  0.00     0.029 C 
HETATM    4  C8  UNL     1      23.971   2.356  50.935  1.00  0.00     0.035 C 
HETATM    5  C15 UNL     1      22.521   2.290  50.869  1.00  0.00     0.225 C 
HETATM    6  O2  UNL     1      21.781   1.842  49.771  1.00  0.00    -0.376 OA
HETATM    7  C16 UNL     1      20.396   1.353  50.303  1.00  0.00     0.063 C 
HETATM    8  C17 UNL     1      19.231   1.878  49.544  1.00  0.00     0.045 C 
HETATM    9  C18 UNL     1      20.237   0.465  51.418  1.00  0.00     0.099 C 
HETATM   10  C19 UNL     1      19.105  -0.081  52.056  1.00  0.00     0.111 C 
HETATM   11  N4  UNL     1      19.080  -0.858  53.077  1.00  0.00    -0.281 NA
HETATM   12  C20 UNL     1      20.199  -1.334  53.784  1.00  0.00     0.296 C 
HETATM   13  N5  UNL     1      21.478  -0.676  53.448  1.00  0.00    -0.278 NA
HETATM   14  C21 UNL     1      22.474  -1.003  54.309  1.00  0.00     0.141 C 
ENDROOT
BRANCH   4  15
HETATM   15  N2  UNL     1      25.048   3.046  50.352  1.00  0.00    -0.329 N 
HETATM   16  C9  UNL     1      26.476   3.388  50.243  1.00  0.00     0.222 C 
HETATM   17  O1  UNL     1      27.112   2.822  51.076  1.00  0.00    -0.273 OA
HETATM   18  H10 UNL     1      24.154   3.369  49.848  1.00  0.00     0.168 HD
BRANCH  16  19
HETATM   19  C10 UNL     1      26.454   4.362  49.030  1.00  0.00     0.068 C 
BRANCH  19  20
HETATM   20  C11 UNL     1      26.758   5.702  48.832  1.00  0.00     0.069 C 
BRANCH  20  21
HETATM   21  C12 UNL     1      26.072   6.673  49.619  1.00  0.00     0.277 C 
BRANCH  21  22
HETATM   22  N3  UNL     1      25.978   8.053  49.325  1.00  0.00     0.080 NA
HETATM   23  C13 UNL     1      26.930   8.859  50.094  1.00  0.00     0.309 C 
HETATM   24  C14 UNL     1      24.636   8.511  49.764  1.00  0.00     0.309 C 
ENDBRANCH  21  22
ENDBRANCH  20  21
ENDBRANCH  19  20
ENDBRANCH  16  19
ENDBRANCH   4  15
BRANCH   1  25
HETATM   25  N1  UNL     1      24.982  -0.322  54.340  1.00  0.00    -0.385 N 
HETATM   26  H7  UNL     1      25.216  -0.185  53.280  1.00  0.00     0.160 HD
BRANCH  25  27
HETATM   27  C4  UNL     1      26.175  -0.400  55.076  1.00  0.00     0.148 C 
BRANCH  27  28
HETATM   28  C3  UNL     1      27.240   0.477  54.460  1.00  0.00     0.011 C 
HETATM   29  C2  UNL     1      28.355  -0.221  54.117  1.00  0.00     0.005 C 
HETATM   30  C1  UNL     1      28.968   1.093  53.605  1.00  0.00     0.061 C 
HETATM   31 CL1  UNL     1      29.925  -0.940  53.610  1.00  0.00    -0.090 Cl
ENDBRANCH  27  28
ENDBRANCH  25  27
ENDBRANCH   1  25
TORSDOF 8
ENDMDL
MODEL 4
REMARK VINA RESULT:      -7.9      2.189      2.860
REMARK  8 active torsions:
REMARK  status: ('A' for Active; 'I' for Inactive)
REMARK    1  A    between atoms: C3_4  and  C4_5 
REMARK    2  A    between atoms: C4_5  and  N1_6 
REMARK    3  A    between atoms: N1_6  and  C5_7 
REMARK    4  A    between atoms: C8_10  and  N2_11 
REMARK       I    between atoms: N2_11  and  C9_12 
REMARK    5  A    between atoms: C9_12  and  C10_14 
REMARK    6  A    between atoms: C10_14  and  C11_15 
REMARK    7  A    between atoms: C11_15  and  C12_16 
REMARK    8  A    between atoms: C12_16  and  N3_17 
ROOT
HETATM    1  C5  UNL     1      25.807   1.428  52.756  1.00  0.00     0.045 C 
HETATM    2  C6  UNL     1      25.605   2.304  51.876  1.00  0.00     0.033 C 
HETATM    3  C7  UNL     1      25.525   3.314  50.923  1.00  0.00     0.029 C 
HETATM    4  C8  UNL     1      25.364   4.237  50.023  1.00  0.00     0.035 C 
HETATM    5  C15 UNL     1      23.952   3.890  50.036  1.00  0.00     0.225 C 
HETATM    6  O2  UNL     1      23.236   3.372  48.953  1.00  0.00    -0.376 OA
HETATM    7  C16 UNL     1      22.012   2.589  49.527  1.00  0.00     0.063 C 
HETATM    8  C17 UNL     1      20.717   2.920  48.878  1.00  0.00     0.045 C 
HETATM    9  C18 UNL     1      22.107   1.622  50.582  1.00  0.00     0.099 C 
HETATM   10  C19 UNL     1      21.150   0.825  51.243  1.00  0.00     0.111 C 
HETATM   11  N4  UNL     1      21.348  -0.002  52.204  1.00  0.00    -0.281 NA
HETATM   12  C20 UNL     1      22.585  -0.290  52.808  1.00  0.00     0.296 C 
HETATM   13  N5  UNL     1      23.686   0.626  52.447  1.00  0.00    -0.278 NA
HETATM   14  C21 UNL     1      24.785   0.450  53.223  1.00  0.00     0.141 C 
ENDROOT
BRANCH   4  15
HETATM   15  N2  UNL     1      26.243   5.158  49.431  1.00  0.00    -0.329 N 
HETATM   16  C9  UNL     1      26.734   6.525  49.184  1.00  0.00     0.222 C 
HETATM   17  O1  UNL     1      26.057   7.326  49.750  1.00  0.00    -0.273 OA
HETATM   18  H10 UNL     1      26.521   4.182  49.076  1.00  0.00     0.168 HD
BRANCH  16  19
HETATM   19  C10 UNL     1      27.959   6.238  48.269  1.00  0.00     0.068 C 
BRANCH  19  20
HETATM   20  C11 UNL     1      28.919   5.238  48.186  1.00  0.00     0.069 C 
BRANCH  20  21
HETATM   21  C12 UNL     1      30.282   5.624  48.022  1.00  0.00     0.277 C 
BRANCH  21  22
HETATM   22  N3  UNL     1      31.335   5.325  48.916  1.00  0.00     0.080 NA
HETATM   23  C13 UNL     1      31.788   6.499  49.666  1.00  0.00     0.309 C 
HETATM   24  C14 UNL     1      32.504   4.907  48.103  1.00  0.00     0.309 C 
ENDBRANCH  21  22
ENDBRANCH  20  21
ENDBRANCH  19  20
ENDBRANCH  16  19
ENDBRANCH   4  15
BRANCH   1  25
HETATM   25  N1  UNL     1      27.110   1.609  53.159  1.00  0.00    -0.385 N 
HETATM   26  H7  UNL     1      27.173   0.548  52.898  1.00  0.00     0.160 HD
BRANCH  25  27
HETATM   27  C4  UNL     1      28.361   2.052  53.617  1.00  0.00     0.148 C 
BRANCH  27  28
HETATM   28  C3  UNL     1      29.316   0.890  53.770  1.00  0.00     0.011 C 
HETATM   29  C2  UNL     1      28.749  -0.298  53.430  1.00  0.00     0.005 C 
HETATM   30  C1  UNL     1      30.084  -0.982  53.764  1.00  0.00     0.061 C 
HETATM   31 CL1  UNL     1      28.194  -1.968  53.053  1.00  0.00    -0.090 Cl
ENDBRANCH  27  28
ENDBRANCH  25  27
ENDBRANCH   1  25
TORSDOF 8
ENDMDL
MODEL 5
REMARK VINA RESULT:      -7.9      3.471      8.546
REMARK  8 active torsions:
REMARK  status: ('A' for Active; 'I' for Inactive)
REMARK    1  A    between atoms: C3_4  and  C4_5 
REMARK    2  A    between atoms: C4_5  and  N1_6 
REMARK    3  A    between atoms: N1_6  and  C5_7 
REMARK    4  A    between atoms: C8_10  and  N2_11 
REMARK       I    between atoms: N2_11  and  C9_12 
REMARK    5  A    between atoms: C9_12  and  C10_14 
REMARK    6  A    between atoms: C10_14  and  C11_15 
REMARK    7  A    between atoms: C11_15  and  C12_16 
REMARK    8  A    between atoms: C12_16  and  N3_17 
ROOT
HETATM    1  C5  UNL     1      28.368   6.294  47.999  1.00  0.00     0.045 C 
HETATM    2  C6  UNL     1      27.579   5.500  48.575  1.00  0.00     0.033 C 
HETATM    3  C7  UNL     1      26.829   4.548  49.257  1.00  0.00     0.029 C 
HETATM    4  C8  UNL     1      26.055   3.699  49.864  1.00  0.00     0.035 C 
HETATM    5  C15 UNL     1      24.941   4.381  49.227  1.00  0.00     0.225 C 
HETATM    6  O2  UNL     1      23.923   5.067  49.896  1.00  0.00    -0.376 OA
HETATM    7  C16 UNL     1      23.335   6.123  48.906  1.00  0.00     0.063 C 
HETATM    8  C17 UNL     1      21.851   6.125  48.826  1.00  0.00     0.045 C 
HETATM    9  C18 UNL     1      24.137   7.030  48.137  1.00  0.00     0.099 C 
HETATM   10  C19 UNL     1      23.821   8.032  47.198  1.00  0.00     0.111 C 
HETATM   11  N4  UNL     1      24.634   8.779  46.544  1.00  0.00    -0.281 NA
HETATM   12  C20 UNL     1      26.037   8.750  46.631  1.00  0.00     0.296 C 
HETATM   13  N5  UNL     1      26.596   7.594  47.361  1.00  0.00    -0.278 NA
HETATM   14  C21 UNL     1      27.941   7.489  47.220  1.00  0.00     0.141 C 
ENDROOT
BRANCH   4  15
HETATM   15  N2  UNL     1      26.312   2.593  50.692  1.00  0.00    -0.329 N 
HETATM   16  C9  UNL     1      27.038   1.914  51.778  1.00  0.00     0.222 C 
HETATM   17  O1  UNL     1      27.883   2.622  52.230  1.00  0.00    -0.273 OA
HETATM   18  H10 UNL     1      25.539   2.301  50.004  1.00  0.00     0.168 HD
BRANCH  16  19
HETATM   19  C10 UNL     1      26.304   0.542  51.811  1.00  0.00     0.068 C 
BRANCH  19  20
HETATM   20  C11 UNL     1      26.389  -0.606  52.586  1.00  0.00     0.069 C 
BRANCH  20  21
HETATM   21  C12 UNL     1      26.806  -0.474  53.943  1.00  0.00     0.277 C 
BRANCH  21  22
HETATM   22  N3  UNL     1      28.113  -0.712  54.428  1.00  0.00     0.080 NA
HETATM   23  C13 UNL     1      28.809   0.523  54.799  1.00  0.00     0.309 C 
HETATM   24  C14 UNL     1      28.905  -1.285  53.312  1.00  0.00     0.309 C 
ENDBRANCH  21  22
ENDBRANCH  20  21
ENDBRANCH  19  20
ENDBRANCH  16  19
ENDBRANCH   4  15
BRANCH   1  25
HETATM   25  N1  UNL     1      29.627   5.795  48.241  1.00  0.00    -0.385 N 
HETATM   26  H7  UNL     1      29.051   4.908  48.521  1.00  0.00     0.160 HD
BRANCH  25  27
HETATM   27  C4  UNL     1      30.997   5.534  48.406  1.00  0.00     0.148 C 
BRANCH  27  28
HETATM   28  C3  UNL     1      31.497   4.606  47.322  1.00  0.00     0.011 C 
HETATM   29  C2  UNL     1      32.646   3.968  47.672  1.00  0.00     0.005 C 
HETATM   30  C1  UNL     1      32.619   3.263  46.307  1.00  0.00     0.061 C 
HETATM   31 CL1  UNL     1      34.167   3.040  47.921  1.00  0.00    -0.090 Cl
ENDBRANCH  27  28
ENDBRANCH  25  27
ENDBRANCH   1  25
TORSDOF 8
ENDMDL
MODEL 6
REMARK VINA RESULT:      -7.7      3.045      6.600
REMARK  8 active torsions:
REMARK  status: ('A' for Active; 'I' for Inactive)
REMARK    1  A    between atoms: C3_4  and  C4_5 
REMARK    2  A    between atoms: C4_5  and  N1_6 
REMARK    3  A    between atoms: N1_6  and  C5_7 
REMARK    4  A    between atoms: C8_10  and  N2_11 
REMARK       I    between atoms: N2_11  and  C9_12 
REMARK    5  A    between atoms: C9_12  and  C10_14 
REMARK    6  A    between atoms: C10_14  and  C11_15 
REMARK    7  A    between atoms: C11_15  and  C12_16 
REMARK    8  A    between atoms: C12_16  and  N3_17 
ROOT
HETATM    1  C5  UNL     1      26.372   2.480  51.622  1.00  0.00     0.045 C 
HETATM    2  C6  UNL     1      25.163   2.207  51.406  1.00  0.00     0.033 C 
HETATM    3  C7  UNL     1      23.835   1.995  51.050  1.00  0.00     0.029 C 
HETATM    4  C8  UNL     1      22.587   1.747  50.788  1.00  0.00     0.035 C 
HETATM    5  C15 UNL     1      22.546   1.038  52.056  1.00  0.00     0.225 C 
HETATM    6  O2  UNL     1      22.295  -0.328  52.211  1.00  0.00    -0.376 OA
HETATM    7  C16 UNL     1      22.936  -0.776  53.563  1.00  0.00     0.063 C 
HETATM    8  C17 UNL     1      22.035  -1.581  54.428  1.00  0.00     0.045 C 
HETATM    9  C18 UNL     1      24.280  -0.461  53.953  1.00  0.00     0.099 C 
HETATM   10  C19 UNL     1      25.038  -0.749  55.105  1.00  0.00     0.111 C 
HETATM   11  N4  UNL     1      26.243  -0.390  55.361  1.00  0.00    -0.281 NA
HETATM   12  C20 UNL     1      27.072   0.381  54.527  1.00  0.00     0.296 C 
HETATM   13  N5  UNL     1      26.391   1.015  53.380  1.00  0.00    -0.278 NA
HETATM   14  C21 UNL     1      27.175   1.923  52.746  1.00  0.00     0.141 C 
ENDROOT
BRANCH   4  15
HETATM   15  N2  UNL     1      21.737   2.126  49.736  1.00  0.00    -0.329 N 
HETATM   16  C9  UNL     1      21.267   2.048  48.343  1.00  0.00     0.222 C 
HETATM   17  O1  UNL     1      21.929   1.282  47.714  1.00  0.00    -0.273 OA
HETATM   18  H10 UNL     1      21.463   2.717  50.592  1.00  0.00     0.168 HD
BRANCH  16  19
HETATM   19  C10 UNL     1      20.073   3.046  48.378  1.00  0.00     0.068 C 
BRANCH  19  20
HETATM   20  C11 UNL     1      18.724   2.963  48.696  1.00  0.00     0.069 C 
BRANCH  20  21
HETATM   21  C12 UNL     1      18.287   1.872  49.504  1.00  0.00     0.277 C 
BRANCH  21  22
HETATM   22  N3  UNL     1      18.881   1.459  50.718  1.00  0.00     0.080 NA
HETATM   23  C13 UNL     1      18.274   0.238  51.256  1.00  0.00     0.309 C 
HETATM   24  C14 UNL     1      18.604   2.509  51.729  1.00  0.00     0.309 C 
ENDBRANCH  21  22
ENDBRANCH  20  21
ENDBRANCH  19  20
ENDBRANCH  16  19
ENDBRANCH   4  15
BRANCH   1  25
HETATM   25  N1  UNL     1      26.724   3.374  50.638  1.00  0.00    -0.385 N 
HETATM   26  H7  UNL     1      27.469   3.664  51.386  1.00  0.00     0.160 HD
BRANCH  25  27
HETATM   27  C4  UNL     1      26.879   4.172  49.493  1.00  0.00     0.148 C 
BRANCH  27  28
HETATM   28  C3  UNL     1      25.579   4.861  49.144  1.00  0.00     0.011 C 
HETATM   29  C2  UNL     1      25.129   5.662  50.146  1.00  0.00     0.005 C 
HETATM   30  C1  UNL     1      23.927   6.023  49.259  1.00  0.00     0.061 C 
HETATM   31 CL1  UNL     1      24.344   6.752  51.343  1.00  0.00    -0.090 Cl
ENDBRANCH  27  28
ENDBRANCH  25  27
ENDBRANCH   1  25
TORSDOF 8
ENDMDL
MODEL 7
REMARK VINA RESULT:      -7.7      2.752      5.649
REMARK  8 active torsions:
REMARK  status: ('A' for Active; 'I' for Inactive)
REMARK    1  A    between atoms: C3_4  and  C4_5 
REMARK    2  A    between atoms: C4_5  and  N1_6 
REMARK    3  A    between atoms: N1_6  and  C5_7 
REMARK    4  A    between atoms: C8_10  and  N2_11 
REMARK       I    between atoms: N2_11  and  C9_12 
REMARK    5  A    between atoms: C9_12  and  C10_14 
REMARK    6  A    between atoms: C10_14  and  C11_15 
REMARK    7  A    between atoms: C11_15  and  C12_16 
REMARK    8  A    between atoms: C12_16  and  N3_17 
ROOT
HETATM    1  C5  UNL     1      22.880   1.688  52.037  1.00  0.00     0.045 C 
HETATM    2  C6  UNL     1      23.979   2.156  51.640  1.00  0.00     0.033 C 
HETATM    3  C7  UNL     1      25.114   2.763  51.114  1.00  0.00     0.029 C 
HETATM    4  C8  UNL     1      26.223   3.274  50.670  1.00  0.00     0.035 C 
HETATM    5  C15 UNL     1      26.907   2.229  51.413  1.00  0.00     0.225 C 
HETATM    6  O2  UNL     1      27.789   2.439  52.478  1.00  0.00    -0.376 OA
HETATM    7  C16 UNL     1      27.795   1.142  53.348  1.00  0.00     0.063 C 
HETATM    8  C17 UNL     1      29.152   0.645  53.693  1.00  0.00     0.045 C 
HETATM    9  C18 UNL     1      26.606   0.476  53.797  1.00  0.00     0.099 C 
HETATM   10  C19 UNL     1      26.389  -0.686  54.564  1.00  0.00     0.111 C 
HETATM   11  N4  UNL     1      25.264  -1.210  54.890  1.00  0.00    -0.281 NA
HETATM   12  C20 UNL     1      23.991  -0.725  54.543  1.00  0.00     0.296 C 
HETATM   13  N5  UNL     1      23.986   0.339  53.518  1.00  0.00    -0.278 NA
HETATM   14  C21 UNL     1      22.740   0.609  53.053  1.00  0.00     0.141 C 
ENDROOT
BRANCH   4  15
HETATM   15  N2  UNL     1      26.503   4.335  49.792  1.00  0.00    -0.329 N 
HETATM   16  C9  UNL     1      26.132   5.553  49.054  1.00  0.00     0.222 C 
HETATM   17  O1  UNL     1      24.992   5.839  49.253  1.00  0.00    -0.273 OA
HETATM   18  H10 UNL     1      27.387   3.725  49.845  1.00  0.00     0.168 HD
BRANCH  16  19
HETATM   19  C10 UNL     1      27.477   5.891  48.347  1.00  0.00     0.068 C 
BRANCH  19  20
HETATM   20  C11 UNL     1      28.720   5.281  48.243  1.00  0.00     0.069 C 
BRANCH  20  21
HETATM   21  C12 UNL     1      29.879   6.057  48.542  1.00  0.00     0.277 C 
BRANCH  21  22
HETATM   22  N3  UNL     1      31.095   5.553  49.055  1.00  0.00     0.080 NA
HETATM   23  C13 UNL     1      31.982   6.612  49.545  1.00  0.00     0.309 C 
HETATM   24  C14 UNL     1      31.827   4.923  47.928  1.00  0.00     0.309 C 
ENDBRANCH  21  22
ENDBRANCH  20  21
ENDBRANCH  19  20
ENDBRANCH  16  19
ENDBRANCH   4  15
BRANCH   1  25
HETATM   25  N1  UNL     1      21.917   2.368  51.326  1.00  0.00    -0.385 N 
HETATM   26  H7  UNL     1      22.733   2.447  50.601  1.00  0.00     0.160 HD
BRANCH  25  27
HETATM   27  C4  UNL     1      20.776   3.010  50.819  1.00  0.00     0.148 C 
BRANCH  27  28
HETATM   28  C3  UNL     1      19.747   1.995  50.374  1.00  0.00     0.011 C 
HETATM   29  C2  UNL     1      19.446   1.097  51.349  1.00  0.00     0.005 C 
HETATM   30  C1  UNL     1      18.461   0.434  50.374  1.00  0.00     0.061 C 
HETATM   31 CL1  UNL     1      18.920  -0.199  52.481  1.00  0.00    -0.090 Cl
ENDBRANCH  27  28
ENDBRANCH  25  27
ENDBRANCH   1  25
TORSDOF 8
ENDMDL
MODEL 8
REMARK VINA RESULT:      -7.7      3.354      6.159
REMARK  8 active torsions:
REMARK  status: ('A' for Active; 'I' for Inactive)
REMARK    1  A    between atoms: C3_4  and  C4_5 
REMARK    2  A    between atoms: C4_5  and  N1_6 
REMARK    3  A    between atoms: N1_6  and  C5_7 
REMARK    4  A    between atoms: C8_10  and  N2_11 
REMARK       I    between atoms: N2_11  and  C9_12 
REMARK    5  A    between atoms: C9_12  and  C10_14 
REMARK    6  A    between atoms: C10_14  and  C11_15 
REMARK    7  A    between atoms: C11_15  and  C12_16 
REMARK    8  A    between atoms: C12_16  and  N3_17 
ROOT
HETATM    1  C5  UNL     1      25.852   3.030  51.365  1.00  0.00     0.045 C 
HETATM    2  C6  UNL     1      24.617   2.854  51.530  1.00  0.00     0.033 C 
HETATM    3  C7  UNL     1      23.232   2.772  51.618  1.00  0.00     0.029 C 
HETATM    4  C8  UNL     1      21.948   2.631  51.760  1.00  0.00     0.035 C 
HETATM    5  C15 UNL     1      22.251   1.666  52.804  1.00  0.00     0.225 C 
HETATM    6  O2  UNL     1      21.919   0.308  52.770  1.00  0.00    -0.376 OA
HETATM    7  C16 UNL     1      22.917  -0.445  53.706  1.00  0.00     0.063 C 
HETATM    8  C17 UNL     1      22.270  -1.386  54.657  1.00  0.00     0.045 C 
HETATM    9  C18 UNL     1      24.340  -0.269  53.663  1.00  0.00     0.099 C 
HETATM   10  C19 UNL     1      25.400  -0.828  54.406  1.00  0.00     0.111 C 
HETATM   11  N4  UNL     1      26.653  -0.576  54.295  1.00  0.00    -0.281 NA
HETATM   12  C20 UNL     1      27.240   0.328  53.391  1.00  0.00     0.296 C 
HETATM   13  N5  UNL     1      26.291   1.219  52.693  1.00  0.00    -0.278 NA
HETATM   14  C21 UNL     1      26.916   2.215  52.015  1.00  0.00     0.141 C 
ENDROOT
BRANCH   4  15
HETATM   15  N2  UNL     1      20.845   3.259  51.158  1.00  0.00    -0.329 N 
HETATM   16  C9  UNL     1      19.468   3.780  51.173  1.00  0.00     0.222 C 
HETATM   17  O1  UNL     1      18.952   3.583  52.229  1.00  0.00    -0.273 OA
HETATM   18  H10 UNL     1      21.614   3.183  50.410  1.00  0.00     0.168 HD
BRANCH  16  19
HETATM   19  C10 UNL     1      19.359   4.370  49.737  1.00  0.00     0.068 C 
BRANCH  19  20
HETATM   20  C11 UNL     1      19.381   3.849  48.450  1.00  0.00     0.069 C 
BRANCH  20  21
HETATM   21  C12 UNL     1      20.520   4.116  47.634  1.00  0.00     0.277 C 
BRANCH  21  22
HETATM   22  N3  UNL     1      21.840   4.310  48.102  1.00  0.00     0.080 NA
HETATM   23  C13 UNL     1      22.598   5.253  47.275  1.00  0.00     0.309 C 
HETATM   24  C14 UNL     1      22.553   3.015  47.970  1.00  0.00     0.309 C 
ENDBRANCH  21  22
ENDBRANCH  20  21
ENDBRANCH  19  20
ENDBRANCH  16  19
ENDBRANCH   4  15
BRANCH   1  25
HETATM   25  N1  UNL     1      25.955   4.104  50.510  1.00  0.00    -0.385 N 
HETATM   26  H7  UNL     1      26.745   4.387  51.213  1.00  0.00     0.160 HD
BRANCH  25  27
HETATM   27  C4  UNL     1      25.855   5.077  49.503  1.00  0.00     0.148 C 
BRANCH  27  28
HETATM   28  C3  UNL     1      25.328   6.377  50.068  1.00  0.00     0.011 C 
HETATM   29  C2  UNL     1      24.025   6.291  50.444  1.00  0.00     0.005 C 
HETATM   30  C1  UNL     1      24.099   7.763  50.882  1.00  0.00     0.061 C 
HETATM   31 CL1  UNL     1      22.312   6.404  50.984  1.00  0.00    -0.090 Cl
ENDBRANCH  27  28
ENDBRANCH  25  27
ENDBRANCH   1  25
TORSDOF 8
ENDMDL
MODEL 9
REMARK VINA RESULT:      -7.6      1.368      1.763
REMARK  8 active torsions:
REMARK  status: ('A' for Active; 'I' for Inactive)
REMARK    1  A    between atoms: C3_4  and  C4_5 
REMARK    2  A    between atoms: C4_5  and  N1_6 
REMARK    3  A    between atoms: N1_6  and  C5_7 
REMARK    4  A    between atoms: C8_10  and  N2_11 
REMARK       I    between atoms: N2_11  and  C9_12 
REMARK    5  A    between atoms: C9_12  and  C10_14 
REMARK    6  A    between atoms: C10_14  and  C11_15 
REMARK    7  A    between atoms: C11_15  and  C12_16 
REMARK    8  A    between atoms: C12_16  and  N3_17 
ROOT
HETATM    1  C5  UNL     1      25.326   0.715  53.547  1.00  0.00     0.045 C 
HETATM    2  C6  UNL     1      24.844   1.725  52.971  1.00  0.00     0.033 C 
HETATM    3  C7  UNL     1      24.453   2.887  52.314  1.00  0.00     0.029 C 
HETATM    4  C8  UNL     1      24.003   3.948  51.715  1.00  0.00     0.035 C 
HETATM    5  C15 UNL     1      22.675   3.515  52.119  1.00  0.00     0.225 C 
HETATM    6  O2  UNL     1      21.641   3.162  51.247  1.00  0.00    -0.376 OA
HETATM    7  C16 UNL     1      20.676   2.208  52.022  1.00  0.00     0.063 C 
HETATM    8  C17 UNL     1      19.239   2.569  51.908  1.00  0.00     0.045 C 
HETATM    9  C18 UNL     1      21.114   1.070  52.777  1.00  0.00     0.099 C 
HETATM   10  C19 UNL     1      20.430   0.104  53.543  1.00  0.00     0.111 C 
HETATM   11  N4  UNL     1      20.935  -0.872  54.205  1.00  0.00    -0.281 NA
HETATM   12  C20 UNL     1      22.302  -1.187  54.305  1.00  0.00     0.296 C 
HETATM   13  N5  UNL     1      23.221  -0.150  53.794  1.00  0.00    -0.278 NA
HETATM   14  C21 UNL     1      24.516  -0.396  54.119  1.00  0.00     0.141 C 
ENDROOT
BRANCH   4  15
HETATM   15  N2  UNL     1      24.637   5.019  51.063  1.00  0.00    -0.329 N 
HETATM   16  C9  UNL     1      25.431   5.596  49.965  1.00  0.00     0.222 C 
HETATM   17  O1  UNL     1      25.752   4.753  49.186  1.00  0.00    -0.273 OA
HETATM   18  H10 UNL     1      24.212   5.408  51.971  1.00  0.00     0.168 HD
BRANCH  16  19
HETATM   19  C10 UNL     1      25.456   7.097  50.376  1.00  0.00     0.068 C 
BRANCH  19  20
HETATM   20  C11 UNL     1      26.324   8.162  50.178  1.00  0.00     0.069 C 
BRANCH  20  21
HETATM   21  C12 UNL     1      26.721   8.470  48.844  1.00  0.00     0.277 C 
BRANCH  21  22
HETATM   22  N3  UNL     1      28.047   8.453  48.356  1.00  0.00     0.080 NA
HETATM   23  C13 UNL     1      28.604   7.099  48.283  1.00  0.00     0.309 C 
HETATM   24  C14 UNL     1      28.893   9.169  49.342  1.00  0.00     0.309 C 
ENDBRANCH  21  22
ENDBRANCH  20  21
ENDBRANCH  19  20
ENDBRANCH  16  19
ENDBRANCH   4  15
BRANCH   1  25
HETATM   25  N1  UNL     1      26.689   0.903  53.531  1.00  0.00    -0.385 N 
HETATM   26  H7  UNL     1      26.681  -0.191  53.482  1.00  0.00     0.160 HD
BRANCH  25  27
HETATM   27  C4  UNL     1      28.016   1.360  53.529  1.00  0.00     0.148 C 
BRANCH  27  28
HETATM   28  C3  UNL     1      28.981   0.198  53.586  1.00  0.00     0.011 C 
HETATM   29  C2  UNL     1      28.405  -0.976  53.216  1.00  0.00     0.005 C 
HETATM   30  C1  UNL     1      29.756  -1.666  53.459  1.00  0.00     0.061 C 
HETATM   31 CL1  UNL     1      27.841  -2.630  52.786  1.00  0.00    -0.090 Cl
ENDBRANCH  27  28
ENDBRANCH  25  27
ENDBRANCH   1  25
TORSDOF 8
ENDMDL
