MODEL 1
REMARK VINA RESULT:      -7.9      0.000      0.000
REMARK  6 active torsions:
REMARK  status: ('A' for Active; 'I' for Inactive)
REMARK    1  A    between atoms: C2_2  and  C3_3 
REMARK    2  A    between atoms: C3_3  and  C4_4 
REMARK    3  A    between atoms: C4_4  and  C5_5 
REMARK    4  A    between atoms: C5_5  and  C6_6 
REMARK    5  A    between atoms: C10_11  and  C11_12 
REMARK    6  A    between atoms: C12_13  and  O2_14 
ROOT
HETATM    1  C6  UNL     1      23.898   3.458  49.209  1.00  0.00     0.019 C 
HETATM    2  C7  UNL     1      24.326   3.447  50.675  1.00  0.00     0.173 C 
HETATM    3  O1  UNL     1      24.519   2.196  51.208  1.00  0.00    -0.386 OA
HETATM    4  C8  UNL     1      24.935   2.430  52.557  1.00  0.00     0.212 C 
HETATM    5  C9  UNL     1      25.092   1.188  53.285  1.00  0.00     0.040 A 
HETATM    6  C10 UNL     1      26.213   0.622  53.758  1.00  0.00     0.072 A 
HETATM    7  N1  UNL     1      26.070  -0.529  54.404  1.00  0.00    -0.241 NA
HETATM    8  C13 UNL     1      24.888  -1.121  54.590  1.00  0.00     0.235 A 
HETATM    9  N2  UNL     1      23.810  -0.512  54.098  1.00  0.00    -0.224 NA
HETATM   10  C14 UNL     1      23.865   0.631  53.445  1.00  0.00     0.139 A 
HETATM   11  N3  UNL     1      22.584   1.123  52.987  1.00  0.00    -0.351 N 
HETATM   12  C15 UNL     1      21.814   0.650  51.890  1.00  0.00     0.086 C 
HETATM   13  C16 UNL     1      21.677   0.863  50.592  1.00  0.00    -0.003 C 
HETATM   14  C17 UNL     1      22.604   1.924  50.089  1.00  0.00     0.027 C 
HETATM   15  C18 UNL     1      22.861   2.492  48.891  1.00  0.00    -0.022 C 
HETATM   16  C19 UNL     1      22.429   2.348  47.458  1.00  0.00     0.017 C 
HETATM   17  H17 UNL     1      22.533   1.856  53.723  1.00  0.00     0.166 HD
ENDROOT
BRANCH   1  18
HETATM   18  C5  UNL     1      23.687   4.881  48.788  1.00  0.00     0.009 C 
BRANCH  18  19
HETATM   19  C4  UNL     1      24.507   5.944  49.425  1.00  0.00     0.018 C 
BRANCH  19  20
HETATM   20  C3  UNL     1      25.661   6.331  48.532  1.00  0.00     0.066 C 
BRANCH  20  21
HETATM   21  C2  UNL     1      26.802   5.681  48.686  1.00  0.00    -0.176 C 
HETATM   22  C1  UNL     1      27.917   4.981  48.572  1.00  0.00     0.091 C 
ENDBRANCH  20  21
ENDBRANCH  19  20
ENDBRANCH  18  19
ENDBRANCH   1  18
BRANCH   6  23
HETATM   23  C11 UNL     1      27.496   1.206  53.584  1.00  0.00     0.056 C 
HETATM   24  C12 UNL     1      28.104   2.345  53.461  1.00  0.00     0.133 C 
BRANCH  24  25
HETATM   25  O2  UNL     1      29.412   2.767  53.293  1.00  0.00    -0.373 OA
HETATM   26  H15 UNL     1      29.600   3.524  52.615  1.00  0.00     0.216 HD
ENDBRANCH  24  25
ENDBRANCH   6  23
TORSDOF 6
ENDMDL
MODEL 2
REMARK VINA RESULT:      -7.9      1.831      2.256
REMARK  6 active torsions:
REMARK  status: ('A' for Active; 'I' for Inactive)
REMARK    1  A    between atoms: C2_2  and  C3_3 
REMARK    2  A    between atoms: C3_3  and  C4_4 
REMARK    3  A    between atoms: C4_4  and  C5_5 
REMARK    4  A    between atoms: C5_5  and  C6_6 
REMARK    5  A    between atoms: C10_11  and  C11_12 
REMARK    6  A    between atoms: C12_13  and  O2_14 
ROOT
HETATM    1  C6  UNL     1      23.805   2.899  49.440  1.00  0.00     0.019 C 
HETATM    2  C7  UNL     1      23.842   2.726  50.957  1.00  0.00     0.173 C 
HETATM    3  O1  UNL     1      23.332   1.535  51.413  1.00  0.00    -0.386 OA
HETATM    4  C8  UNL     1      23.495   1.584  52.834  1.00  0.00     0.212 C 
HETATM    5  C9  UNL     1      22.914   0.421  53.472  1.00  0.00     0.040 A 
HETATM    6  C10 UNL     1      23.527  -0.582  54.120  1.00  0.00     0.072 A 
HETATM    7  N1  UNL     1      22.745  -1.529  54.624  1.00  0.00    -0.241 NA
HETATM    8  C13 UNL     1      21.415  -1.517  54.509  1.00  0.00     0.235 A 
HETATM    9  N2  UNL     1      20.863  -0.496  53.855  1.00  0.00    -0.224 NA
HETATM   10  C14 UNL     1      21.567   0.484  53.326  1.00  0.00     0.139 A 
HETATM   11  N3  UNL     1      20.779   1.494  52.653  1.00  0.00    -0.351 N 
HETATM   12  C15 UNL     1      20.146   1.398  51.384  1.00  0.00     0.086 C 
HETATM   13  C16 UNL     1      20.413   1.622  50.108  1.00  0.00    -0.003 C 
HETATM   14  C17 UNL     1      21.802   2.138  49.900  1.00  0.00     0.027 C 
HETATM   15  C18 UNL     1      22.546   2.502  48.833  1.00  0.00    -0.022 C 
HETATM   16  C19 UNL     1      22.429   2.539  47.335  1.00  0.00     0.017 C 
HETATM   17  H17 UNL     1      20.897   2.186  53.420  1.00  0.00     0.166 HD
ENDROOT
BRANCH   1  18
HETATM   18  C5  UNL     1      24.351   4.254  49.104  1.00  0.00     0.009 C 
BRANCH  18  19
HETATM   19  C4  UNL     1      25.568   4.729  49.812  1.00  0.00     0.018 C 
BRANCH  19  20
HETATM   20  C3  UNL     1      26.803   4.071  49.246  1.00  0.00     0.066 C 
BRANCH  20  21
HETATM   21  C2  UNL     1      27.688   4.844  48.641  1.00  0.00    -0.176 C 
HETATM   22  C1  UNL     1      28.589   5.742  48.279  1.00  0.00     0.091 C 
ENDBRANCH  20  21
ENDBRANCH  19  20
ENDBRANCH  18  19
ENDBRANCH   1  18
BRANCH   6  23
HETATM   23  C11 UNL     1      24.939  -0.647  54.268  1.00  0.00     0.056 C 
HETATM   24  C12 UNL     1      25.933  -0.133  54.924  1.00  0.00     0.133 C 
BRANCH  24  25
HETATM   25  O2  UNL     1      27.306  -0.308  54.956  1.00  0.00    -0.373 OA
HETATM   26  H15 UNL     1      27.894   0.476  55.284  1.00  0.00     0.216 HD
ENDBRANCH  24  25
ENDBRANCH   6  23
TORSDOF 6
ENDMDL
MODEL 3
REMARK VINA RESULT:      -7.8      2.887      6.234
REMARK  6 active torsions:
REMARK  status: ('A' for Active; 'I' for Inactive)
REMARK    1  A    between atoms: C2_2  and  C3_3 
REMARK    2  A    between atoms: C3_3  and  C4_4 
REMARK    3  A    between atoms: C4_4  and  C5_5 
REMARK    4  A    between atoms: C5_5  and  C6_6 
REMARK    5  A    between atoms: C10_11  and  C11_12 
REMARK    6  A    between atoms: C12_13  and  O2_14 
ROOT
HETATM    1  C6  UNL     1      24.213   1.072  52.716  1.00  0.00     0.019 C 
HETATM    2  C7  UNL     1      24.756   1.759  51.465  1.00  0.00     0.173 C 
HETATM    3  O1  UNL     1      23.907   2.678  50.899  1.00  0.00    -0.386 OA
HETATM    4  C8  UNL     1      24.625   3.203  49.778  1.00  0.00     0.212 C 
HETATM    5  C9  UNL     1      23.814   4.132  49.018  1.00  0.00     0.040 A 
HETATM    6  C10 UNL     1      23.962   5.457  48.869  1.00  0.00     0.072 A 
HETATM    7  N1  UNL     1      23.071   6.071  48.100  1.00  0.00    -0.241 NA
HETATM    8  C13 UNL     1      22.065   5.434  47.496  1.00  0.00     0.235 A 
HETATM    9  N2  UNL     1      21.968   4.119  47.681  1.00  0.00    -0.224 NA
HETATM   10  C14 UNL     1      22.811   3.434  48.427  1.00  0.00     0.139 A 
HETATM   11  N3  UNL     1      22.529   2.017  48.506  1.00  0.00    -0.351 N 
HETATM   12  C15 UNL     1      21.504   1.377  49.254  1.00  0.00     0.086 C 
HETATM   13  C16 UNL     1      21.309   0.865  50.457  1.00  0.00    -0.003 C 
HETATM   14  C17 UNL     1      22.520   0.979  51.328  1.00  0.00     0.027 C 
HETATM   15  C18 UNL     1      22.833   0.634  52.595  1.00  0.00    -0.022 C 
HETATM   16  C19 UNL     1      22.164   0.031  53.799  1.00  0.00     0.017 C 
HETATM   17  H17 UNL     1      23.310   1.764  47.867  1.00  0.00     0.166 HD
ENDROOT
BRANCH   1  18
HETATM   18  C5  UNL     1      25.228   0.075  53.187  1.00  0.00     0.009 C 
BRANCH  18  19
HETATM   19  C4  UNL     1      26.406  -0.208  52.326  1.00  0.00     0.018 C 
BRANCH  19  20
HETATM   20  C3  UNL     1      27.271  -1.279  52.946  1.00  0.00     0.066 C 
BRANCH  20  21
HETATM   21  C2  UNL     1      28.511  -0.955  53.271  1.00  0.00    -0.176 C 
HETATM   22  C1  UNL     1      29.795  -0.901  53.579  1.00  0.00     0.091 C 
ENDBRANCH  20  21
ENDBRANCH  19  20
ENDBRANCH  18  19
ENDBRANCH   1  18
BRANCH   6  23
HETATM   23  C11 UNL     1      25.011   6.184  49.493  1.00  0.00     0.056 C 
HETATM   24  C12 UNL     1      25.246   7.104  50.377  1.00  0.00     0.133 C 
BRANCH  24  25
HETATM   25  O2  UNL     1      26.368   7.729  50.895  1.00  0.00    -0.373 OA
HETATM   26  H15 UNL     1      26.796   8.496  50.352  1.00  0.00     0.216 HD
ENDBRANCH  24  25
ENDBRANCH   6  23
TORSDOF 6
ENDMDL
MODEL 4
REMARK VINA RESULT:      -7.8      2.667      5.918
REMARK  6 active torsions:
REMARK  status: ('A' for Active; 'I' for Inactive)
REMARK    1  A    between atoms: C2_2  and  C3_3 
REMARK    2  A    between atoms: C3_3  and  C4_4 
REMARK    3  A    between atoms: C4_4  and  C5_5 
REMARK    4  A    between atoms: C5_5  and  C6_6 
REMARK    5  A    between atoms: C10_11  and  C11_12 
REMARK    6  A    between atoms: C12_13  and  O2_14 
ROOT
HETATM    1  C6  UNL     1      24.286   0.623  53.157  1.00  0.00     0.019 C 
HETATM    2  C7  UNL     1      24.731   1.393  51.916  1.00  0.00     0.173 C 
HETATM    3  O1  UNL     1      23.823   2.313  51.453  1.00  0.00    -0.386 OA
HETATM    4  C8  UNL     1      24.456   2.920  50.322  1.00  0.00     0.212 C 
HETATM    5  C9  UNL     1      23.572   3.861  49.663  1.00  0.00     0.040 A 
HETATM    6  C10 UNL     1      23.674   5.196  49.578  1.00  0.00     0.072 A 
HETATM    7  N1  UNL     1      22.719   5.821  48.899  1.00  0.00    -0.241 NA
HETATM    8  C13 UNL     1      21.697   5.186  48.322  1.00  0.00     0.235 A 
HETATM    9  N2  UNL     1      21.650   3.860  48.440  1.00  0.00    -0.224 NA
HETATM   10  C14 UNL     1      22.556   3.164  49.096  1.00  0.00     0.139 A 
HETATM   11  N3  UNL     1      22.320   1.737  49.114  1.00  0.00    -0.351 N 
HETATM   12  C15 UNL     1      21.362   1.025  49.885  1.00  0.00     0.086 C 
HETATM   13  C16 UNL     1      21.255   0.445  51.069  1.00  0.00    -0.003 C 
HETATM   14  C17 UNL     1      22.514   0.550  51.870  1.00  0.00     0.027 C 
HETATM   15  C18 UNL     1      22.914   0.149  53.096  1.00  0.00    -0.022 C 
HETATM   16  C19 UNL     1      22.338  -0.538  54.303  1.00  0.00     0.017 C 
HETATM   17  H17 UNL     1      23.067   1.542  48.417  1.00  0.00     0.166 HD
ENDROOT
BRANCH   1  18
HETATM   18  C5  UNL     1      25.356  -0.364  53.512  1.00  0.00     0.009 C 
BRANCH  18  19
HETATM   19  C4  UNL     1      26.434  -0.635  52.526  1.00  0.00     0.018 C 
BRANCH  19  20
HETATM   20  C3  UNL     1      27.789  -0.358  53.132  1.00  0.00     0.066 C 
BRANCH  20  21
HETATM   21  C2  UNL     1      28.092   0.898  53.409  1.00  0.00    -0.176 C 
HETATM   22  C1  UNL     1      28.274   2.207  53.447  1.00  0.00     0.091 C 
ENDBRANCH  20  21
ENDBRANCH  19  20
ENDBRANCH  18  19
ENDBRANCH   1  18
BRANCH   6  23
HETATM   23  C11 UNL     1      24.738   5.922  50.177  1.00  0.00     0.056 C 
HETATM   24  C12 UNL     1      25.243   7.112  50.287  1.00  0.00     0.133 C 
BRANCH  24  25
HETATM   25  O2  UNL     1      26.327   7.682  50.933  1.00  0.00    -0.373 OA
HETATM   26  H15 UNL     1      27.186   7.118  51.041  1.00  0.00     0.216 HD
ENDBRANCH  24  25
ENDBRANCH   6  23
TORSDOF 6
ENDMDL
MODEL 5
REMARK VINA RESULT:      -7.6      2.400      4.474
REMARK  6 active torsions:
REMARK  status: ('A' for Active; 'I' for Inactive)
REMARK    1  A    between atoms: C2_2  and  C3_3 
REMARK    2  A    between atoms: C3_3  and  C4_4 
REMARK    3  A    between atoms: C4_4  and  C5_5 
REMARK    4  A    between atoms: C5_5  and  C6_6 
REMARK    5  A    between atoms: C10_11  and  C11_12 
REMARK    6  A    between atoms: C12_13  and  O2_14 
ROOT
HETATM    1  C6  UNL     1      21.729   2.552  51.985  1.00  0.00     0.019 C 
HETATM    2  C7  UNL     1      22.850   1.523  52.112  1.00  0.00     0.173 C 
HETATM    3  O1  UNL     1      24.029   2.015  52.616  1.00  0.00    -0.386 OA
HETATM    4  C8  UNL     1      24.908   0.887  52.670  1.00  0.00     0.212 C 
HETATM    5  C9  UNL     1      26.236   1.272  53.101  1.00  0.00     0.040 A 
HETATM    6  C10 UNL     1      26.876   0.964  54.240  1.00  0.00     0.072 A 
HETATM    7  N1  UNL     1      28.106   1.446  54.378  1.00  0.00    -0.241 NA
HETATM    8  C13 UNL     1      28.702   2.203  53.454  1.00  0.00     0.235 A 
HETATM    9  N2  UNL     1      28.017   2.475  52.344  1.00  0.00    -0.224 NA
HETATM   10  C14 UNL     1      26.794   2.036  52.129  1.00  0.00     0.139 A 
HETATM   11  N3  UNL     1      26.222   2.447  50.865  1.00  0.00    -0.351 N 
HETATM   12  C15 UNL     1      25.714   3.729  50.519  1.00  0.00     0.086 C 
HETATM   13  C16 UNL     1      24.578   4.405  50.561  1.00  0.00    -0.003 C 
HETATM   14  C17 UNL     1      23.460   3.603  51.149  1.00  0.00     0.027 C 
HETATM   15  C18 UNL     1      22.154   3.818  51.415  1.00  0.00    -0.022 C 
HETATM   16  C19 UNL     1      21.155   4.939  51.332  1.00  0.00     0.017 C 
HETATM   17  H17 UNL     1      26.345   1.509  50.433  1.00  0.00     0.166 HD
ENDROOT
BRANCH   1  18
HETATM   18  C5  UNL     1      20.533   1.877  51.387  1.00  0.00     0.009 C 
BRANCH  18  19
HETATM   19  C4  UNL     1      20.744   0.823  50.361  1.00  0.00     0.018 C 
BRANCH  19  20
HETATM   20  C3  UNL     1      20.487   1.370  48.977  1.00  0.00     0.066 C 
BRANCH  20  21
HETATM   21  C2  UNL     1      21.501   1.930  48.341  1.00  0.00    -0.176 C 
HETATM   22  C1  UNL     1      22.629   2.243  47.727  1.00  0.00     0.091 C 
ENDBRANCH  20  21
ENDBRANCH  19  20
ENDBRANCH  18  19
ENDBRANCH   1  18
BRANCH   6  23
HETATM   23  C11 UNL     1      26.287   0.167  55.257  1.00  0.00     0.056 C 
HETATM   24  C12 UNL     1      25.462  -0.815  55.452  1.00  0.00     0.133 C 
BRANCH  24  25
HETATM   25  O2  UNL     1      24.971  -1.506  56.547  1.00  0.00    -0.373 OA
HETATM   26  H15 UNL     1      24.775  -2.514  56.444  1.00  0.00     0.216 HD
ENDBRANCH  24  25
ENDBRANCH   6  23
TORSDOF 6
ENDMDL
MODEL 6
REMARK VINA RESULT:      -7.6      3.017      6.398
REMARK  6 active torsions:
REMARK  status: ('A' for Active; 'I' for Inactive)
REMARK    1  A    between atoms: C2_2  and  C3_3 
REMARK    2  A    between atoms: C3_3  and  C4_4 
REMARK    3  A    between atoms: C4_4  and  C5_5 
REMARK    4  A    between atoms: C5_5  and  C6_6 
REMARK    5  A    between atoms: C10_11  and  C11_12 
REMARK    6  A    between atoms: C12_13  and  O2_14 
ROOT
HETATM    1  C6  UNL     1      25.345   1.728  52.608  1.00  0.00     0.019 C 
HETATM    2  C7  UNL     1      25.735   2.668  51.470  1.00  0.00     0.173 C 
HETATM    3  O1  UNL     1      24.748   3.539  51.079  1.00  0.00    -0.386 OA
HETATM    4  C8  UNL     1      25.339   4.324  50.039  1.00  0.00     0.212 C 
HETATM    5  C9  UNL     1      24.378   5.239  49.457  1.00  0.00     0.040 A 
HETATM    6  C10 UNL     1      24.344   6.579  49.516  1.00  0.00     0.072 A 
HETATM    7  N1  UNL     1      23.346   7.177  48.878  1.00  0.00    -0.241 NA
HETATM    8  C13 UNL     1      22.406   6.510  48.204  1.00  0.00     0.235 A 
HETATM    9  N2  UNL     1      22.491   5.181  48.180  1.00  0.00    -0.224 NA
HETATM   10  C14 UNL     1      23.450   4.511  48.787  1.00  0.00     0.139 A 
HETATM   11  N3  UNL     1      23.360   3.074  48.646  1.00  0.00    -0.351 N 
HETATM   12  C15 UNL     1      22.463   2.191  49.307  1.00  0.00     0.086 C 
HETATM   13  C16 UNL     1      22.392   1.478  50.418  1.00  0.00    -0.003 C 
HETATM   14  C17 UNL     1      23.617   1.620  51.265  1.00  0.00     0.027 C 
HETATM   15  C18 UNL     1      24.030   1.130  52.454  1.00  0.00    -0.022 C 
HETATM   16  C19 UNL     1      23.502   0.262  53.562  1.00  0.00     0.017 C 
HETATM   17  H17 UNL     1      24.137   3.032  47.956  1.00  0.00     0.166 HD
ENDROOT
BRANCH   1  18
HETATM   18  C5  UNL     1      26.503   0.819  52.889  1.00  0.00     0.009 C 
BRANCH  18  19
HETATM   19  C4  UNL     1      26.664  -0.408  52.068  1.00  0.00     0.018 C 
BRANCH  19  20
HETATM   20  C3  UNL     1      27.447  -1.454  52.825  1.00  0.00     0.066 C 
BRANCH  20  21
HETATM   21  C2  UNL     1      28.661  -1.134  53.237  1.00  0.00    -0.176 C 
HETATM   22  C1  UNL     1      29.893  -1.079  53.714  1.00  0.00     0.091 C 
ENDBRANCH  20  21
ENDBRANCH  19  20
ENDBRANCH  18  19
ENDBRANCH   1  18
BRANCH   6  23
HETATM   23  C11 UNL     1      25.316   7.338  50.222  1.00  0.00     0.056 C 
HETATM   24  C12 UNL     1      26.423   7.997  50.069  1.00  0.00     0.133 C 
BRANCH  24  25
HETATM   25  O2  UNL     1      27.283   8.710  50.886  1.00  0.00    -0.373 OA
HETATM   26  H15 UNL     1      26.967   9.621  51.257  1.00  0.00     0.216 HD
ENDBRANCH  24  25
ENDBRANCH   6  23
TORSDOF 6
ENDMDL
MODEL 7
REMARK VINA RESULT:      -7.4      2.558      5.250
REMARK  6 active torsions:
REMARK  status: ('A' for Active; 'I' for Inactive)
REMARK    1  A    between atoms: C2_2  and  C3_3 
REMARK    2  A    between atoms: C3_3  and  C4_4 
REMARK    3  A    between atoms: C4_4  and  C5_5 
REMARK    4  A    between atoms: C5_5  and  C6_6 
REMARK    5  A    between atoms: C10_11  and  C11_12 
REMARK    6  A    between atoms: C12_13  and  O2_14 
ROOT
HETATM    1  C6  UNL     1      21.916   2.213  51.597  1.00  0.00     0.019 C 
HETATM    2  C7  UNL     1      23.089   1.249  51.756  1.00  0.00     0.173 C 
HETATM    3  O1  UNL     1      24.190   1.781  52.381  1.00  0.00    -0.386 OA
HETATM    4  C8  UNL     1      25.135   0.708  52.441  1.00  0.00     0.212 C 
HETATM    5  C9  UNL     1      26.397   1.146  53.002  1.00  0.00     0.040 A 
HETATM    6  C10 UNL     1      26.966   0.807  54.169  1.00  0.00     0.072 A 
HETATM    7  N1  UNL     1      28.146   1.354  54.435  1.00  0.00    -0.241 NA
HETATM    8  C13 UNL     1      28.761   2.203  53.608  1.00  0.00     0.235 A 
HETATM    9  N2  UNL     1      28.148   2.502  52.464  1.00  0.00    -0.224 NA
HETATM   10  C14 UNL     1      26.977   2.002  52.124  1.00  0.00     0.139 A 
HETATM   11  N3  UNL     1      26.479   2.457  50.844  1.00  0.00    -0.351 N 
HETATM   12  C15 UNL     1      25.916   3.724  50.532  1.00  0.00     0.086 C 
HETATM   13  C16 UNL     1      24.737   4.325  50.521  1.00  0.00    -0.003 C 
HETATM   14  C17 UNL     1      23.633   3.419  50.968  1.00  0.00     0.027 C 
HETATM   15  C18 UNL     1      22.299   3.537  51.138  1.00  0.00    -0.022 C 
HETATM   16  C19 UNL     1      21.237   4.597  51.039  1.00  0.00     0.017 C 
HETATM   17  H17 UNL     1      26.698   1.558  50.370  1.00  0.00     0.166 HD
ENDROOT
BRANCH   1  18
HETATM   18  C5  UNL     1      20.817   1.505  50.865  1.00  0.00     0.009 C 
BRANCH  18  19
HETATM   19  C4  UNL     1      19.485   1.389  51.513  1.00  0.00     0.018 C 
BRANCH  19  20
HETATM   20  C3  UNL     1      19.299   0.010  52.100  1.00  0.00     0.066 C 
BRANCH  20  21
HETATM   21  C2  UNL     1      20.012  -0.304  53.167  1.00  0.00    -0.176 C 
HETATM   22  C1  UNL     1      20.820  -0.363  54.212  1.00  0.00     0.091 C 
ENDBRANCH  20  21
ENDBRANCH  19  20
ENDBRANCH  18  19
ENDBRANCH   1  18
BRANCH   6  23
HETATM   23  C11 UNL     1      26.353  -0.088  55.087  1.00  0.00     0.056 C 
HETATM   24  C12 UNL     1      25.247  -0.720  55.331  1.00  0.00     0.133 C 
BRANCH  24  25
HETATM   25  O2  UNL     1      24.787  -1.590  56.305  1.00  0.00    -0.373 OA
HETATM   26  H15 UNL     1      25.338  -1.692  57.172  1.00  0.00     0.216 HD
ENDBRANCH  24  25
ENDBRANCH   6  23
TORSDOF 6
ENDMDL
MODEL 8
REMARK VINA RESULT:      -7.1      3.323      6.412
REMARK  6 active torsions:
REMARK  status: ('A' for Active; 'I' for Inactive)
REMARK    1  A    between atoms: C2_2  and  C3_3 
REMARK    2  A    between atoms: C3_3  and  C4_4 
REMARK    3  A    between atoms: C4_4  and  C5_5 
REMARK    4  A    between atoms: C5_5  and  C6_6 
REMARK    5  A    between atoms: C10_11  and  C11_12 
REMARK    6  A    between atoms: C12_13  and  O2_14 
ROOT
HETATM    1  C6  UNL     1      23.019   0.336  53.380  1.00  0.00     0.019 C 
HETATM    2  C7  UNL     1      23.244   1.310  52.226  1.00  0.00     0.173 C 
HETATM    3  O1  UNL     1      22.221   2.204  52.021  1.00  0.00    -0.386 OA
HETATM    4  C8  UNL     1      22.657   3.018  50.928  1.00  0.00     0.212 C 
HETATM    5  C9  UNL     1      21.632   3.963  50.531  1.00  0.00     0.040 A 
HETATM    6  C10 UNL     1      21.629   5.300  50.639  1.00  0.00     0.072 A 
HETATM    7  N1  UNL     1      20.553   5.930  50.182  1.00  0.00    -0.241 NA
HETATM    8  C13 UNL     1      19.510   5.296  49.641  1.00  0.00     0.235 A 
HETATM    9  N2  UNL     1      19.570   3.968  49.562  1.00  0.00    -0.224 NA
HETATM   10  C14 UNL     1      20.600   3.267  49.991  1.00  0.00     0.139 A 
HETATM   11  N3  UNL     1      20.467   1.837  49.819  1.00  0.00    -0.351 N 
HETATM   12  C15 UNL     1      19.670   0.942  50.582  1.00  0.00     0.086 C 
HETATM   13  C16 UNL     1      19.760   0.192  51.667  1.00  0.00    -0.003 C 
HETATM   14  C17 UNL     1      21.103   0.292  52.319  1.00  0.00     0.027 C 
HETATM   15  C18 UNL     1      21.687  -0.243  53.412  1.00  0.00    -0.022 C 
HETATM   16  C19 UNL     1      21.323  -1.142  54.561  1.00  0.00     0.017 C 
HETATM   17  H17 UNL     1      21.128   1.810  49.016  1.00  0.00     0.166 HD
ENDROOT
BRANCH   1  18
HETATM   18  C5  UNL     1      24.192  -0.594  53.450  1.00  0.00     0.009 C 
BRANCH  18  19
HETATM   19  C4  UNL     1      25.337  -0.237  54.327  1.00  0.00     0.018 C 
BRANCH  19  20
HETATM   20  C3  UNL     1      26.611  -0.140  53.524  1.00  0.00     0.066 C 
BRANCH  20  21
HETATM   21  C2  UNL     1      27.015  -1.220  52.879  1.00  0.00    -0.176 C 
HETATM   22  C1  UNL     1      27.291  -2.434  52.436  1.00  0.00     0.091 C 
ENDBRANCH  20  21
ENDBRANCH  19  20
ENDBRANCH  18  19
ENDBRANCH   1  18
BRANCH   6  23
HETATM   23  C11 UNL     1      22.710   6.024  51.210  1.00  0.00     0.056 C 
HETATM   24  C12 UNL     1      23.891   6.493  50.949  1.00  0.00     0.133 C 
BRANCH  24  25
HETATM   25  O2  UNL     1      24.858   7.206  51.638  1.00  0.00    -0.373 OA
HETATM   26  H15 UNL     1      25.847   6.935  51.516  1.00  0.00     0.216 HD
ENDBRANCH  24  25
ENDBRANCH   6  23
TORSDOF 6
ENDMDL
MODEL 9
REMARK VINA RESULT:      -7.0      2.892      5.137
REMARK  6 active torsions:
REMARK  status: ('A' for Active; 'I' for Inactive)
REMARK    1  A    between atoms: C2_2  and  C3_3 
REMARK    2  A    between atoms: C3_3  and  C4_4 
REMARK    3  A    between atoms: C4_4  and  C5_5 
REMARK    4  A    between atoms: C5_5  and  C6_6 
REMARK    5  A    between atoms: C10_11  and  C11_12 
REMARK    6  A    between atoms: C12_13  and  O2_14 
ROOT
HETATM    1  C6  UNL     1      20.437   1.655  52.008  1.00  0.00     0.019 C 
HETATM    2  C7  UNL     1      21.827   2.024  52.520  1.00  0.00     0.173 C 
HETATM    3  O1  UNL     1      22.776   1.043  52.367  1.00  0.00    -0.386 OA
HETATM    4  C8  UNL     1      23.983   1.613  52.882  1.00  0.00     0.212 C 
HETATM    5  C9  UNL     1      25.068   0.653  52.872  1.00  0.00     0.040 A 
HETATM    6  C10 UNL     1      26.188   0.651  52.133  1.00  0.00     0.072 A 
HETATM    7  N1  UNL     1      27.029  -0.357  52.333  1.00  0.00    -0.241 NA
HETATM    8  C13 UNL     1      26.802  -1.335  53.212  1.00  0.00     0.235 A 
HETATM    9  N2  UNL     1      25.673  -1.280  53.917  1.00  0.00    -0.224 NA
HETATM   10  C14 UNL     1      24.786  -0.315  53.781  1.00  0.00     0.139 A 
HETATM   11  N3  UNL     1      23.625  -0.442  54.634  1.00  0.00    -0.351 N 
HETATM   12  C15 UNL     1      22.528  -1.333  54.481  1.00  0.00     0.086 C 
HETATM   13  C16 UNL     1      21.347  -1.380  53.890  1.00  0.00    -0.003 C 
HETATM   14  C17 UNL     1      21.034  -0.123  53.142  1.00  0.00     0.027 C 
HETATM   15  C18 UNL     1      20.004   0.322  52.391  1.00  0.00    -0.022 C 
HETATM   16  C19 UNL     1      18.690  -0.184  51.862  1.00  0.00     0.017 C 
HETATM   17  H17 UNL     1      23.942   0.309  55.281  1.00  0.00     0.166 HD
ENDROOT
BRANCH   1  18
HETATM   18  C5  UNL     1      19.512   2.801  52.281  1.00  0.00     0.009 C 
BRANCH  18  19
HETATM   19  C4  UNL     1      19.146   3.707  51.162  1.00  0.00     0.018 C 
BRANCH  19  20
HETATM   20  C3  UNL     1      17.670   4.027  51.199  1.00  0.00     0.066 C 
BRANCH  20  21
HETATM   21  C2  UNL     1      16.844   3.070  51.582  1.00  0.00    -0.176 C 
HETATM   22  C1  UNL     1      15.846   2.226  51.784  1.00  0.00     0.091 C 
ENDBRANCH  20  21
ENDBRANCH  19  20
ENDBRANCH  18  19
ENDBRANCH   1  18
BRANCH   6  23
HETATM   23  C11 UNL     1      26.477   1.664  51.180  1.00  0.00     0.056 C 
HETATM   24  C12 UNL     1      26.793   2.917  51.069  1.00  0.00     0.133 C 
BRANCH  24  25
HETATM   25  O2  UNL     1      27.051   3.795  50.029  1.00  0.00    -0.373 OA
HETATM   26  H15 UNL     1      27.269   3.403  49.099  1.00  0.00     0.216 HD
ENDBRANCH  24  25
ENDBRANCH   6  23
TORSDOF 6
ENDMDL
