MODEL 1
REMARK VINA RESULT:      -7.9      0.000      0.000
REMARK  5 active torsions:
REMARK  status: ('A' for Active; 'I' for Inactive)
REMARK    1  A    between atoms: S1_2  and  N1_5 
REMARK    2  A    between atoms: N1_5  and  C2_6 
REMARK    3  A    between atoms: C10_15  and  C11_16 
REMARK    4  A    between atoms: C10_15  and  N4_18 
REMARK    5  A    between atoms: C11_16  and  N3_17 
ROOT
HETATM    1  C2  UNL     1      25.791   1.007  51.961  1.00  0.00     0.043 A 
HETATM    2  C3  UNL     1      24.412   1.117  51.968  1.00  0.00     0.033 A 
HETATM    3  C4  UNL     1      23.774   2.064  51.196  1.00  0.00     0.039 A 
HETATM    4  C5  UNL     1      24.468   2.941  50.385  1.00  0.00     0.077 A 
HETATM    5  C6  UNL     1      25.833   2.848  50.365  1.00  0.00    -0.005 A 
HETATM    6  C7  UNL     1      26.481   1.899  51.138  1.00  0.00     0.041 A 
HETATM    7  C8  UNL     1      26.789   3.676  49.577  1.00  0.00     0.161 C 
HETATM    8  N2  UNL     1      26.352   5.077  49.653  1.00  0.00    -0.385 N 
HETATM    9  C9  UNL     1      25.169   5.615  49.075  1.00  0.00     0.054 C 
HETATM   10  C10 UNL     1      25.223   6.903  48.775  1.00  0.00     0.068 C 
HETATM   11  C17 UNL     1      23.934   4.876  48.796  1.00  0.00     0.234 C 
HETATM   12  O3  UNL     1      23.663   3.816  49.687  1.00  0.00    -0.345 OA
HETATM   13  H10 UNL     1      26.966   5.739  50.179  1.00  0.00     0.159 HD
ENDROOT
BRANCH  10  14
HETATM   14  C11 UNL     1      24.246   7.847  48.172  1.00  0.00     0.326 C 
BRANCH  14  15
HETATM   15  N3  UNL     1      24.258   7.839  46.728  1.00  0.00     0.083 N 
HETATM   16  H13 UNL     1      24.929   7.175  46.319  1.00  0.00     0.313 HD
HETATM   17  H14 UNL     1      24.278   8.798  46.339  1.00  0.00     0.313 HD
ENDBRANCH  14  15
ENDBRANCH  10  14
BRANCH  10  18
HETATM   18  N4  UNL     1      26.370   7.671  49.013  1.00  0.00    -0.332 N 
HETATM   19  C12 UNL     1      26.449   8.631  50.055  1.00  0.00     0.092 A 
HETATM   20  C13 UNL     1      27.586   9.279  50.163  1.00  0.00    -0.004 A 
HETATM   21  C14 UNL     1      28.813   9.148  49.338  1.00  0.00     0.076 A 
HETATM   22  C15 UNL     1      28.589   8.115  48.293  1.00  0.00     0.008 A 
HETATM   23 BR1  UNL     1      30.058   7.779  47.103  1.00  0.00    -0.054 Br
HETATM   24  C16 UNL     1      27.457   7.420  48.130  1.00  0.00     0.111 A 
ENDBRANCH  10  18
BRANCH   1  25
HETATM   25  N1  UNL     1      26.619   0.117  52.671  1.00  0.00    -0.285 N 
HETATM   26  H4  UNL     1      26.998  -0.738  52.165  1.00  0.00     0.178 HD
BRANCH  25  27
HETATM   27  S1  UNL     1      27.053   0.334  54.317  1.00  0.00     0.227 S 
HETATM   28  C1  UNL     1      28.750   0.015  54.632  1.00  0.00     0.186 C 
HETATM   29  O1  UNL     1      26.197  -0.486  55.217  1.00  0.00    -0.206 OA
HETATM   30  O2  UNL     1      26.793   1.786  54.645  1.00  0.00    -0.206 OA
ENDBRANCH  25  27
ENDBRANCH   1  25
TORSDOF 5
ENDMDL
MODEL 2
REMARK VINA RESULT:      -7.6      1.278      1.321
REMARK  5 active torsions:
REMARK  status: ('A' for Active; 'I' for Inactive)
REMARK    1  A    between atoms: S1_2  and  N1_5 
REMARK    2  A    between atoms: N1_5  and  C2_6 
REMARK    3  A    between atoms: C10_15  and  C11_16 
REMARK    4  A    between atoms: C10_15  and  N4_18 
REMARK    5  A    between atoms: C11_16  and  N3_17 
ROOT
HETATM    1  C2  UNL     1      26.291   1.177  52.222  1.00  0.00     0.043 A 
HETATM    2  C3  UNL     1      25.083   1.397  52.859  1.00  0.00     0.033 A 
HETATM    3  C4  UNL     1      24.265   2.441  52.483  1.00  0.00     0.039 A 
HETATM    4  C5  UNL     1      24.603   3.310  51.464  1.00  0.00     0.077 A 
HETATM    5  C6  UNL     1      25.795   3.108  50.822  1.00  0.00    -0.005 A 
HETATM    6  C7  UNL     1      26.622   2.062  51.194  1.00  0.00     0.041 A 
HETATM    7  C8  UNL     1      26.370   3.907  49.704  1.00  0.00     0.161 C 
HETATM    8  N2  UNL     1      26.160   5.331  50.001  1.00  0.00    -0.385 N 
HETATM    9  C9  UNL     1      24.905   5.999  50.037  1.00  0.00     0.054 C 
HETATM   10  C10 UNL     1      24.948   7.296  49.773  1.00  0.00     0.068 C 
HETATM   11  C17 UNL     1      23.609   5.382  50.336  1.00  0.00     0.234 C 
HETATM   12  O3  UNL     1      23.664   4.291  51.229  1.00  0.00    -0.345 OA
HETATM   13  H10 UNL     1      27.009   5.906  50.203  1.00  0.00     0.159 HD
ENDROOT
BRANCH  10  14
HETATM   14  C11 UNL     1      23.905   8.353  49.703  1.00  0.00     0.326 C 
BRANCH  14  15
HETATM   15  N3  UNL     1      23.192   8.370  48.447  1.00  0.00     0.083 N 
HETATM   16  H13 UNL     1      22.450   7.661  48.377  1.00  0.00     0.313 HD
HETATM   17  H14 UNL     1      23.837   8.429  47.641  1.00  0.00     0.313 HD
ENDBRANCH  14  15
ENDBRANCH  10  14
BRANCH  10  18
HETATM   18  N4  UNL     1      26.150   7.951  49.480  1.00  0.00    -0.332 N 
HETATM   19  C12 UNL     1      26.827   8.772  50.419  1.00  0.00     0.092 A 
HETATM   20  C13 UNL     1      27.945   9.326  50.007  1.00  0.00    -0.004 A 
HETATM   21  C14 UNL     1      28.606   9.212  48.684  1.00  0.00     0.076 A 
HETATM   22  C15 UNL     1      27.793   8.330  47.806  1.00  0.00     0.008 A 
HETATM   23 BR1  UNL     1      28.467   8.042  46.032  1.00  0.00    -0.054 Br
HETATM   24  C16 UNL     1      26.648   7.737  48.164  1.00  0.00     0.111 A 
ENDBRANCH  10  18
BRANCH   1  25
HETATM   25  N1  UNL     1      27.255   0.178  52.456  1.00  0.00    -0.285 N 
HETATM   26  H4  UNL     1      27.452  -0.530  51.687  1.00  0.00     0.178 HD
BRANCH  25  27
HETATM   27  S1  UNL     1      28.136   0.036  53.922  1.00  0.00     0.227 S 
HETATM   28  C1  UNL     1      29.091   1.459  54.295  1.00  0.00     0.186 C 
HETATM   29  O1  UNL     1      28.995  -1.179  53.923  1.00  0.00    -0.206 OA
HETATM   30  O2  UNL     1      27.116  -0.131  55.025  1.00  0.00    -0.206 OA
ENDBRANCH  25  27
ENDBRANCH   1  25
TORSDOF 5
ENDMDL
MODEL 3
REMARK VINA RESULT:      -7.3      3.135      4.610
REMARK  5 active torsions:
REMARK  status: ('A' for Active; 'I' for Inactive)
REMARK    1  A    between atoms: S1_2  and  N1_5 
REMARK    2  A    between atoms: N1_5  and  C2_6 
REMARK    3  A    between atoms: C10_15  and  C11_16 
REMARK    4  A    between atoms: C10_15  and  N4_18 
REMARK    5  A    between atoms: C11_16  and  N3_17 
ROOT
HETATM    1  C2  UNL     1      24.442   4.583  50.593  1.00  0.00     0.043 A 
HETATM    2  C3  UNL     1      24.096   5.774  51.207  1.00  0.00     0.033 A 
HETATM    3  C4  UNL     1      24.763   6.942  50.910  1.00  0.00     0.039 A 
HETATM    4  C5  UNL     1      25.797   6.987  49.995  1.00  0.00     0.077 A 
HETATM    5  C6  UNL     1      26.154   5.819  49.378  1.00  0.00    -0.005 A 
HETATM    6  C7  UNL     1      25.489   4.641  49.672  1.00  0.00     0.041 A 
HETATM    7  C8  UNL     1      27.229   5.618  48.366  1.00  0.00     0.161 C 
HETATM    8  N2  UNL     1      28.413   6.376  48.797  1.00  0.00    -0.385 N 
HETATM    9  C9  UNL     1      28.520   7.793  48.856  1.00  0.00     0.054 C 
HETATM   10  C10 UNL     1      29.747   8.272  48.726  1.00  0.00     0.068 C 
HETATM   11  C17 UNL     1      27.411   8.733  49.047  1.00  0.00     0.234 C 
HETATM   12  O3  UNL     1      26.344   8.241  49.827  1.00  0.00    -0.345 OA
HETATM   13  H10 UNL     1      29.252   5.824  49.085  1.00  0.00     0.159 HD
ENDROOT
BRANCH  10  14
HETATM   14  C11 UNL     1      30.304   9.650  48.726  1.00  0.00     0.326 C 
BRANCH  14  15
HETATM   15  N3  UNL     1      30.540  10.171  50.053  1.00  0.00     0.083 N 
HETATM   16  H13 UNL     1      30.483  11.196  50.116  1.00  0.00     0.313 HD
HETATM   17  H14 UNL     1      31.370   9.737  50.493  1.00  0.00     0.313 HD
ENDBRANCH  14  15
ENDBRANCH  10  14
BRANCH  10  18
HETATM   18  N4  UNL     1      30.853   7.433  48.541  1.00  0.00    -0.332 N 
HETATM   19  C12 UNL     1      31.543   6.823  49.621  1.00  0.00     0.092 A 
HETATM   20  C13 UNL     1      32.564   6.060  49.301  1.00  0.00    -0.004 A 
HETATM   21  C14 UNL     1      33.101   5.744  47.954  1.00  0.00     0.076 A 
HETATM   22  C15 UNL     1      32.288   6.444  46.927  1.00  0.00     0.008 A 
HETATM   23 BR1  UNL     1      32.810   6.173  45.100  1.00  0.00    -0.054 Br
HETATM   24  C16 UNL     1      31.238   7.234  47.186  1.00  0.00     0.111 A 
ENDBRANCH  10  18
BRANCH   1  25
HETATM   25  N1  UNL     1      23.889   3.299  50.760  1.00  0.00    -0.285 N 
HETATM   26  H4  UNL     1      23.114   2.989  50.100  1.00  0.00     0.178 HD
BRANCH  25  27
HETATM   27  S1  UNL     1      24.396   2.199  51.975  1.00  0.00     0.227 S 
HETATM   28  C1  UNL     1      26.034   1.617  51.742  1.00  0.00     0.186 C 
HETATM   29  O1  UNL     1      23.452   1.054  52.099  1.00  0.00    -0.206 OA
HETATM   30  O2  UNL     1      24.362   2.955  53.284  1.00  0.00    -0.206 OA
ENDBRANCH  25  27
ENDBRANCH   1  25
TORSDOF 5
ENDMDL
MODEL 4
REMARK VINA RESULT:      -7.2      1.836      2.190
REMARK  5 active torsions:
REMARK  status: ('A' for Active; 'I' for Inactive)
REMARK    1  A    between atoms: S1_2  and  N1_5 
REMARK    2  A    between atoms: N1_5  and  C2_6 
REMARK    3  A    between atoms: C10_15  and  C11_16 
REMARK    4  A    between atoms: C10_15  and  N4_18 
REMARK    5  A    between atoms: C11_16  and  N3_17 
ROOT
HETATM    1  C2  UNL     1      26.396   1.401  52.607  1.00  0.00     0.043 A 
HETATM    2  C3  UNL     1      25.497   1.765  53.594  1.00  0.00     0.033 A 
HETATM    3  C4  UNL     1      24.536   2.722  53.356  1.00  0.00     0.039 A 
HETATM    4  C5  UNL     1      24.419   3.361  52.137  1.00  0.00     0.077 A 
HETATM    5  C6  UNL     1      25.300   3.015  51.148  1.00  0.00    -0.005 A 
HETATM    6  C7  UNL     1      26.268   2.053  51.379  1.00  0.00     0.041 A 
HETATM    7  C8  UNL     1      25.370   3.561  49.764  1.00  0.00     0.161 C 
HETATM    8  N2  UNL     1      25.197   5.019  49.835  1.00  0.00    -0.385 N 
HETATM    9  C9  UNL     1      24.005   5.699  50.208  1.00  0.00     0.054 C 
HETATM   10  C10 UNL     1      23.867   6.915  49.701  1.00  0.00     0.068 C 
HETATM   11  C17 UNL     1      22.952   5.176  51.084  1.00  0.00     0.234 C 
HETATM   12  O3  UNL     1      23.400   4.288  52.085  1.00  0.00    -0.345 OA
HETATM   13  H10 UNL     1      26.023   5.609  49.589  1.00  0.00     0.159 HD
ENDROOT
BRANCH  10  14
HETATM   14  C11 UNL     1      22.809   7.951  49.823  1.00  0.00     0.326 C 
BRANCH  14  15
HETATM   15  N3  UNL     1      21.658   7.695  48.987  1.00  0.00     0.083 N 
HETATM   16  H13 UNL     1      20.758   7.888  49.444  1.00  0.00     0.313 HD
HETATM   17  H14 UNL     1      21.733   6.784  48.501  1.00  0.00     0.313 HD
ENDBRANCH  14  15
ENDBRANCH  10  14
BRANCH  10  18
HETATM   18  N4  UNL     1      24.832   7.478  48.858  1.00  0.00    -0.332 N 
HETATM   19  C12 UNL     1      24.744   7.421  47.442  1.00  0.00     0.092 A 
HETATM   20  C13 UNL     1      25.721   7.992  46.775  1.00  0.00    -0.004 A 
HETATM   21  C14 UNL     1      26.917   8.696  47.300  1.00  0.00     0.076 A 
HETATM   22  C15 UNL     1      26.879   8.680  48.786  1.00  0.00     0.008 A 
HETATM   23 BR1  UNL     1      28.342   9.542  49.682  1.00  0.00    -0.054 Br
HETATM   24  C16 UNL     1      25.915   8.117  49.524  1.00  0.00     0.111 A 
ENDBRANCH  10  18
BRANCH   1  25
HETATM   25  N1  UNL     1      27.439   0.456  52.653  1.00  0.00    -0.285 N 
HETATM   26  H4  UNL     1      27.599  -0.166  51.805  1.00  0.00     0.178 HD
BRANCH  25  27
HETATM   27  S1  UNL     1      28.472   0.249  54.007  1.00  0.00     0.227 S 
HETATM   28  C1  UNL     1      29.945  -0.624  53.626  1.00  0.00     0.186 C 
HETATM   29  O1  UNL     1      27.760  -0.407  55.138  1.00  0.00    -0.206 OA
HETATM   30  O2  UNL     1      28.867   1.634  54.465  1.00  0.00    -0.206 OA
ENDBRANCH  25  27
ENDBRANCH   1  25
TORSDOF 5
ENDMDL
MODEL 5
REMARK VINA RESULT:      -7.2      4.141      5.288
REMARK  5 active torsions:
REMARK  status: ('A' for Active; 'I' for Inactive)
REMARK    1  A    between atoms: S1_2  and  N1_5 
REMARK    2  A    between atoms: N1_5  and  C2_6 
REMARK    3  A    between atoms: C10_15  and  C11_16 
REMARK    4  A    between atoms: C10_15  and  N4_18 
REMARK    5  A    between atoms: C11_16  and  N3_17 
ROOT
HETATM    1  C2  UNL     1      24.370  -0.583  54.118  1.00  0.00     0.043 A 
HETATM    2  C3  UNL     1      23.213  -0.843  54.829  1.00  0.00     0.033 A 
HETATM    3  C4  UNL     1      21.993  -0.376  54.391  1.00  0.00     0.039 A 
HETATM    4  C5  UNL     1      21.863   0.366  53.233  1.00  0.00     0.077 A 
HETATM    5  C6  UNL     1      22.997   0.634  52.516  1.00  0.00    -0.005 A 
HETATM    6  C7  UNL     1      24.226   0.168  52.950  1.00  0.00     0.041 A 
HETATM    7  C8  UNL     1      23.108   1.408  51.247  1.00  0.00     0.161 C 
HETATM    8  N2  UNL     1      22.256   2.600  51.361  1.00  0.00    -0.385 N 
HETATM    9  C9  UNL     1      20.835   2.607  51.422  1.00  0.00     0.054 C 
HETATM   10  C10 UNL     1      20.256   3.712  50.977  1.00  0.00     0.068 C 
HETATM   11  C17 UNL     1      19.989   1.521  51.925  1.00  0.00     0.234 C 
HETATM   12  O3  UNL     1      20.567   0.746  52.953  1.00  0.00    -0.345 OA
HETATM   13  H10 UNL     1      22.736   3.527  51.400  1.00  0.00     0.159 HD
ENDROOT
BRANCH  10  14
HETATM   14  C11 UNL     1      18.837   4.138  50.859  1.00  0.00     0.326 C 
BRANCH  14  15
HETATM   15  N3  UNL     1      18.128   3.476  49.788  1.00  0.00     0.083 N 
HETATM   16  H13 UNL     1      17.491   2.733  50.104  1.00  0.00     0.313 HD
HETATM   17  H14 UNL     1      18.760   3.227  49.007  1.00  0.00     0.313 HD
ENDBRANCH  14  15
ENDBRANCH  10  14
BRANCH  10  18
HETATM   18  N4  UNL     1      21.001   4.789  50.482  1.00  0.00    -0.332 N 
HETATM   19  C12 UNL     1      21.522   5.811  51.318  1.00  0.00     0.092 A 
HETATM   20  C13 UNL     1      22.202   6.762  50.718  1.00  0.00    -0.004 A 
HETATM   21  C14 UNL     1      22.505   6.918  49.274  1.00  0.00     0.076 A 
HETATM   22  C15 UNL     1      21.903   5.785  48.523  1.00  0.00     0.008 A 
HETATM   23 BR1  UNL     1      22.173   5.786  46.623  1.00  0.00    -0.054 Br
HETATM   24  C16 UNL     1      21.200   4.788  49.073  1.00  0.00     0.111 A 
ENDBRANCH  10  18
BRANCH   1  25
HETATM   25  N1  UNL     1      25.696  -0.967  54.398  1.00  0.00    -0.285 N 
HETATM   26  H4  UNL     1      25.886  -1.978  54.670  1.00  0.00     0.178 HD
BRANCH  25  27
HETATM   27  S1  UNL     1      27.030   0.109  54.327  1.00  0.00     0.227 S 
HETATM   28  C1  UNL     1      27.545   0.465  52.688  1.00  0.00     0.186 C 
HETATM   29  O1  UNL     1      28.176  -0.394  55.132  1.00  0.00    -0.206 OA
HETATM   30  O2  UNL     1      26.573   1.407  54.954  1.00  0.00    -0.206 OA
ENDBRANCH  25  27
ENDBRANCH   1  25
TORSDOF 5
ENDMDL
MODEL 6
REMARK VINA RESULT:      -6.9      3.356      4.574
REMARK  5 active torsions:
REMARK  status: ('A' for Active; 'I' for Inactive)
REMARK    1  A    between atoms: S1_2  and  N1_5 
REMARK    2  A    between atoms: N1_5  and  C2_6 
REMARK    3  A    between atoms: C10_15  and  C11_16 
REMARK    4  A    between atoms: C10_15  and  N4_18 
REMARK    5  A    between atoms: C11_16  and  N3_17 
ROOT
HETATM    1  C2  UNL     1      24.559  -0.232  53.687  1.00  0.00     0.043 A 
HETATM    2  C3  UNL     1      25.562  -0.746  52.884  1.00  0.00     0.033 A 
HETATM    3  C4  UNL     1      26.283   0.072  52.042  1.00  0.00     0.039 A 
HETATM    4  C5  UNL     1      26.047   1.430  51.956  1.00  0.00     0.077 A 
HETATM    5  C6  UNL     1      25.058   1.958  52.742  1.00  0.00    -0.005 A 
HETATM    6  C7  UNL     1      24.329   1.142  53.590  1.00  0.00     0.041 A 
HETATM    7  C8  UNL     1      24.623   3.380  52.822  1.00  0.00     0.161 C 
HETATM    8  N2  UNL     1      24.561   3.919  51.455  1.00  0.00    -0.385 N 
HETATM    9  C9  UNL     1      25.672   4.145  50.597  1.00  0.00     0.054 C 
HETATM   10  C10 UNL     1      25.501   5.097  49.692  1.00  0.00     0.068 C 
HETATM   11  C17 UNL     1      26.950   3.429  50.635  1.00  0.00     0.234 C 
HETATM   12  O3  UNL     1      26.865   2.087  51.061  1.00  0.00    -0.345 OA
HETATM   13  H10 UNL     1      23.616   4.158  51.080  1.00  0.00     0.159 HD
ENDROOT
BRANCH  10  14
HETATM   14  C11 UNL     1      26.374   5.650  48.623  1.00  0.00     0.326 C 
BRANCH  14  15
HETATM   15  N3  UNL     1      27.344   6.602  49.113  1.00  0.00     0.083 N 
HETATM   16  H13 UNL     1      27.778   7.174  48.377  1.00  0.00     0.313 HD
HETATM   17  H14 UNL     1      27.994   6.172  49.793  1.00  0.00     0.313 HD
ENDBRANCH  14  15
ENDBRANCH  10  14
BRANCH  10  18
HETATM   18  N4  UNL     1      24.307   5.822  49.598  1.00  0.00    -0.332 N 
HETATM   19  C12 UNL     1      23.973   6.872  50.492  1.00  0.00     0.092 A 
HETATM   20  C13 UNL     1      22.819   7.466  50.286  1.00  0.00    -0.004 A 
HETATM   21  C14 UNL     1      21.807   7.191  49.238  1.00  0.00     0.076 A 
HETATM   22  C15 UNL     1      22.285   6.076  48.378  1.00  0.00     0.008 A 
HETATM   23 BR1  UNL     1      21.121   5.549  46.945  1.00  0.00    -0.054 Br
HETATM   24  C16 UNL     1      23.446   5.430  48.535  1.00  0.00     0.111 A 
ENDBRANCH  10  18
BRANCH   1  25
HETATM   25  N1  UNL     1      23.719  -0.895  54.601  1.00  0.00    -0.285 N 
HETATM   26  H4  UNL     1      24.139  -1.250  55.512  1.00  0.00     0.178 HD
BRANCH  25  27
HETATM   27  S1  UNL     1      22.048  -1.167  54.329  1.00  0.00     0.227 S 
HETATM   28  C1  UNL     1      21.043   0.203  54.767  1.00  0.00     0.186 C 
HETATM   29  O1  UNL     1      21.577  -2.397  55.025  1.00  0.00    -0.206 OA
HETATM   30  O2  UNL     1      21.883  -1.398  52.844  1.00  0.00    -0.206 OA
ENDBRANCH  25  27
ENDBRANCH   1  25
TORSDOF 5
ENDMDL
MODEL 7
REMARK VINA RESULT:      -6.8     22.500     24.991
REMARK  5 active torsions:
REMARK  status: ('A' for Active; 'I' for Inactive)
REMARK    1  A    between atoms: S1_2  and  N1_5 
REMARK    2  A    between atoms: N1_5  and  C2_6 
REMARK    3  A    between atoms: C10_15  and  C11_16 
REMARK    4  A    between atoms: C10_15  and  N4_18 
REMARK    5  A    between atoms: C11_16  and  N3_17 
ROOT
HETATM    1  C2  UNL     1      44.636   3.767  67.394  1.00  0.00     0.043 A 
HETATM    2  C3  UNL     1      44.143   4.552  68.421  1.00  0.00     0.033 A 
HETATM    3  C4  UNL     1      43.296   4.023  69.371  1.00  0.00     0.039 A 
HETATM    4  C5  UNL     1      42.902   2.699  69.350  1.00  0.00     0.077 A 
HETATM    5  C6  UNL     1      43.379   1.907  68.341  1.00  0.00    -0.005 A 
HETATM    6  C7  UNL     1      44.230   2.431  67.383  1.00  0.00     0.041 A 
HETATM    7  C8  UNL     1      43.096   0.463  68.110  1.00  0.00     0.161 C 
HETATM    8  N2  UNL     1      41.661   0.234  68.332  1.00  0.00    -0.385 N 
HETATM    9  C9  UNL     1      40.986   0.325  69.580  1.00  0.00     0.054 C 
HETATM   10  C10 UNL     1      39.894  -0.417  69.687  1.00  0.00     0.068 C 
HETATM   11  C17 UNL     1      41.392   1.152  70.721  1.00  0.00     0.234 C 
HETATM   12  O3  UNL     1      42.054   2.350  70.380  1.00  0.00    -0.345 OA
HETATM   13  H10 UNL     1      41.085  -0.019  67.498  1.00  0.00     0.159 HD
ENDROOT
BRANCH  10  14
HETATM   14  C11 UNL     1      38.909  -0.622  70.781  1.00  0.00     0.326 C 
BRANCH  14  15
HETATM   15  N3  UNL     1      37.906   0.415  70.849  1.00  0.00     0.083 N 
HETATM   16  H13 UNL     1      36.983   0.129  70.498  1.00  0.00     0.313 HD
HETATM   17  H14 UNL     1      38.264   1.318  70.493  1.00  0.00     0.313 HD
ENDBRANCH  14  15
ENDBRANCH  10  14
BRANCH  10  18
HETATM   18  N4  UNL     1      39.448  -1.230  68.638  1.00  0.00    -0.332 N 
HETATM   19  C12 UNL     1      38.605  -0.753  67.601  1.00  0.00     0.092 A 
HETATM   20  C13 UNL     1      38.262  -1.627  66.682  1.00  0.00    -0.004 A 
HETATM   21  C14 UNL     1      38.638  -3.058  66.575  1.00  0.00     0.076 A 
HETATM   22  C15 UNL     1      39.517  -3.419  67.718  1.00  0.00     0.008 A 
HETATM   23 BR1  UNL     1      40.126  -5.238  67.780  1.00  0.00    -0.054 Br
HETATM   24  C16 UNL     1      39.901  -2.578  68.686  1.00  0.00     0.111 A 
ENDBRANCH  10  18
BRANCH   1  25
HETATM   25  N1  UNL     1      45.501   4.116  66.340  1.00  0.00    -0.285 N 
HETATM   26  H4  UNL     1      46.542   3.930  66.453  1.00  0.00     0.178 HD
BRANCH  25  27
HETATM   27  S1  UNL     1      44.968   4.831  64.874  1.00  0.00     0.227 S 
HETATM   28  C1  UNL     1      46.264   5.091  63.720  1.00  0.00     0.186 C 
HETATM   29  O1  UNL     1      44.236   6.103  65.125  1.00  0.00    -0.206 OA
HETATM   30  O2  UNL     1      43.990   3.862  64.251  1.00  0.00    -0.206 OA
ENDBRANCH  25  27
ENDBRANCH   1  25
TORSDOF 5
ENDMDL
MODEL 8
REMARK VINA RESULT:      -6.8      7.290      9.339
REMARK  5 active torsions:
REMARK  status: ('A' for Active; 'I' for Inactive)
REMARK    1  A    between atoms: S1_2  and  N1_5 
REMARK    2  A    between atoms: N1_5  and  C2_6 
REMARK    3  A    between atoms: C10_15  and  C11_16 
REMARK    4  A    between atoms: C10_15  and  N4_18 
REMARK    5  A    between atoms: C11_16  and  N3_17 
ROOT
HETATM    1  C2  UNL     1      22.931   0.065  53.633  1.00  0.00     0.043 A 
HETATM    2  C3  UNL     1      22.374  -0.759  54.596  1.00  0.00     0.033 A 
HETATM    3  C4  UNL     1      21.071  -1.192  54.487  1.00  0.00     0.039 A 
HETATM    4  C5  UNL     1      20.262  -0.834  53.426  1.00  0.00     0.077 A 
HETATM    5  C6  UNL     1      20.795  -0.019  52.464  1.00  0.00    -0.005 A 
HETATM    6  C7  UNL     1      22.104   0.420  52.566  1.00  0.00     0.041 A 
HETATM    7  C8  UNL     1      20.124   0.497  51.239  1.00  0.00     0.161 C 
HETATM    8  N2  UNL     1      18.765   0.924  51.603  1.00  0.00    -0.385 N 
HETATM    9  C9  UNL     1      17.704   0.069  52.011  1.00  0.00     0.054 C 
HETATM   10  C10 UNL     1      16.486   0.524  51.764  1.00  0.00     0.068 C 
HETATM   11  C17 UNL     1      17.851  -1.236  52.663  1.00  0.00     0.234 C 
HETATM   12  O3  UNL     1      18.990  -1.362  53.487  1.00  0.00    -0.345 OA
HETATM   13  H10 UNL     1      18.559   1.947  51.559  1.00  0.00     0.159 HD
ENDROOT
BRANCH  10  14
HETATM   14  C11 UNL     1      15.127  -0.024  52.013  1.00  0.00     0.326 C 
BRANCH  14  15
HETATM   15  N3  UNL     1      14.675   0.164  53.373  1.00  0.00     0.083 N 
HETATM   16  H13 UNL     1      15.145  -0.442  54.058  1.00  0.00     0.313 HD
HETATM   17  H14 UNL     1      13.643   0.197  53.433  1.00  0.00     0.313 HD
ENDBRANCH  14  15
ENDBRANCH  10  14
BRANCH  10  18
HETATM   18  N4  UNL     1      16.270   1.761  51.144  1.00  0.00    -0.332 N 
HETATM   19  C12 UNL     1      16.252   2.987  51.860  1.00  0.00     0.092 A 
HETATM   20  C13 UNL     1      16.038   4.071  51.150  1.00  0.00    -0.004 A 
HETATM   21  C14 UNL     1      15.810   4.196  49.689  1.00  0.00     0.076 A 
HETATM   22  C15 UNL     1      15.856   2.844  49.071  1.00  0.00     0.008 A 
HETATM   23 BR1  UNL     1      15.583   2.770  47.173  1.00  0.00    -0.054 Br
HETATM   24  C16 UNL     1      16.069   1.703  49.737  1.00  0.00     0.111 A 
ENDBRANCH  10  18
BRANCH   1  25
HETATM   25  N1  UNL     1      24.227   0.608  53.565  1.00  0.00    -0.285 N 
HETATM   26  H4  UNL     1      24.357   1.558  53.104  1.00  0.00     0.178 HD
BRANCH  25  27
HETATM   27  S1  UNL     1      25.620  -0.178  54.186  1.00  0.00     0.227 S 
HETATM   28  C1  UNL     1      26.523  -1.054  52.963  1.00  0.00     0.186 C 
HETATM   29  O1  UNL     1      25.274  -1.080  55.319  1.00  0.00    -0.206 OA
HETATM   30  O2  UNL     1      26.522   0.905  54.731  1.00  0.00    -0.206 OA
ENDBRANCH  25  27
ENDBRANCH   1  25
TORSDOF 5
ENDMDL
MODEL 9
REMARK VINA RESULT:      -6.7      3.075      3.711
REMARK  5 active torsions:
REMARK  status: ('A' for Active; 'I' for Inactive)
REMARK    1  A    between atoms: S1_2  and  N1_5 
REMARK    2  A    between atoms: N1_5  and  C2_6 
REMARK    3  A    between atoms: C10_15  and  C11_16 
REMARK    4  A    between atoms: C10_15  and  N4_18 
REMARK    5  A    between atoms: C11_16  and  N3_17 
ROOT
HETATM    1  C2  UNL     1      25.380   1.058  53.524  1.00  0.00     0.043 A 
HETATM    2  C3  UNL     1      24.244   0.268  53.535  1.00  0.00     0.033 A 
HETATM    3  C4  UNL     1      23.261   0.430  52.583  1.00  0.00     0.039 A 
HETATM    4  C5  UNL     1      23.356   1.376  51.581  1.00  0.00     0.077 A 
HETATM    5  C6  UNL     1      24.472   2.168  51.554  1.00  0.00    -0.005 A 
HETATM    6  C7  UNL     1      25.464   2.011  52.507  1.00  0.00     0.041 A 
HETATM    7  C8  UNL     1      24.796   3.247  50.580  1.00  0.00     0.161 C 
HETATM    8  N2  UNL     1      23.579   4.037  50.347  1.00  0.00    -0.385 N 
HETATM    9  C9  UNL     1      22.404   3.582  49.688  1.00  0.00     0.054 C 
HETATM   10  C10 UNL     1      21.683   4.528  49.104  1.00  0.00     0.068 C 
HETATM   11  C17 UNL     1      21.943   2.193  49.608  1.00  0.00     0.234 C 
HETATM   12  O3  UNL     1      22.279   1.393  50.721  1.00  0.00    -0.345 OA
HETATM   13  H10 UNL     1      23.576   5.021  50.697  1.00  0.00     0.159 HD
ENDROOT
BRANCH  10  14
HETATM   14  C11 UNL     1      20.417   4.504  48.325  1.00  0.00     0.326 C 
BRANCH  14  15
HETATM   15  N3  UNL     1      20.588   4.031  46.970  1.00  0.00     0.083 N 
HETATM   16  H13 UNL     1      21.174   3.189  46.891  1.00  0.00     0.313 HD
HETATM   17  H14 UNL     1      20.818   4.804  46.321  1.00  0.00     0.313 HD
ENDBRANCH  14  15
ENDBRANCH  10  14
BRANCH  10  18
HETATM   18  N4  UNL     1      22.062   5.875  49.139  1.00  0.00    -0.332 N 
HETATM   19  C12 UNL     1      21.554   6.791  50.096  1.00  0.00     0.092 A 
HETATM   20  C13 UNL     1      21.997   8.026  50.011  1.00  0.00    -0.004 A 
HETATM   21  C14 UNL     1      22.964   8.601  49.045  1.00  0.00     0.076 A 
HETATM   22  C15 UNL     1      23.411   7.536  48.108  1.00  0.00     0.008 A 
HETATM   23 BR1  UNL     1      24.674   8.064  46.763  1.00  0.00    -0.054 Br
HETATM   24  C16 UNL     1      22.999   6.263  48.141  1.00  0.00     0.111 A 
ENDBRANCH  10  18
BRANCH   1  25
HETATM   25  N1  UNL     1      26.483   1.048  54.399  1.00  0.00    -0.285 N 
HETATM   26  H4  UNL     1      26.404   1.570  55.323  1.00  0.00     0.178 HD
BRANCH  25  27
HETATM   27  S1  UNL     1      27.956   0.237  54.058  1.00  0.00     0.227 S 
HETATM   28  C1  UNL     1      27.758  -1.132  52.980  1.00  0.00     0.186 C 
HETATM   29  O1  UNL     1      28.645  -0.184  55.309  1.00  0.00    -0.206 OA
HETATM   30  O2  UNL     1      28.850   1.239  53.365  1.00  0.00    -0.206 OA
ENDBRANCH  25  27
ENDBRANCH   1  25
TORSDOF 5
ENDMDL
