MODEL 1
REMARK VINA RESULT:      -7.1      0.000      0.000
REMARK  7 active torsions:
REMARK  status: ('A' for Active; 'I' for Inactive)
REMARK    1  A    between atoms: C3_3  and  O1_4 
REMARK    2  A    between atoms: C3_3  and  C5_6 
REMARK    3  A    between atoms: C5_6  and  O2_7 
REMARK    4  A    between atoms: C5_6  and  C7_9 
REMARK    5  A    between atoms: C10_14  and  N3_15 
REMARK    6  A    between atoms: N3_15  and  C11_16 
REMARK    7  A    between atoms: C14_19  and  O3_20 
ROOT
HETATM    1  C7  UNL     1      24.853   0.764  53.339  1.00  0.00     0.040 A 
HETATM    2  C8  UNL     1      23.616   0.195  53.559  1.00  0.00     0.132 A 
HETATM    3  N1  UNL     1      23.361  -0.781  54.452  1.00  0.00    -0.253 NA
HETATM    4  C9  UNL     1      24.383  -1.260  55.206  1.00  0.00     0.234 A 
HETATM    5  N2  UNL     1      25.597  -0.720  55.008  1.00  0.00    -0.224 NA
HETATM    6  C10 UNL     1      25.864   0.249  54.127  1.00  0.00     0.136 A 
ENDROOT
BRANCH   6   7
HETATM    7  N3  UNL     1      27.187   0.744  54.004  1.00  0.00    -0.363 N 
HETATM    8  H14 UNL     1      27.617   1.548  54.495  1.00  0.00     0.162 HD
BRANCH   7   9
HETATM    9  C11 UNL     1      28.099   0.114  53.117  1.00  0.00     0.132 A 
HETATM   10  C12 UNL     1      29.456  -0.093  53.742  1.00  0.00     0.005 A 
HETATM   11  C13 UNL     1      29.798  -1.371  53.807  1.00  0.00     0.034 A 
HETATM   12  C14 UNL     1      28.705  -2.149  53.230  1.00  0.00     0.064 A 
HETATM   13  C15 UNL     1      27.751  -1.314  52.843  1.00  0.00     0.038 A 
BRANCH  12  14
HETATM   14  O3  UNL     1      28.675  -3.532  53.111  1.00  0.00    -0.361 OA
HETATM   15  H18 UNL     1      29.206  -4.033  52.396  1.00  0.00     0.217 HD
ENDBRANCH  12  14
ENDBRANCH   7   9
ENDBRANCH   6   7
BRANCH   1  16
HETATM   16  C5  UNL     1      25.006   1.816  52.339  1.00  0.00     0.215 C 
BRANCH  16  17
HETATM   17  C3  UNL     1      23.710   2.263  51.720  1.00  0.00     0.075 C 
HETATM   18  C2  UNL     1      23.137   3.442  52.021  1.00  0.00     0.004 C 
HETATM   19  C1  UNL     1      23.455   4.583  52.905  1.00  0.00     0.038 C 
BRANCH  17  20
HETATM   20  O1  UNL     1      23.088   1.415  50.799  1.00  0.00    -0.358 OA
HETATM   21  C4  UNL     1      22.158   1.871  49.841  1.00  0.00     0.209 C 
ENDBRANCH  17  20
ENDBRANCH  16  17
BRANCH  16  22
HETATM   22  O2  UNL     1      25.946   1.524  51.363  1.00  0.00    -0.379 OA
HETATM   23  C6  UNL     1      26.534   2.627  50.806  1.00  0.00     0.202 C 
ENDBRANCH  16  22
ENDBRANCH   1  16
TORSDOF 7
ENDMDL
MODEL 2
REMARK VINA RESULT:      -7.1      1.899      2.934
REMARK  7 active torsions:
REMARK  status: ('A' for Active; 'I' for Inactive)
REMARK    1  A    between atoms: C3_3  and  O1_4 
REMARK    2  A    between atoms: C3_3  and  C5_6 
REMARK    3  A    between atoms: C5_6  and  O2_7 
REMARK    4  A    between atoms: C5_6  and  C7_9 
REMARK    5  A    between atoms: C10_14  and  N3_15 
REMARK    6  A    between atoms: N3_15  and  C11_16 
REMARK    7  A    between atoms: C14_19  and  O3_20 
ROOT
HETATM    1  C7  UNL     1      22.887   0.685  52.780  1.00  0.00     0.040 A 
HETATM    2  C8  UNL     1      21.633   0.799  53.344  1.00  0.00     0.132 A 
HETATM    3  N1  UNL     1      21.188   0.081  54.393  1.00  0.00    -0.253 NA
HETATM    4  C9  UNL     1      22.017  -0.834  54.957  1.00  0.00     0.234 A 
HETATM    5  N2  UNL     1      23.243  -0.962  54.423  1.00  0.00    -0.224 NA
HETATM    6  C10 UNL     1      23.698  -0.255  53.384  1.00  0.00     0.136 A 
ENDROOT
BRANCH   6   7
HETATM    7  N3  UNL     1      25.015  -0.476  52.904  1.00  0.00    -0.363 N 
HETATM    8  H14 UNL     1      25.369  -0.370  51.937  1.00  0.00     0.162 HD
BRANCH   7   9
HETATM    9  C11 UNL     1      26.033  -0.894  53.801  1.00  0.00     0.132 A 
HETATM   10  C12 UNL     1      27.283  -1.337  53.083  1.00  0.00     0.005 A 
HETATM   11  C13 UNL     1      28.341  -0.607  53.404  1.00  0.00     0.034 A 
HETATM   12  C14 UNL     1      27.906   0.397  54.372  1.00  0.00     0.064 A 
HETATM   13  C15 UNL     1      26.610   0.234  54.594  1.00  0.00     0.038 A 
BRANCH  12  14
HETATM   14  O3  UNL     1      28.720   1.358  54.957  1.00  0.00    -0.361 OA
HETATM   15  H18 UNL     1      28.481   1.816  55.838  1.00  0.00     0.217 HD
ENDBRANCH  12  14
ENDBRANCH   7   9
ENDBRANCH   6   7
BRANCH   1  16
HETATM   16  C5  UNL     1      23.255   1.520  51.640  1.00  0.00     0.215 C 
BRANCH  16  17
HETATM   17  C3  UNL     1      24.009   2.766  52.015  1.00  0.00     0.075 C 
HETATM   18  C2  UNL     1      25.328   2.903  51.794  1.00  0.00     0.004 C 
HETATM   19  C1  UNL     1      26.400   2.071  51.208  1.00  0.00     0.038 C 
BRANCH  17  20
HETATM   20  O1  UNL     1      23.303   3.813  52.616  1.00  0.00    -0.358 OA
HETATM   21  C4  UNL     1      23.130   5.072  52.004  1.00  0.00     0.209 C 
ENDBRANCH  17  20
ENDBRANCH  16  17
BRANCH  16  22
HETATM   22  O2  UNL     1      22.192   1.818  50.803  1.00  0.00    -0.379 OA
HETATM   23  C6  UNL     1      22.559   2.120  49.520  1.00  0.00     0.202 C 
ENDBRANCH  16  22
ENDBRANCH   1  16
TORSDOF 7
ENDMDL
MODEL 3
REMARK VINA RESULT:      -7.0      2.124      3.122
REMARK  7 active torsions:
REMARK  status: ('A' for Active; 'I' for Inactive)
REMARK    1  A    between atoms: C3_3  and  O1_4 
REMARK    2  A    between atoms: C3_3  and  C5_6 
REMARK    3  A    between atoms: C5_6  and  O2_7 
REMARK    4  A    between atoms: C5_6  and  C7_9 
REMARK    5  A    between atoms: C10_14  and  N3_15 
REMARK    6  A    between atoms: N3_15  and  C11_16 
REMARK    7  A    between atoms: C14_19  and  O3_20 
ROOT
HETATM    1  C7  UNL     1      22.792   1.139  53.044  1.00  0.00     0.040 A 
HETATM    2  C8  UNL     1      21.566   0.728  53.524  1.00  0.00     0.132 A 
HETATM    3  N1  UNL     1      21.354  -0.383  54.257  1.00  0.00    -0.253 NA
HETATM    4  C9  UNL     1      22.413  -1.177  54.559  1.00  0.00     0.234 A 
HETATM    5  N2  UNL     1      23.617  -0.795  54.101  1.00  0.00    -0.224 NA
HETATM    6  C10 UNL     1      23.841   0.304  53.374  1.00  0.00     0.136 A 
ENDROOT
BRANCH   6   7
HETATM    7  N3  UNL     1      25.158   0.608  52.945  1.00  0.00    -0.363 N 
HETATM    8  H14 UNL     1      25.532   0.610  51.980  1.00  0.00     0.162 HD
BRANCH   7   9
HETATM    9  C11 UNL     1      26.148   0.965  53.898  1.00  0.00     0.132 A 
HETATM   10  C12 UNL     1      27.309   0.003  53.907  1.00  0.00     0.005 A 
HETATM   11  C13 UNL     1      28.459   0.588  53.606  1.00  0.00     0.034 A 
HETATM   12  C14 UNL     1      28.183   2.003  53.368  1.00  0.00     0.064 A 
HETATM   13  C15 UNL     1      26.885   2.213  53.532  1.00  0.00     0.038 A 
BRANCH  12  14
HETATM   14  O3  UNL     1      29.128   2.961  53.026  1.00  0.00    -0.361 OA
HETATM   15  H18 UNL     1      30.008   3.070  53.533  1.00  0.00     0.217 HD
ENDBRANCH  12  14
ENDBRANCH   7   9
ENDBRANCH   6   7
BRANCH   1  16
HETATM   16  C5  UNL     1      22.896   2.364  52.257  1.00  0.00     0.215 C 
BRANCH  16  17
HETATM   17  C3  UNL     1      23.337   2.141  50.836  1.00  0.00     0.075 C 
HETATM   18  C2  UNL     1      22.499   1.691  49.885  1.00  0.00     0.004 C 
HETATM   19  C1  UNL     1      21.076   1.299  49.821  1.00  0.00     0.038 C 
BRANCH  17  20
HETATM   20  O1  UNL     1      24.667   2.413  50.503  1.00  0.00    -0.358 OA
HETATM   21  C4  UNL     1      25.041   3.441  49.611  1.00  0.00     0.209 C 
ENDBRANCH  17  20
ENDBRANCH  16  17
BRANCH  16  22
HETATM   22  O2  UNL     1      23.658   3.351  52.862  1.00  0.00    -0.379 OA
HETATM   23  C6  UNL     1      23.192   4.621  52.657  1.00  0.00     0.202 C 
ENDBRANCH  16  22
ENDBRANCH   1  16
TORSDOF 7
ENDMDL
MODEL 4
REMARK VINA RESULT:      -6.7      2.525      5.947
REMARK  7 active torsions:
REMARK  status: ('A' for Active; 'I' for Inactive)
REMARK    1  A    between atoms: C3_3  and  O1_4 
REMARK    2  A    between atoms: C3_3  and  C5_6 
REMARK    3  A    between atoms: C5_6  and  O2_7 
REMARK    4  A    between atoms: C5_6  and  C7_9 
REMARK    5  A    between atoms: C10_14  and  N3_15 
REMARK    6  A    between atoms: N3_15  and  C11_16 
REMARK    7  A    between atoms: C14_19  and  O3_20 
ROOT
HETATM    1  C7  UNL     1      25.679   1.332  52.191  1.00  0.00     0.040 A 
HETATM    2  C8  UNL     1      26.542   2.000  51.348  1.00  0.00     0.132 A 
HETATM    3  N1  UNL     1      26.225   3.086  50.617  1.00  0.00    -0.253 NA
HETATM    4  C9  UNL     1      24.963   3.581  50.696  1.00  0.00     0.234 A 
HETATM    5  N2  UNL     1      24.106   2.945  51.512  1.00  0.00    -0.224 NA
HETATM    6  C10 UNL     1      24.407   1.868  52.244  1.00  0.00     0.136 A 
ENDROOT
BRANCH   6   7
HETATM    7  N3  UNL     1      23.418   1.279  53.071  1.00  0.00    -0.363 N 
HETATM    8  H14 UNL     1      23.228   1.464  54.072  1.00  0.00     0.162 HD
BRANCH   7   9
HETATM    9  C11 UNL     1      22.534   0.305  52.535  1.00  0.00     0.132 A 
HETATM   10  C12 UNL     1      22.737  -1.055  53.153  1.00  0.00     0.005 A 
HETATM   11  C13 UNL     1      21.654  -1.502  53.771  1.00  0.00     0.034 A 
HETATM   12  C14 UNL     1      20.614  -0.485  53.626  1.00  0.00     0.064 A 
HETATM   13  C15 UNL     1      21.111   0.529  52.932  1.00  0.00     0.038 A 
BRANCH  12  14
HETATM   14  O3  UNL     1      19.325  -0.572  54.134  1.00  0.00    -0.361 OA
HETATM   15  H18 UNL     1      19.085  -0.261  55.077  1.00  0.00     0.217 HD
ENDBRANCH  12  14
ENDBRANCH   7   9
ENDBRANCH   6   7
BRANCH   1  16
HETATM   16  C5  UNL     1      26.139   0.161  52.933  1.00  0.00     0.215 C 
BRANCH  16  17
HETATM   17  C3  UNL     1      26.659   0.477  54.309  1.00  0.00     0.075 C 
HETATM   18  C2  UNL     1      26.129  -0.065  55.420  1.00  0.00     0.004 C 
HETATM   19  C1  UNL     1      25.035  -1.011  55.723  1.00  0.00     0.038 C 
BRANCH  17  20
HETATM   20  O1  UNL     1      27.731   1.367  54.425  1.00  0.00    -0.358 OA
HETATM   21  C4  UNL     1      29.075   0.945  54.498  1.00  0.00     0.209 C 
ENDBRANCH  17  20
ENDBRANCH  16  17
BRANCH  16  22
HETATM   22  O2  UNL     1      27.042  -0.622  52.231  1.00  0.00    -0.379 OA
HETATM   23  C6  UNL     1      26.884  -1.967  52.426  1.00  0.00     0.202 C 
ENDBRANCH  16  22
ENDBRANCH   1  16
TORSDOF 7
ENDMDL
MODEL 5
REMARK VINA RESULT:      -6.7      1.779      2.050
REMARK  7 active torsions:
REMARK  status: ('A' for Active; 'I' for Inactive)
REMARK    1  A    between atoms: C3_3  and  O1_4 
REMARK    2  A    between atoms: C3_3  and  C5_6 
REMARK    3  A    between atoms: C5_6  and  O2_7 
REMARK    4  A    between atoms: C5_6  and  C7_9 
REMARK    5  A    between atoms: C10_14  and  N3_15 
REMARK    6  A    between atoms: N3_15  and  C11_16 
REMARK    7  A    between atoms: C14_19  and  O3_20 
ROOT
HETATM    1  C7  UNL     1      24.116   1.112  52.730  1.00  0.00     0.040 A 
HETATM    2  C8  UNL     1      22.792   1.103  53.117  1.00  0.00     0.132 A 
HETATM    3  N1  UNL     1      22.213   0.150  53.872  1.00  0.00    -0.253 NA
HETATM    4  C9  UNL     1      22.968  -0.895  54.298  1.00  0.00     0.234 A 
HETATM    5  N2  UNL     1      24.261  -0.905  53.933  1.00  0.00    -0.224 NA
HETATM    6  C10 UNL     1      24.849   0.034  53.185  1.00  0.00     0.136 A 
ENDROOT
BRANCH   6   7
HETATM    7  N3  UNL     1      26.224  -0.082  52.861  1.00  0.00    -0.363 N 
HETATM    8  H14 UNL     1      26.663  -0.076  51.923  1.00  0.00     0.162 HD
BRANCH   7   9
HETATM    9  C11 UNL     1      27.185  -0.228  53.896  1.00  0.00     0.132 A 
HETATM   10  C12 UNL     1      28.500  -0.761  53.387  1.00  0.00     0.005 A 
HETATM   11  C13 UNL     1      29.506   0.076  53.597  1.00  0.00     0.034 A 
HETATM   12  C14 UNL     1      28.964   1.254  54.270  1.00  0.00     0.064 A 
HETATM   13  C15 UNL     1      27.661   1.082  54.437  1.00  0.00     0.038 A 
BRANCH  12  14
HETATM   14  O3  UNL     1      29.697   2.365  54.664  1.00  0.00    -0.361 OA
HETATM   15  H18 UNL     1      30.666   2.514  54.376  1.00  0.00     0.217 HD
ENDBRANCH  12  14
ENDBRANCH   7   9
ENDBRANCH   6   7
BRANCH   1  16
HETATM   16  C5  UNL     1      24.630   2.203  51.906  1.00  0.00     0.215 C 
BRANCH  16  17
HETATM   17  C3  UNL     1      23.572   2.913  51.106  1.00  0.00     0.075 C 
HETATM   18  C2  UNL     1      23.076   4.109  51.469  1.00  0.00     0.004 C 
HETATM   19  C1  UNL     1      23.299   5.059  52.579  1.00  0.00     0.038 C 
BRANCH  17  20
HETATM   20  O1  UNL     1      23.095   2.298  49.944  1.00  0.00    -0.358 OA
HETATM   21  C4  UNL     1      23.155   2.907  48.673  1.00  0.00     0.209 C 
ENDBRANCH  17  20
ENDBRANCH  16  17
BRANCH  16  22
HETATM   22  O2  UNL     1      25.697   1.837  51.102  1.00  0.00    -0.379 OA
HETATM   23  C6  UNL     1      26.551   2.864  50.805  1.00  0.00     0.202 C 
ENDBRANCH  16  22
ENDBRANCH   1  16
TORSDOF 7
ENDMDL
MODEL 6
REMARK VINA RESULT:      -6.6      2.885      4.682
REMARK  7 active torsions:
REMARK  status: ('A' for Active; 'I' for Inactive)
REMARK    1  A    between atoms: C3_3  and  O1_4 
REMARK    2  A    between atoms: C3_3  and  C5_6 
REMARK    3  A    between atoms: C5_6  and  O2_7 
REMARK    4  A    between atoms: C5_6  and  C7_9 
REMARK    5  A    between atoms: C10_14  and  N3_15 
REMARK    6  A    between atoms: N3_15  and  C11_16 
REMARK    7  A    between atoms: C14_19  and  O3_20 
ROOT
HETATM    1  C7  UNL     1      24.716   2.479  51.455  1.00  0.00     0.040 A 
HETATM    2  C8  UNL     1      25.926   2.897  50.943  1.00  0.00     0.132 A 
HETATM    3  N1  UNL     1      27.132   2.585  51.456  1.00  0.00    -0.253 NA
HETATM    4  C9  UNL     1      27.188   1.801  52.563  1.00  0.00     0.234 A 
HETATM    5  N2  UNL     1      26.020   1.383  53.078  1.00  0.00    -0.224 NA
HETATM    6  C10 UNL     1      24.817   1.684  52.579  1.00  0.00     0.136 A 
ENDROOT
BRANCH   6   7
HETATM    7  N3  UNL     1      23.648   1.184  53.208  1.00  0.00    -0.363 N 
HETATM    8  H14 UNL     1      22.909   1.717  53.700  1.00  0.00     0.162 HD
BRANCH   7   9
HETATM    9  C11 UNL     1      23.385  -0.211  53.206  1.00  0.00     0.132 A 
HETATM   10  C12 UNL     1      23.637  -0.844  54.551  1.00  0.00     0.005 A 
HETATM   11  C13 UNL     1      22.549  -1.400  55.064  1.00  0.00     0.034 A 
HETATM   12  C14 UNL     1      21.460  -1.197  54.112  1.00  0.00     0.064 A 
HETATM   13  C15 UNL     1      21.931  -0.529  53.069  1.00  0.00     0.038 A 
BRANCH  12  14
HETATM   14  O3  UNL     1      20.152  -1.632  54.279  1.00  0.00    -0.361 OA
HETATM   15  H18 UNL     1      19.432  -1.052  54.713  1.00  0.00     0.217 HD
ENDBRANCH  12  14
ENDBRANCH   7   9
ENDBRANCH   6   7
BRANCH   1  16
HETATM   16  C5  UNL     1      23.470   2.885  50.810  1.00  0.00     0.215 C 
BRANCH  16  17
HETATM   17  C3  UNL     1      22.622   3.805  51.646  1.00  0.00     0.075 C 
HETATM   18  C2  UNL     1      22.860   5.126  51.729  1.00  0.00     0.004 C 
HETATM   19  C1  UNL     1      23.847   6.066  51.158  1.00  0.00     0.038 C 
BRANCH  17  20
HETATM   20  O1  UNL     1      21.551   3.256  52.358  1.00  0.00    -0.358 OA
HETATM   21  C4  UNL     1      20.202   3.503  52.027  1.00  0.00     0.209 C 
ENDBRANCH  17  20
ENDBRANCH  16  17
BRANCH  16  22
HETATM   22  O2  UNL     1      22.721   1.823  50.328  1.00  0.00    -0.379 OA
HETATM   23  C6  UNL     1      22.260   1.998  49.052  1.00  0.00     0.202 C 
ENDBRANCH  16  22
ENDBRANCH   1  16
TORSDOF 7
ENDMDL
MODEL 7
REMARK VINA RESULT:      -6.5      3.172      5.409
REMARK  7 active torsions:
REMARK  status: ('A' for Active; 'I' for Inactive)
REMARK    1  A    between atoms: C3_3  and  O1_4 
REMARK    2  A    between atoms: C3_3  and  C5_6 
REMARK    3  A    between atoms: C5_6  and  O2_7 
REMARK    4  A    between atoms: C5_6  and  C7_9 
REMARK    5  A    between atoms: C10_14  and  N3_15 
REMARK    6  A    between atoms: N3_15  and  C11_16 
REMARK    7  A    between atoms: C14_19  and  O3_20 
ROOT
HETATM    1  C7  UNL     1      24.514   2.680  51.092  1.00  0.00     0.040 A 
HETATM    2  C8  UNL     1      25.788   3.173  50.902  1.00  0.00     0.132 A 
HETATM    3  N1  UNL     1      26.924   2.541  51.257  1.00  0.00    -0.253 NA
HETATM    4  C9  UNL     1      26.835   1.322  51.848  1.00  0.00     0.234 A 
HETATM    5  N2  UNL     1      25.603   0.823  52.042  1.00  0.00    -0.224 NA
HETATM    6  C10 UNL     1      24.469   1.438  51.695  1.00  0.00     0.136 A 
ENDROOT
BRANCH   6   7
HETATM    7  N3  UNL     1      23.222   0.813  51.949  1.00  0.00    -0.363 N 
HETATM    8  H14 UNL     1      22.656   0.229  51.308  1.00  0.00     0.162 HD
BRANCH   7   9
HETATM    9  C11 UNL     1      22.605   0.956  53.220  1.00  0.00     0.132 A 
HETATM   10  C12 UNL     1      21.120   1.191  53.113  1.00  0.00     0.005 A 
HETATM   11  C13 UNL     1      20.409   0.245  53.709  1.00  0.00     0.034 A 
HETATM   12  C14 UNL     1      21.349  -0.719  54.278  1.00  0.00     0.064 A 
HETATM   13  C15 UNL     1      22.582  -0.318  54.002  1.00  0.00     0.038 A 
BRANCH  12  14
HETATM   14  O3  UNL     1      21.002  -1.862  54.986  1.00  0.00    -0.361 OA
HETATM   15  H18 UNL     1      20.195  -2.437  54.738  1.00  0.00     0.217 HD
ENDBRANCH  12  14
ENDBRANCH   7   9
ENDBRANCH   6   7
BRANCH   1  16
HETATM   16  C5  UNL     1      23.356   3.461  50.666  1.00  0.00     0.215 C 
BRANCH  16  17
HETATM   17  C3  UNL     1      23.244   3.622  49.175  1.00  0.00     0.075 C 
HETATM   18  C2  UNL     1      22.592   2.736  48.402  1.00  0.00     0.004 C 
HETATM   19  C1  UNL     1      21.851   1.476  48.623  1.00  0.00     0.038 C 
BRANCH  17  20
HETATM   20  O1  UNL     1      23.843   4.737  48.581  1.00  0.00    -0.358 OA
HETATM   21  C4  UNL     1      23.111   5.724  47.887  1.00  0.00     0.209 C 
ENDBRANCH  17  20
ENDBRANCH  16  17
BRANCH  16  22
HETATM   22  O2  UNL     1      23.246   4.686  51.306  1.00  0.00    -0.379 OA
HETATM   23  C6  UNL     1      21.964   5.026  51.643  1.00  0.00     0.202 C 
ENDBRANCH  16  22
ENDBRANCH   1  16
TORSDOF 7
ENDMDL
MODEL 8
REMARK VINA RESULT:      -6.5      2.724      4.443
REMARK  7 active torsions:
REMARK  status: ('A' for Active; 'I' for Inactive)
REMARK    1  A    between atoms: C3_3  and  O1_4 
REMARK    2  A    between atoms: C3_3  and  C5_6 
REMARK    3  A    between atoms: C5_6  and  O2_7 
REMARK    4  A    between atoms: C5_6  and  C7_9 
REMARK    5  A    between atoms: C10_14  and  N3_15 
REMARK    6  A    between atoms: N3_15  and  C11_16 
REMARK    7  A    between atoms: C14_19  and  O3_20 
ROOT
HETATM    1  C7  UNL     1      22.106   2.462  51.918  1.00  0.00     0.040 A 
HETATM    2  C8  UNL     1      21.505   3.687  52.124  1.00  0.00     0.132 A 
HETATM    3  N1  UNL     1      22.153   4.821  52.456  1.00  0.00    -0.253 NA
HETATM    4  C9  UNL     1      23.502   4.782  52.606  1.00  0.00     0.234 A 
HETATM    5  N2  UNL     1      24.107   3.599  52.409  1.00  0.00    -0.224 NA
HETATM    6  C10 UNL     1      23.477   2.467  52.080  1.00  0.00     0.136 A 
ENDROOT
BRANCH   6   7
HETATM    7  N3  UNL     1      24.222   1.274  51.897  1.00  0.00    -0.363 N 
HETATM    8  H14 UNL     1      23.962   0.435  51.348  1.00  0.00     0.162 HD
BRANCH   7   9
HETATM    9  C11 UNL     1      25.495   1.133  52.511  1.00  0.00     0.132 A 
HETATM   10  C12 UNL     1      25.390   0.803  53.978  1.00  0.00     0.005 A 
HETATM   11  C13 UNL     1      25.950  -0.360  54.280  1.00  0.00     0.034 A 
HETATM   12  C14 UNL     1      26.487  -0.924  53.044  1.00  0.00     0.064 A 
HETATM   13  C15 UNL     1      26.231  -0.084  52.051  1.00  0.00     0.038 A 
BRANCH  12  14
HETATM   14  O3  UNL     1      27.154  -2.137  52.934  1.00  0.00    -0.361 OA
HETATM   15  H18 UNL     1      26.668  -3.035  52.973  1.00  0.00     0.217 HD
ENDBRANCH  12  14
ENDBRANCH   7   9
ENDBRANCH   6   7
BRANCH   1  16
HETATM   16  C5  UNL     1      21.295   1.301  51.564  1.00  0.00     0.215 C 
BRANCH  16  17
HETATM   17  C3  UNL     1      20.924   0.435  52.737  1.00  0.00     0.075 C 
HETATM   18  C2  UNL     1      19.716  -0.145  52.849  1.00  0.00     0.004 C 
HETATM   19  C1  UNL     1      18.477  -0.186  52.044  1.00  0.00     0.038 C 
BRANCH  17  20
HETATM   20  O1  UNL     1      21.877   0.233  53.740  1.00  0.00    -0.358 OA
HETATM   21  C4  UNL     1      22.211  -1.044  54.235  1.00  0.00     0.209 C 
ENDBRANCH  17  20
ENDBRANCH  16  17
BRANCH  16  22
HETATM   22  O2  UNL     1      21.832   0.540  50.537  1.00  0.00    -0.379 OA
HETATM   23  C6  UNL     1      21.403   0.902  49.290  1.00  0.00     0.202 C 
ENDBRANCH  16  22
ENDBRANCH   1  16
TORSDOF 7
ENDMDL
MODEL 9
REMARK VINA RESULT:      -6.5      2.800      5.494
REMARK  7 active torsions:
REMARK  status: ('A' for Active; 'I' for Inactive)
REMARK    1  A    between atoms: C3_3  and  O1_4 
REMARK    2  A    between atoms: C3_3  and  C5_6 
REMARK    3  A    between atoms: C5_6  and  O2_7 
REMARK    4  A    between atoms: C5_6  and  C7_9 
REMARK    5  A    between atoms: C10_14  and  N3_15 
REMARK    6  A    between atoms: N3_15  and  C11_16 
REMARK    7  A    between atoms: C14_19  and  O3_20 
ROOT
HETATM    1  C7  UNL     1      23.110   2.493  50.548  1.00  0.00     0.040 A 
HETATM    2  C8  UNL     1      22.573   3.123  49.445  1.00  0.00     0.132 A 
HETATM    3  N1  UNL     1      21.591   2.623  48.669  1.00  0.00    -0.253 NA
HETATM    4  C9  UNL     1      21.074   1.405  48.975  1.00  0.00     0.234 A 
HETATM    5  N2  UNL     1      21.584   0.774  50.046  1.00  0.00    -0.224 NA
HETATM    6  C10 UNL     1      22.556   1.259  50.824  1.00  0.00     0.136 A 
ENDROOT
BRANCH   6   7
HETATM    7  N3  UNL     1      23.016   0.502  51.932  1.00  0.00    -0.363 N 
HETATM    8  H14 UNL     1      23.858  -0.098  51.991  1.00  0.00     0.162 HD
BRANCH   7   9
HETATM    9  C11 UNL     1      22.286   0.515  53.149  1.00  0.00     0.132 A 
HETATM   10  C12 UNL     1      21.120  -0.441  53.130  1.00  0.00     0.005 A 
HETATM   11  C13 UNL     1      21.210  -1.375  54.065  1.00  0.00     0.034 A 
HETATM   12  C14 UNL     1      22.446  -1.136  54.807  1.00  0.00     0.064 A 
HETATM   13  C15 UNL     1      23.049  -0.074  54.292  1.00  0.00     0.038 A 
BRANCH  12  14
HETATM   14  O3  UNL     1      22.907  -1.898  55.873  1.00  0.00    -0.361 OA
HETATM   15  H18 UNL     1      23.551  -2.681  55.749  1.00  0.00     0.217 HD
ENDBRANCH  12  14
ENDBRANCH   7   9
ENDBRANCH   6   7
BRANCH   1  16
HETATM   16  C5  UNL     1      24.176   3.137  51.310  1.00  0.00     0.215 C 
BRANCH  16  17
HETATM   17  C3  UNL     1      25.511   2.454  51.189  1.00  0.00     0.075 C 
HETATM   18  C2  UNL     1      26.467   2.886  50.347  1.00  0.00     0.004 C 
HETATM   19  C1  UNL     1      26.606   3.989  49.374  1.00  0.00     0.038 C 
BRANCH  17  20
HETATM   20  O1  UNL     1      25.756   1.331  51.984  1.00  0.00    -0.358 OA
HETATM   21  C4  UNL     1      27.054   0.926  52.363  1.00  0.00     0.209 C 
ENDBRANCH  17  20
ENDBRANCH  16  17
BRANCH  16  22
HETATM   22  O2  UNL     1      23.853   3.359  52.640  1.00  0.00    -0.379 OA
HETATM   23  C6  UNL     1      23.478   4.645  52.917  1.00  0.00     0.202 C 
ENDBRANCH  16  22
ENDBRANCH   1  16
TORSDOF 7
ENDMDL
