MODEL 1
REMARK VINA RESULT:      -7.3      0.000      0.000
REMARK  11 active torsions:
REMARK  status: ('A' for Active; 'I' for Inactive)
REMARK    1  A    between atoms: N1_1  and  C1_2 
REMARK    2  A    between atoms: C1_2  and  C2_3 
REMARK    3  A    between atoms: C1_2  and  N2_7 
REMARK    4  A    between atoms: C2_3  and  C3_4 
REMARK    5  A    between atoms: C3_4  and  C4_5 
REMARK    6  A    between atoms: N2_7  and  C5_8 
REMARK    7  A    between atoms: N2_7  and  C11_16 
REMARK    8  A    between atoms: C5_8  and  C6_9 
REMARK    9  A    between atoms: C10_14  and  O1_15 
REMARK   10  A    between atoms: C11_16  and  C12_17 
REMARK   11  A    between atoms: C15_20  and  O2_21 
ROOT
HETATM    1  N2  UNL     1      25.397   1.449  53.053  1.00  0.00     0.119 N 
ENDROOT
BRANCH   1   2
HETATM    2  C1  UNL     1      26.403   1.559  54.121  1.00  0.00     0.319 C 
BRANCH   2   3
HETATM    3  N1  UNL     1      27.413   2.520  53.883  1.00  0.00    -0.402 N 
HETATM    4  H1  UNL     1      27.388   3.382  54.435  1.00  0.00     0.152 HD
HETATM    5  H2  UNL     1      27.749   2.622  52.901  1.00  0.00     0.152 HD
ENDBRANCH   2   3
BRANCH   2   6
HETATM    6  C2  UNL     1      26.995   0.260  54.536  1.00  0.00     0.086 C 
BRANCH   6   7
HETATM    7  C3  UNL     1      28.430   0.252  54.197  1.00  0.00     0.006 C 
BRANCH   7   8
HETATM    8  C4  UNL     1      29.587  -0.167  53.743  1.00  0.00     0.184 C 
HETATM    9  F1  UNL     1      29.657  -1.323  52.991  1.00  0.00    -0.220 F 
ENDBRANCH   7   8
ENDBRANCH   6   7
ENDBRANCH   2   6
ENDBRANCH   1   2
BRANCH   1  10
HETATM   10  C5  UNL     1      26.099   1.866  51.869  1.00  0.00     0.317 C 
BRANCH  10  11
HETATM   11  C6  UNL     1      25.303   2.646  50.919  1.00  0.00     0.016 C 
HETATM   12  C7  UNL     1      24.106   2.840  50.387  1.00  0.00    -0.013 C 
HETATM   13  C8  UNL     1      23.906   3.994  49.830  1.00  0.00     0.039 C 
HETATM   14  C9  UNL     1      25.246   4.509  49.586  1.00  0.00     0.068 C 
HETATM   15 CL1  UNL     1      25.504   5.936  48.593  1.00  0.00    -0.081 Cl
HETATM   16  C10 UNL     1      26.075   3.706  50.233  1.00  0.00     0.096 C 
BRANCH  16  17
HETATM   17  O1  UNL     1      27.437   4.039  50.118  1.00  0.00    -0.358 OA
HETATM   18  H11 UNL     1      27.665   5.021  49.941  1.00  0.00     0.217 HD
ENDBRANCH  16  17
ENDBRANCH  10  11
ENDBRANCH   1  10
BRANCH   1  19
HETATM   19  C11 UNL     1      24.905   0.095  53.010  1.00  0.00     0.314 C 
BRANCH  19  20
HETATM   20  C12 UNL     1      23.485  -0.139  53.245  1.00  0.00    -0.030 A 
HETATM   21  C13 UNL     1      22.514   0.306  52.336  1.00  0.00     0.011 A 
HETATM   22  C14 UNL     1      21.181   0.012  52.642  1.00  0.00     0.037 A 
HETATM   23  C15 UNL     1      20.841  -0.685  53.788  1.00  0.00     0.065 A 
HETATM   24  C16 UNL     1      21.834  -1.111  54.670  1.00  0.00     0.037 A 
HETATM   25  C17 UNL     1      23.159  -0.843  54.409  1.00  0.00     0.011 A 
BRANCH  23  26
HETATM   26  O2  UNL     1      19.493  -0.957  54.053  1.00  0.00    -0.361 OA
HETATM   27  H16 UNL     1      18.811  -0.882  53.334  1.00  0.00     0.217 HD
ENDBRANCH  23  26
ENDBRANCH  19  20
ENDBRANCH   1  19
TORSDOF 11
ENDMDL
MODEL 2
REMARK VINA RESULT:      -7.3      3.259      5.082
REMARK  11 active torsions:
REMARK  status: ('A' for Active; 'I' for Inactive)
REMARK    1  A    between atoms: N1_1  and  C1_2 
REMARK    2  A    between atoms: C1_2  and  C2_3 
REMARK    3  A    between atoms: C1_2  and  N2_7 
REMARK    4  A    between atoms: C2_3  and  C3_4 
REMARK    5  A    between atoms: C3_4  and  C4_5 
REMARK    6  A    between atoms: N2_7  and  C5_8 
REMARK    7  A    between atoms: N2_7  and  C11_16 
REMARK    8  A    between atoms: C5_8  and  C6_9 
REMARK    9  A    between atoms: C10_14  and  O1_15 
REMARK   10  A    between atoms: C11_16  and  C12_17 
REMARK   11  A    between atoms: C15_20  and  O2_21 
ROOT
HETATM    1  N2  UNL     1      24.151   2.145  51.362  1.00  0.00     0.119 N 
ENDROOT
BRANCH   1   2
HETATM    2  C1  UNL     1      23.764   3.326  50.574  1.00  0.00     0.319 C 
BRANCH   2   3
HETATM    3  N1  UNL     1      22.916   4.234  51.250  1.00  0.00    -0.402 N 
HETATM    4  H1  UNL     1      23.267   4.658  52.113  1.00  0.00     0.152 HD
HETATM    5  H2  UNL     1      21.893   4.034  51.229  1.00  0.00     0.152 HD
ENDBRANCH   2   3
BRANCH   2   6
HETATM    6  C2  UNL     1      23.230   3.008  49.224  1.00  0.00     0.086 C 
BRANCH   6   7
HETATM    7  C3  UNL     1      22.383   1.805  49.309  1.00  0.00     0.006 C 
BRANCH   7   8
HETATM    8  C4  UNL     1      21.308   1.054  49.344  1.00  0.00     0.184 C 
HETATM    9  F1  UNL     1      21.258  -0.043  50.181  1.00  0.00    -0.220 F 
ENDBRANCH   7   8
ENDBRANCH   6   7
ENDBRANCH   2   6
ENDBRANCH   1   2
BRANCH   1  10
HETATM   10  C5  UNL     1      25.588   2.207  51.399  1.00  0.00     0.317 C 
BRANCH  10  11
HETATM   11  C6  UNL     1      26.240   1.083  52.075  1.00  0.00     0.016 C 
HETATM   12  C7  UNL     1      26.463  -0.222  52.071  1.00  0.00    -0.013 C 
HETATM   13  C8  UNL     1      27.487  -0.631  52.754  1.00  0.00     0.039 C 
HETATM   14  C9  UNL     1      27.766   0.467  53.670  1.00  0.00     0.068 C 
HETATM   15 CL1  UNL     1      28.904   0.278  54.995  1.00  0.00    -0.081 Cl
HETATM   16  C10 UNL     1      27.024   1.485  53.264  1.00  0.00     0.096 C 
BRANCH  16  17
HETATM   17  O1  UNL     1      27.152   2.657  54.032  1.00  0.00    -0.358 OA
HETATM   18  H11 UNL     1      27.809   3.366  53.696  1.00  0.00     0.217 HD
ENDBRANCH  16  17
ENDBRANCH  10  11
ENDBRANCH   1  10
BRANCH   1  19
HETATM   19  C11 UNL     1      23.517   2.215  52.654  1.00  0.00     0.314 C 
BRANCH  19  20
HETATM   20  C12 UNL     1      22.607   1.144  53.043  1.00  0.00    -0.030 A 
HETATM   21  C13 UNL     1      23.086  -0.127  53.391  1.00  0.00     0.011 A 
HETATM   22  C14 UNL     1      22.132  -1.078  53.771  1.00  0.00     0.037 A 
HETATM   23  C15 UNL     1      20.783  -0.776  53.801  1.00  0.00     0.065 A 
HETATM   24  C16 UNL     1      20.343   0.500  53.447  1.00  0.00     0.037 A 
HETATM   25  C17 UNL     1      21.245   1.468  53.066  1.00  0.00     0.011 A 
BRANCH  23  26
HETATM   26  O2  UNL     1      19.865  -1.759  54.188  1.00  0.00    -0.361 OA
HETATM   27  H16 UNL     1      20.133  -2.716  54.221  1.00  0.00     0.217 HD
ENDBRANCH  23  26
ENDBRANCH  19  20
ENDBRANCH   1  19
TORSDOF 11
ENDMDL
MODEL 3
REMARK VINA RESULT:      -7.2      1.546      1.940
REMARK  11 active torsions:
REMARK  status: ('A' for Active; 'I' for Inactive)
REMARK    1  A    between atoms: N1_1  and  C1_2 
REMARK    2  A    between atoms: C1_2  and  C2_3 
REMARK    3  A    between atoms: C1_2  and  N2_7 
REMARK    4  A    between atoms: C2_3  and  C3_4 
REMARK    5  A    between atoms: C3_4  and  C4_5 
REMARK    6  A    between atoms: N2_7  and  C5_8 
REMARK    7  A    between atoms: N2_7  and  C11_16 
REMARK    8  A    between atoms: C5_8  and  C6_9 
REMARK    9  A    between atoms: C10_14  and  O1_15 
REMARK   10  A    between atoms: C11_16  and  C12_17 
REMARK   11  A    between atoms: C15_20  and  O2_21 
ROOT
HETATM    1  N2  UNL     1      25.154   1.520  53.264  1.00  0.00     0.119 N 
ENDROOT
BRANCH   1   2
HETATM    2  C1  UNL     1      26.287   1.517  54.204  1.00  0.00     0.319 C 
BRANCH   2   3
HETATM    3  N1  UNL     1      27.265   2.508  53.952  1.00  0.00    -0.402 N 
HETATM    4  H1  UNL     1      28.140   2.455  54.480  1.00  0.00     0.152 HD
HETATM    5  H2  UNL     1      26.922   3.470  53.742  1.00  0.00     0.152 HD
ENDBRANCH   2   3
BRANCH   2   6
HETATM    6  C2  UNL     1      26.920   0.185  54.390  1.00  0.00     0.086 C 
BRANCH   6   7
HETATM    7  C3  UNL     1      28.363   0.291  54.111  1.00  0.00     0.006 C 
BRANCH   7   8
HETATM    8  C4  UNL     1      29.574  -0.044  53.735  1.00  0.00     0.184 C 
HETATM    9  F1  UNL     1      29.771  -1.175  52.967  1.00  0.00    -0.220 F 
ENDBRANCH   7   8
ENDBRANCH   6   7
ENDBRANCH   2   6
ENDBRANCH   1   2
BRANCH   1  10
HETATM   10  C5  UNL     1      25.676   2.174  52.093  1.00  0.00     0.317 C 
BRANCH  10  11
HETATM   11  C6  UNL     1      24.676   2.849  51.263  1.00  0.00     0.016 C 
HETATM   12  C7  UNL     1      24.087   2.905  50.078  1.00  0.00    -0.013 C 
HETATM   13  C8  UNL     1      22.937   3.504  50.037  1.00  0.00     0.039 C 
HETATM   14  C9  UNL     1      22.913   4.314  51.248  1.00  0.00     0.068 C 
HETATM   15 CL1  UNL     1      21.667   5.524  51.506  1.00  0.00    -0.081 Cl
HETATM   16  C10 UNL     1      23.948   3.923  51.974  1.00  0.00     0.096 C 
BRANCH  16  17
HETATM   17  O1  UNL     1      24.102   4.597  53.200  1.00  0.00    -0.358 OA
HETATM   18  H11 UNL     1      23.693   4.157  54.030  1.00  0.00     0.217 HD
ENDBRANCH  16  17
ENDBRANCH  10  11
ENDBRANCH   1  10
BRANCH   1  19
HETATM   19  C11 UNL     1      24.721   0.164  53.047  1.00  0.00     0.314 C 
BRANCH  19  20
HETATM   20  C12 UNL     1      23.329  -0.175  53.319  1.00  0.00    -0.030 A 
HETATM   21  C13 UNL     1      22.967  -0.900  54.465  1.00  0.00     0.011 A 
HETATM   22  C14 UNL     1      21.603  -1.155  54.645  1.00  0.00     0.037 A 
HETATM   23  C15 UNL     1      20.659  -0.711  53.735  1.00  0.00     0.065 A 
HETATM   24  C16 UNL     1      21.056   0.006  52.607  1.00  0.00     0.037 A 
HETATM   25  C17 UNL     1      22.388   0.280  52.388  1.00  0.00     0.011 A 
BRANCH  23  26
HETATM   26  O2  UNL     1      19.305  -0.989  53.958  1.00  0.00    -0.361 OA
HETATM   27  H16 UNL     1      19.032  -1.805  54.456  1.00  0.00     0.217 HD
ENDBRANCH  23  26
ENDBRANCH  19  20
ENDBRANCH   1  19
TORSDOF 11
ENDMDL
MODEL 4
REMARK VINA RESULT:      -7.1      2.657      5.642
REMARK  11 active torsions:
REMARK  status: ('A' for Active; 'I' for Inactive)
REMARK    1  A    between atoms: N1_1  and  C1_2 
REMARK    2  A    between atoms: C1_2  and  C2_3 
REMARK    3  A    between atoms: C1_2  and  N2_7 
REMARK    4  A    between atoms: C2_3  and  C3_4 
REMARK    5  A    between atoms: C3_4  and  C4_5 
REMARK    6  A    between atoms: N2_7  and  C5_8 
REMARK    7  A    between atoms: N2_7  and  C11_16 
REMARK    8  A    between atoms: C5_8  and  C6_9 
REMARK    9  A    between atoms: C10_14  and  O1_15 
REMARK   10  A    between atoms: C11_16  and  C12_17 
REMARK   11  A    between atoms: C15_20  and  O2_21 
ROOT
HETATM    1  N2  UNL     1      24.961   0.001  53.143  1.00  0.00     0.119 N 
ENDROOT
BRANCH   1   2
HETATM    2  C1  UNL     1      26.015  -0.871  53.684  1.00  0.00     0.319 C 
BRANCH   2   3
HETATM    3  N1  UNL     1      26.627  -0.393  54.867  1.00  0.00    -0.402 N 
HETATM    4  H1  UNL     1      27.428   0.235  54.765  1.00  0.00     0.152 HD
HETATM    5  H2  UNL     1      26.666  -1.047  55.678  1.00  0.00     0.152 HD
ENDBRANCH   2   3
BRANCH   2   6
HETATM    6  C2  UNL     1      27.038  -1.280  52.687  1.00  0.00     0.086 C 
BRANCH   6   7
HETATM    7  C3  UNL     1      28.379  -0.968  53.213  1.00  0.00     0.006 C 
BRANCH   7   8
HETATM    8  C4  UNL     1      29.634  -1.123  53.558  1.00  0.00     0.184 C 
HETATM    9  F1  UNL     1      30.514  -0.063  53.461  1.00  0.00    -0.220 F 
ENDBRANCH   7   8
ENDBRANCH   6   7
ENDBRANCH   2   6
ENDBRANCH   1   2
BRANCH   1  10
HETATM   10  C5  UNL     1      23.769  -0.430  53.825  1.00  0.00     0.317 C 
BRANCH  10  11
HETATM   11  C6  UNL     1      22.512  -0.065  53.167  1.00  0.00     0.016 C 
HETATM   12  C7  UNL     1      21.946   0.590  52.165  1.00  0.00    -0.013 C 
HETATM   13  C8  UNL     1      20.741   0.229  51.851  1.00  0.00     0.039 C 
HETATM   14  C9  UNL     1      20.262  -0.480  53.030  1.00  0.00     0.068 C 
HETATM   15 CL1  UNL     1      18.572  -0.929  53.196  1.00  0.00    -0.081 Cl
HETATM   16  C10 UNL     1      21.317  -0.652  53.811  1.00  0.00     0.096 C 
BRANCH  16  17
HETATM   17  O1  UNL     1      21.058  -1.326  55.019  1.00  0.00    -0.358 OA
HETATM   18  H11 UNL     1      20.451  -0.855  55.696  1.00  0.00     0.217 HD
ENDBRANCH  16  17
ENDBRANCH  10  11
ENDBRANCH   1  10
BRANCH   1  19
HETATM   19  C11 UNL     1      25.320   1.375  53.383  1.00  0.00     0.314 C 
BRANCH  19  20
HETATM   20  C12 UNL     1      25.429   2.277  52.242  1.00  0.00    -0.030 A 
HETATM   21  C13 UNL     1      26.491   2.173  51.331  1.00  0.00     0.011 A 
HETATM   22  C14 UNL     1      26.492   3.070  50.258  1.00  0.00     0.037 A 
HETATM   23  C15 UNL     1      25.492   4.015  50.106  1.00  0.00     0.065 A 
HETATM   24  C16 UNL     1      24.452   4.090  51.033  1.00  0.00     0.037 A 
HETATM   25  C17 UNL     1      24.410   3.226  52.105  1.00  0.00     0.011 A 
BRANCH  23  26
HETATM   26  O2  UNL     1      25.534   4.892  49.016  1.00  0.00    -0.361 OA
HETATM   27  H16 UNL     1      26.385   5.334  48.755  1.00  0.00     0.217 HD
ENDBRANCH  23  26
ENDBRANCH  19  20
ENDBRANCH   1  19
TORSDOF 11
ENDMDL
MODEL 5
REMARK VINA RESULT:      -7.0      3.148      5.516
REMARK  11 active torsions:
REMARK  status: ('A' for Active; 'I' for Inactive)
REMARK    1  A    between atoms: N1_1  and  C1_2 
REMARK    2  A    between atoms: C1_2  and  C2_3 
REMARK    3  A    between atoms: C1_2  and  N2_7 
REMARK    4  A    between atoms: C2_3  and  C3_4 
REMARK    5  A    between atoms: C3_4  and  C4_5 
REMARK    6  A    between atoms: N2_7  and  C5_8 
REMARK    7  A    between atoms: N2_7  and  C11_16 
REMARK    8  A    between atoms: C5_8  and  C6_9 
REMARK    9  A    between atoms: C10_14  and  O1_15 
REMARK   10  A    between atoms: C11_16  and  C12_17 
REMARK   11  A    between atoms: C15_20  and  O2_21 
ROOT
HETATM    1  N2  UNL     1      23.694   0.308  53.126  1.00  0.00     0.119 N 
ENDROOT
BRANCH   1   2
HETATM    2  C1  UNL     1      22.287   0.339  53.558  1.00  0.00     0.319 C 
BRANCH   2   3
HETATM    3  N1  UNL     1      21.980  -0.529  54.631  1.00  0.00    -0.402 N 
HETATM    4  H1  UNL     1      22.761  -0.989  55.108  1.00  0.00     0.152 HD
HETATM    5  H2  UNL     1      21.106  -1.092  54.551  1.00  0.00     0.152 HD
ENDBRANCH   2   3
BRANCH   2   6
HETATM    6  C2  UNL     1      21.308   0.181  52.451  1.00  0.00     0.086 C 
BRANCH   6   7
HETATM    7  C3  UNL     1      20.558   1.439  52.286  1.00  0.00     0.006 C 
BRANCH   7   8
HETATM    8  C4  UNL     1      20.198   2.690  52.446  1.00  0.00     0.184 C 
HETATM    9  F1  UNL     1      21.112   3.704  52.238  1.00  0.00    -0.220 F 
ENDBRANCH   7   8
ENDBRANCH   6   7
ENDBRANCH   2   6
ENDBRANCH   1   2
BRANCH   1  10
HETATM   10  C5  UNL     1      24.055   1.697  53.013  1.00  0.00     0.317 C 
BRANCH  10  11
HETATM   11  C6  UNL     1      24.253   2.176  51.644  1.00  0.00     0.016 C 
HETATM   12  C7  UNL     1      23.689   2.405  50.467  1.00  0.00    -0.013 C 
HETATM   13  C8  UNL     1      24.307   3.237  49.688  1.00  0.00     0.039 C 
HETATM   14  C9  UNL     1      25.664   3.280  50.215  1.00  0.00     0.068 C 
HETATM   15 CL1  UNL     1      26.959   4.067  49.327  1.00  0.00    -0.081 Cl
HETATM   16  C10 UNL     1      25.629   2.648  51.377  1.00  0.00     0.096 C 
BRANCH  16  17
HETATM   17  O1  UNL     1      26.862   2.578  52.053  1.00  0.00    -0.358 OA
HETATM   18  H11 UNL     1      27.227   3.448  52.450  1.00  0.00     0.217 HD
ENDBRANCH  16  17
ENDBRANCH  10  11
ENDBRANCH   1  10
BRANCH   1  19
HETATM   19  C11 UNL     1      24.465  -0.432  54.093  1.00  0.00     0.314 C 
BRANCH  19  20
HETATM   20  C12 UNL     1      25.920  -0.397  53.999  1.00  0.00    -0.030 A 
HETATM   21  C13 UNL     1      26.696   0.254  54.969  1.00  0.00     0.011 A 
HETATM   22  C14 UNL     1      28.084   0.211  54.799  1.00  0.00     0.037 A 
HETATM   23  C15 UNL     1      28.660  -0.443  53.724  1.00  0.00     0.065 A 
HETATM   24  C16 UNL     1      27.856  -1.079  52.778  1.00  0.00     0.037 A 
HETATM   25  C17 UNL     1      26.485  -1.062  52.905  1.00  0.00     0.011 A 
BRANCH  23  26
HETATM   26  O2  UNL     1      30.054  -0.460  53.596  1.00  0.00    -0.361 OA
HETATM   27  H16 UNL     1      30.595  -1.163  54.045  1.00  0.00     0.217 HD
ENDBRANCH  23  26
ENDBRANCH  19  20
ENDBRANCH   1  19
TORSDOF 11
ENDMDL
MODEL 6
REMARK VINA RESULT:      -6.9      2.802      4.764
REMARK  11 active torsions:
REMARK  status: ('A' for Active; 'I' for Inactive)
REMARK    1  A    between atoms: N1_1  and  C1_2 
REMARK    2  A    between atoms: C1_2  and  C2_3 
REMARK    3  A    between atoms: C1_2  and  N2_7 
REMARK    4  A    between atoms: C2_3  and  C3_4 
REMARK    5  A    between atoms: C3_4  and  C4_5 
REMARK    6  A    between atoms: N2_7  and  C5_8 
REMARK    7  A    between atoms: N2_7  and  C11_16 
REMARK    8  A    between atoms: C5_8  and  C6_9 
REMARK    9  A    between atoms: C10_14  and  O1_15 
REMARK   10  A    between atoms: C11_16  and  C12_17 
REMARK   11  A    between atoms: C15_20  and  O2_21 
ROOT
HETATM    1  N2  UNL     1      25.007   2.324  51.408  1.00  0.00     0.119 N 
ENDROOT
BRANCH   1   2
HETATM    2  C1  UNL     1      24.073   2.987  52.332  1.00  0.00     0.319 C 
BRANCH   2   3
HETATM    3  N1  UNL     1      24.663   3.459  53.528  1.00  0.00    -0.402 N 
HETATM    4  H1  UNL     1      24.228   4.265  53.986  1.00  0.00     0.152 HD
HETATM    5  H2  UNL     1      25.702   3.407  53.598  1.00  0.00     0.152 HD
ENDBRANCH   2   3
BRANCH   2   6
HETATM    6  C2  UNL     1      22.844   2.203  52.621  1.00  0.00     0.086 C 
BRANCH   6   7
HETATM    7  C3  UNL     1      23.222   0.822  52.971  1.00  0.00     0.006 C 
BRANCH   7   8
HETATM    8  C4  UNL     1      23.260  -0.320  53.614  1.00  0.00     0.184 C 
HETATM    9  F1  UNL     1      24.362  -0.646  54.381  1.00  0.00    -0.220 F 
ENDBRANCH   7   8
ENDBRANCH   6   7
ENDBRANCH   2   6
ENDBRANCH   1   2
BRANCH   1  10
HETATM   10  C5  UNL     1      24.772   2.979  50.148  1.00  0.00     0.317 C 
BRANCH  10  11
HETATM   11  C6  UNL     1      25.837   3.885  49.712  1.00  0.00     0.016 C 
HETATM   12  C7  UNL     1      27.032   3.987  49.151  1.00  0.00    -0.013 C 
HETATM   13  C8  UNL     1      27.334   5.145  48.652  1.00  0.00     0.039 C 
HETATM   14  C9  UNL     1      26.410   6.065  49.299  1.00  0.00     0.068 C 
HETATM   15 CL1  UNL     1      26.607   7.804  49.152  1.00  0.00    -0.081 Cl
HETATM   16  C10 UNL     1      25.521   5.314  49.929  1.00  0.00     0.096 C 
BRANCH  16  17
HETATM   17  O1  UNL     1      24.528   6.026  50.628  1.00  0.00    -0.358 OA
HETATM   18  H11 UNL     1      23.948   5.497  51.285  1.00  0.00     0.217 HD
ENDBRANCH  16  17
ENDBRANCH  10  11
ENDBRANCH   1  10
BRANCH   1  19
HETATM   19  C11 UNL     1      26.348   2.468  51.913  1.00  0.00     0.314 C 
BRANCH  19  20
HETATM   20  C12 UNL     1      27.058   1.273  52.356  1.00  0.00    -0.030 A 
HETATM   21  C13 UNL     1      28.208   1.364  53.155  1.00  0.00     0.011 A 
HETATM   22  C14 UNL     1      28.802   0.159  53.545  1.00  0.00     0.037 A 
HETATM   23  C15 UNL     1      28.277  -1.063  53.159  1.00  0.00     0.065 A 
HETATM   24  C16 UNL     1      27.133  -1.114  52.364  1.00  0.00     0.037 A 
HETATM   25  C17 UNL     1      26.515   0.047  51.956  1.00  0.00     0.011 A 
BRANCH  23  26
HETATM   26  O2  UNL     1      28.906  -2.243  53.574  1.00  0.00    -0.361 OA
HETATM   27  H16 UNL     1      29.075  -2.414  54.539  1.00  0.00     0.217 HD
ENDBRANCH  23  26
ENDBRANCH  19  20
ENDBRANCH   1  19
TORSDOF 11
ENDMDL
MODEL 7
REMARK VINA RESULT:      -6.8      3.281      5.007
REMARK  11 active torsions:
REMARK  status: ('A' for Active; 'I' for Inactive)
REMARK    1  A    between atoms: N1_1  and  C1_2 
REMARK    2  A    between atoms: C1_2  and  C2_3 
REMARK    3  A    between atoms: C1_2  and  N2_7 
REMARK    4  A    between atoms: C2_3  and  C3_4 
REMARK    5  A    between atoms: C3_4  and  C4_5 
REMARK    6  A    between atoms: N2_7  and  C5_8 
REMARK    7  A    between atoms: N2_7  and  C11_16 
REMARK    8  A    between atoms: C5_8  and  C6_9 
REMARK    9  A    between atoms: C10_14  and  O1_15 
REMARK   10  A    between atoms: C11_16  and  C12_17 
REMARK   11  A    between atoms: C15_20  and  O2_21 
ROOT
HETATM    1  N2  UNL     1      24.731   1.694  51.590  1.00  0.00     0.119 N 
ENDROOT
BRANCH   1   2
HETATM    2  C1  UNL     1      24.492   2.808  50.658  1.00  0.00     0.319 C 
BRANCH   2   3
HETATM    3  N1  UNL     1      23.386   2.627  49.795  1.00  0.00    -0.402 N 
HETATM    4  H1  UNL     1      22.806   1.795  49.934  1.00  0.00     0.152 HD
HETATM    5  H2  UNL     1      23.499   2.938  48.806  1.00  0.00     0.152 HD
ENDBRANCH   2   3
BRANCH   2   6
HETATM    6  C2  UNL     1      25.694   3.233  49.896  1.00  0.00     0.086 C 
BRANCH   6   7
HETATM    7  C3  UNL     1      25.536   4.641  49.488  1.00  0.00     0.006 C 
BRANCH   7   8
HETATM    8  C4  UNL     1      25.222   5.913  49.544  1.00  0.00     0.184 C 
HETATM    9  F1  UNL     1      25.884   6.750  50.420  1.00  0.00    -0.220 F 
ENDBRANCH   7   8
ENDBRANCH   6   7
ENDBRANCH   2   6
ENDBRANCH   1   2
BRANCH   1  10
HETATM   10  C5  UNL     1      26.161   1.674  51.748  1.00  0.00     0.317 C 
BRANCH  10  11
HETATM   11  C6  UNL     1      26.701   0.455  52.355  1.00  0.00     0.016 C 
HETATM   12  C7  UNL     1      26.484  -0.820  52.639  1.00  0.00    -0.013 C 
HETATM   13  C8  UNL     1      27.536  -1.542  52.871  1.00  0.00     0.039 C 
HETATM   14  C9  UNL     1      28.574  -0.571  53.186  1.00  0.00     0.068 C 
HETATM   15 CL1  UNL     1      30.124  -1.077  53.840  1.00  0.00    -0.081 Cl
HETATM   16  C10 UNL     1      28.075   0.616  52.879  1.00  0.00     0.096 C 
BRANCH  16  17
HETATM   17  O1  UNL     1      28.937   1.703  53.116  1.00  0.00    -0.358 OA
HETATM   18  H11 UNL     1      29.921   1.583  52.861  1.00  0.00     0.217 HD
ENDBRANCH  16  17
ENDBRANCH  10  11
ENDBRANCH   1  10
BRANCH   1  19
HETATM   19  C11 UNL     1      24.000   1.936  52.807  1.00  0.00     0.314 C 
BRANCH  19  20
HETATM   20  C12 UNL     1      22.882   1.058  53.135  1.00  0.00    -0.030 A 
HETATM   21  C13 UNL     1      21.563   1.405  52.806  1.00  0.00     0.011 A 
HETATM   22  C14 UNL     1      20.566   0.485  53.145  1.00  0.00     0.037 A 
HETATM   23  C15 UNL     1      20.869  -0.711  53.773  1.00  0.00     0.065 A 
HETATM   24  C16 UNL     1      22.193  -1.022  54.085  1.00  0.00     0.037 A 
HETATM   25  C17 UNL     1      23.207  -0.145  53.771  1.00  0.00     0.011 A 
BRANCH  23  26
HETATM   26  O2  UNL     1      19.837  -1.601  54.091  1.00  0.00    -0.361 OA
HETATM   27  H16 UNL     1      19.031  -1.669  53.514  1.00  0.00     0.217 HD
ENDBRANCH  23  26
ENDBRANCH  19  20
ENDBRANCH   1  19
TORSDOF 11
ENDMDL
MODEL 8
REMARK VINA RESULT:      -6.7      3.256      4.900
REMARK  11 active torsions:
REMARK  status: ('A' for Active; 'I' for Inactive)
REMARK    1  A    between atoms: N1_1  and  C1_2 
REMARK    2  A    between atoms: C1_2  and  C2_3 
REMARK    3  A    between atoms: C1_2  and  N2_7 
REMARK    4  A    between atoms: C2_3  and  C3_4 
REMARK    5  A    between atoms: C3_4  and  C4_5 
REMARK    6  A    between atoms: N2_7  and  C5_8 
REMARK    7  A    between atoms: N2_7  and  C11_16 
REMARK    8  A    between atoms: C5_8  and  C6_9 
REMARK    9  A    between atoms: C10_14  and  O1_15 
REMARK   10  A    between atoms: C11_16  and  C12_17 
REMARK   11  A    between atoms: C15_20  and  O2_21 
ROOT
HETATM    1  N2  UNL     1      24.649   2.948  51.069  1.00  0.00     0.119 N 
ENDROOT
BRANCH   1   2
HETATM    2  C1  UNL     1      25.545   4.023  50.610  1.00  0.00     0.319 C 
BRANCH   2   3
HETATM    3  N1  UNL     1      25.055   5.332  50.830  1.00  0.00    -0.402 N 
HETATM    4  H1  UNL     1      25.196   5.742  51.757  1.00  0.00     0.152 HD
HETATM    5  H2  UNL     1      24.166   5.592  50.352  1.00  0.00     0.152 HD
ENDBRANCH   2   3
BRANCH   2   6
HETATM    6  C2  UNL     1      26.021   3.863  49.212  1.00  0.00     0.086 C 
BRANCH   6   7
HETATM    7  C3  UNL     1      27.218   4.701  49.010  1.00  0.00     0.006 C 
BRANCH   7   8
HETATM    8  C4  UNL     1      28.135   5.413  48.401  1.00  0.00     0.184 C 
HETATM    9  F1  UNL     1      29.280   4.804  47.926  1.00  0.00    -0.220 F 
ENDBRANCH   7   8
ENDBRANCH   6   7
ENDBRANCH   2   6
ENDBRANCH   1   2
BRANCH   1  10
HETATM   10  C5  UNL     1      25.054   2.715  52.430  1.00  0.00     0.317 C 
BRANCH  10  11
HETATM   11  C6  UNL     1      25.836   1.495  52.644  1.00  0.00     0.016 C 
HETATM   12  C7  UNL     1      25.905   0.187  52.454  1.00  0.00    -0.013 C 
HETATM   13  C8  UNL     1      27.084  -0.345  52.541  1.00  0.00     0.039 C 
HETATM   14  C9  UNL     1      27.865   0.640  53.278  1.00  0.00     0.068 C 
HETATM   15 CL1  UNL     1      29.468   0.257  53.887  1.00  0.00    -0.081 Cl
HETATM   16  C10 UNL     1      27.121   1.732  53.338  1.00  0.00     0.096 C 
BRANCH  16  17
HETATM   17  O1  UNL     1      27.706   2.814  54.022  1.00  0.00    -0.358 OA
HETATM   18  H11 UNL     1      28.547   3.228  53.609  1.00  0.00     0.217 HD
ENDBRANCH  16  17
ENDBRANCH  10  11
ENDBRANCH   1  10
BRANCH   1  19
HETATM   19  C11 UNL     1      23.283   3.380  50.918  1.00  0.00     0.314 C 
BRANCH  19  20
HETATM   20  C12 UNL     1      22.216   2.467  51.313  1.00  0.00    -0.030 A 
HETATM   21  C13 UNL     1      21.298   2.812  52.316  1.00  0.00     0.011 A 
HETATM   22  C14 UNL     1      20.299   1.876  52.605  1.00  0.00     0.037 A 
HETATM   23  C15 UNL     1      20.224   0.669  51.932  1.00  0.00     0.065 A 
HETATM   24  C16 UNL     1      21.155   0.360  50.941  1.00  0.00     0.037 A 
HETATM   25  C17 UNL     1      22.156   1.251  50.623  1.00  0.00     0.011 A 
BRANCH  23  26
HETATM   26  O2  UNL     1      19.206  -0.236  52.255  1.00  0.00    -0.361 OA
HETATM   27  H16 UNL     1      18.297   0.088  52.494  1.00  0.00     0.217 HD
ENDBRANCH  23  26
ENDBRANCH  19  20
ENDBRANCH   1  19
TORSDOF 11
ENDMDL
MODEL 9
REMARK VINA RESULT:      -6.7      3.204      5.640
REMARK  11 active torsions:
REMARK  status: ('A' for Active; 'I' for Inactive)
REMARK    1  A    between atoms: N1_1  and  C1_2 
REMARK    2  A    between atoms: C1_2  and  C2_3 
REMARK    3  A    between atoms: C1_2  and  N2_7 
REMARK    4  A    between atoms: C2_3  and  C3_4 
REMARK    5  A    between atoms: C3_4  and  C4_5 
REMARK    6  A    between atoms: N2_7  and  C5_8 
REMARK    7  A    between atoms: N2_7  and  C11_16 
REMARK    8  A    between atoms: C5_8  and  C6_9 
REMARK    9  A    between atoms: C10_14  and  O1_15 
REMARK   10  A    between atoms: C11_16  and  C12_17 
REMARK   11  A    between atoms: C15_20  and  O2_21 
ROOT
HETATM    1  N2  UNL     1      23.854   0.557  52.446  1.00  0.00     0.119 N 
ENDROOT
BRANCH   1   2
HETATM    2  C1  UNL     1      22.413   0.272  52.350  1.00  0.00     0.319 C 
BRANCH   2   3
HETATM    3  N1  UNL     1      21.745   0.953  51.306  1.00  0.00    -0.402 N 
HETATM    4  H1  UNL     1      21.975   1.939  51.159  1.00  0.00     0.152 HD
HETATM    5  H2  UNL     1      20.752   0.690  51.126  1.00  0.00     0.152 HD
ENDBRANCH   2   3
BRANCH   2   6
HETATM    6  C2  UNL     1      21.677   0.418  53.633  1.00  0.00     0.086 C 
BRANCH   6   7
HETATM    7  C3  UNL     1      20.419  -0.346  53.559  1.00  0.00     0.006 C 
BRANCH   7   8
HETATM    8  C4  UNL     1      19.157  -0.625  53.334  1.00  0.00     0.184 C 
HETATM    9  F1  UNL     1      18.692  -0.723  52.037  1.00  0.00    -0.220 F 
ENDBRANCH   7   8
ENDBRANCH   6   7
ENDBRANCH   2   6
ENDBRANCH   1   2
BRANCH   1  10
HETATM   10  C5  UNL     1      23.920   1.992  52.523  1.00  0.00     0.317 C 
BRANCH  10  11
HETATM   11  C6  UNL     1      24.964   2.610  51.701  1.00  0.00     0.016 C 
HETATM   12  C7  UNL     1      26.219   2.542  51.286  1.00  0.00    -0.013 C 
HETATM   13  C8  UNL     1      26.501   3.198  50.203  1.00  0.00     0.039 C 
HETATM   14  C9  UNL     1      25.417   4.162  50.078  1.00  0.00     0.068 C 
HETATM   15 CL1  UNL     1      25.494   5.469  48.906  1.00  0.00    -0.081 Cl
HETATM   16  C10 UNL     1      24.504   3.811  50.970  1.00  0.00     0.096 C 
BRANCH  16  17
HETATM   17  O1  UNL     1      23.362   4.632  51.007  1.00  0.00    -0.358 OA
HETATM   18  H11 UNL     1      23.137   5.078  51.900  1.00  0.00     0.217 HD
ENDBRANCH  16  17
ENDBRANCH  10  11
ENDBRANCH   1  10
BRANCH   1  19
HETATM   19  C11 UNL     1      24.392  -0.128  53.593  1.00  0.00     0.314 C 
BRANCH  19  20
HETATM   20  C12 UNL     1      25.840  -0.250  53.716  1.00  0.00    -0.030 A 
HETATM   21  C13 UNL     1      26.537   0.376  54.760  1.00  0.00     0.011 A 
HETATM   22  C14 UNL     1      27.922   0.179  54.801  1.00  0.00     0.037 A 
HETATM   23  C15 UNL     1      28.569  -0.598  53.856  1.00  0.00     0.065 A 
HETATM   24  C16 UNL     1      27.843  -1.205  52.831  1.00  0.00     0.037 A 
HETATM   25  C17 UNL     1      26.478  -1.038  52.751  1.00  0.00     0.011 A 
BRANCH  23  26
HETATM   26  O2  UNL     1      29.956  -0.768  53.938  1.00  0.00    -0.361 OA
HETATM   27  H16 UNL     1      30.380  -1.066  54.787  1.00  0.00     0.217 HD
ENDBRANCH  23  26
ENDBRANCH  19  20
ENDBRANCH   1  19
TORSDOF 11
ENDMDL
