MODEL 1
REMARK VINA RESULT:      -7.0      0.000      0.000
REMARK  5 active torsions:
REMARK  status: ('A' for Active; 'I' for Inactive)
REMARK    1  A    between atoms: C4_5  and  C5_6 
REMARK    2  A    between atoms: N2_8  and  C6_9 
REMARK    3  A    between atoms: C6_9  and  C7_10 
REMARK       I    between atoms: C7_10  and  N3_12 
REMARK    4  A    between atoms: N3_12  and  S1_13 
REMARK    5  A    between atoms: S1_13  and  C8_16 
ROOT
HETATM    1  C7  UNL     1      25.072   2.791  52.473  1.00  0.00     0.249 C 
HETATM    2  O2  UNL     1      23.811   2.923  52.298  1.00  0.00    -0.271 OA
HETATM    3  N3  UNL     1      25.947   3.347  51.500  1.00  0.00    -0.249 N 
HETATM    4  H8  UNL     1      26.936   3.169  51.765  1.00  0.00     0.182 HD
ENDROOT
BRANCH   3   5
HETATM    5  S1  UNL     1      25.152   4.152  50.164  1.00  0.00     0.265 S 
HETATM    6  O3  UNL     1      24.506   3.114  49.296  1.00  0.00    -0.200 OA
HETATM    7  O4  UNL     1      24.133   5.076  50.781  1.00  0.00    -0.200 OA
BRANCH   5   8
HETATM    8  C8  UNL     1      26.324   5.061  49.234  1.00  0.00     0.080 A 
HETATM    9  C9  UNL     1      25.887   6.318  48.790  1.00  0.00     0.028 A 
HETATM   10  C10 UNL     1      26.695   7.156  48.053  1.00  0.00     0.044 A 
HETATM   11  C11 UNL     1      27.969   6.725  47.753  1.00  0.00     0.116 A 
HETATM   12  F1  UNL     1      28.805   7.526  47.024  1.00  0.00    -0.206 F 
HETATM   13  C12 UNL     1      28.417   5.498  48.176  1.00  0.00     0.044 A 
HETATM   14  C13 UNL     1      27.598   4.648  48.923  1.00  0.00     0.028 A 
ENDBRANCH   5   8
ENDBRANCH   3   5
BRANCH   1  15
HETATM   15  C6  UNL     1      25.324   2.039  53.735  1.00  0.00     0.234 C 
BRANCH  15  16
HETATM   16  N2  UNL     1      26.113   0.866  53.536  1.00  0.00    -0.323 N 
HETATM   17  C2  UNL     1      25.492  -0.342  53.378  1.00  0.00     0.102 A 
HETATM   18  C1  UNL     1      24.033  -0.637  53.389  1.00  0.00     0.091 C 
HETATM   19  N1  UNL     1      26.422  -1.323  53.193  1.00  0.00    -0.245 NA
HETATM   20  C3  UNL     1      27.656  -0.777  53.228  1.00  0.00     0.151 A 
HETATM   21  C4  UNL     1      27.440   0.567  53.439  1.00  0.00     0.092 A 
BRANCH  21  22
HETATM   22  C5  UNL     1      28.421   1.641  53.566  1.00  0.00     0.289 C 
HETATM   23  O1  UNL     1      28.659   2.635  52.824  1.00  0.00    -0.300 OA
ENDBRANCH  21  22
ENDBRANCH  15  16
ENDBRANCH   1  15
TORSDOF 5
ENDMDL
MODEL 2
REMARK VINA RESULT:      -7.0      4.322      6.827
REMARK  5 active torsions:
REMARK  status: ('A' for Active; 'I' for Inactive)
REMARK    1  A    between atoms: C4_5  and  C5_6 
REMARK    2  A    between atoms: N2_8  and  C6_9 
REMARK    3  A    between atoms: C6_9  and  C7_10 
REMARK       I    between atoms: C7_10  and  N3_12 
REMARK    4  A    between atoms: N3_12  and  S1_13 
REMARK    5  A    between atoms: S1_13  and  C8_16 
ROOT
HETATM    1  C7  UNL     1      24.256   2.342  51.246  1.00  0.00     0.249 C 
HETATM    2  O2  UNL     1      24.712   3.536  51.325  1.00  0.00    -0.271 OA
HETATM    3  N3  UNL     1      25.034   1.289  51.798  1.00  0.00    -0.249 N 
HETATM    4  H8  UNL     1      24.549   0.379  51.666  1.00  0.00     0.182 HD
ENDROOT
BRANCH   3   5
HETATM    5  S1  UNL     1      26.547   1.787  52.525  1.00  0.00     0.265 S 
HETATM    6  O3  UNL     1      27.276   2.668  51.555  1.00  0.00    -0.200 OA
HETATM    7  O4  UNL     1      26.179   2.530  53.784  1.00  0.00    -0.200 OA
BRANCH   5   8
HETATM    8  C8  UNL     1      27.520   0.381  52.900  1.00  0.00     0.080 A 
HETATM    9  C9  UNL     1      26.954  -0.850  52.540  1.00  0.00     0.028 A 
HETATM   10  C10 UNL     1      27.599  -2.047  52.762  1.00  0.00     0.044 A 
HETATM   11  C11 UNL     1      28.841  -2.009  53.359  1.00  0.00     0.116 A 
HETATM   12  F1  UNL     1      29.518  -3.174  53.597  1.00  0.00    -0.206 F 
HETATM   13  C12 UNL     1      29.414  -0.814  53.721  1.00  0.00     0.044 A 
HETATM   14  C13 UNL     1      28.759   0.399  53.496  1.00  0.00     0.028 A 
ENDBRANCH   5   8
ENDBRANCH   3   5
BRANCH   1  15
HETATM   15  C6  UNL     1      22.938   2.358  50.549  1.00  0.00     0.234 C 
BRANCH  15  16
HETATM   16  N2  UNL     1      21.831   2.310  51.450  1.00  0.00    -0.323 N 
HETATM   17  C2  UNL     1      21.125   3.453  51.705  1.00  0.00     0.102 A 
HETATM   18  C1  UNL     1      21.352   4.818  51.160  1.00  0.00     0.091 C 
HETATM   19  N1  UNL     1      20.110   3.187  52.578  1.00  0.00    -0.245 NA
HETATM   20  C3  UNL     1      20.137   1.877  52.904  1.00  0.00     0.151 A 
HETATM   21  C4  UNL     1      21.202   1.361  52.199  1.00  0.00     0.092 A 
BRANCH  21  22
HETATM   22  C5  UNL     1      21.701  -0.011  52.174  1.00  0.00     0.289 C 
HETATM   23  O1  UNL     1      22.662  -0.553  52.790  1.00  0.00    -0.300 OA
ENDBRANCH  21  22
ENDBRANCH  15  16
ENDBRANCH   1  15
TORSDOF 5
ENDMDL
MODEL 3
REMARK VINA RESULT:      -6.9      3.196      7.006
REMARK  5 active torsions:
REMARK  status: ('A' for Active; 'I' for Inactive)
REMARK    1  A    between atoms: C4_5  and  C5_6 
REMARK    2  A    between atoms: N2_8  and  C6_9 
REMARK    3  A    between atoms: C6_9  and  C7_10 
REMARK       I    between atoms: C7_10  and  N3_12 
REMARK    4  A    between atoms: N3_12  and  S1_13 
REMARK    5  A    between atoms: S1_13  and  C8_16 
ROOT
HETATM    1  C7  UNL     1      26.251   2.504  50.832  1.00  0.00     0.249 C 
HETATM    2  O2  UNL     1      27.236   2.891  51.551  1.00  0.00    -0.271 OA
HETATM    3  N3  UNL     1      25.248   1.703  51.443  1.00  0.00    -0.249 N 
HETATM    4  H8  UNL     1      24.512   1.461  50.750  1.00  0.00     0.182 HD
ENDROOT
BRANCH   3   5
HETATM    5  S1  UNL     1      25.512   1.349  53.137  1.00  0.00     0.265 S 
HETATM    6  O3  UNL     1      25.613   2.644  53.887  1.00  0.00    -0.200 OA
HETATM    7  O4  UNL     1      24.322   0.538  53.584  1.00  0.00    -0.200 OA
BRANCH   5   8
HETATM    8  C8  UNL     1      26.991   0.433  53.332  1.00  0.00     0.080 A 
HETATM    9  C9  UNL     1      27.957   1.027  54.155  1.00  0.00     0.028 A 
HETATM   10  C10 UNL     1      29.171   0.427  54.414  1.00  0.00     0.044 A 
HETATM   11  C11 UNL     1      29.420  -0.797  53.833  1.00  0.00     0.116 A 
HETATM   12  F1  UNL     1      30.612  -1.429  54.063  1.00  0.00    -0.206 F 
HETATM   13  C12 UNL     1      28.489  -1.398  53.022  1.00  0.00     0.044 A 
HETATM   14  C13 UNL     1      27.260  -0.789  52.760  1.00  0.00     0.028 A 
ENDBRANCH   5   8
ENDBRANCH   3   5
BRANCH   1  15
HETATM   15  C6  UNL     1      26.413   3.023  49.444  1.00  0.00     0.234 C 
BRANCH  15  16
HETATM   16  N2  UNL     1      26.003   4.384  49.307  1.00  0.00    -0.323 N 
HETATM   17  C2  UNL     1      26.905   5.315  48.871  1.00  0.00     0.102 A 
HETATM   18  C1  UNL     1      28.332   5.114  48.502  1.00  0.00     0.091 C 
HETATM   19  N1  UNL     1      26.311   6.541  48.802  1.00  0.00    -0.245 NA
HETATM   20  C3  UNL     1      25.022   6.432  49.189  1.00  0.00     0.151 A 
HETATM   21  C4  UNL     1      24.858   5.099  49.494  1.00  0.00     0.092 A 
BRANCH  21  22
HETATM   22  C5  UNL     1      23.661   4.412  49.971  1.00  0.00     0.289 C 
HETATM   23  O1  UNL     1      23.305   4.084  51.138  1.00  0.00    -0.300 OA
ENDBRANCH  21  22
ENDBRANCH  15  16
ENDBRANCH   1  15
TORSDOF 5
ENDMDL
MODEL 4
REMARK VINA RESULT:      -6.8      3.157      6.717
REMARK  5 active torsions:
REMARK  status: ('A' for Active; 'I' for Inactive)
REMARK    1  A    between atoms: C4_5  and  C5_6 
REMARK    2  A    between atoms: N2_8  and  C6_9 
REMARK    3  A    between atoms: C6_9  and  C7_10 
REMARK       I    between atoms: C7_10  and  N3_12 
REMARK    4  A    between atoms: N3_12  and  S1_13 
REMARK    5  A    between atoms: S1_13  and  C8_16 
ROOT
HETATM    1  C7  UNL     1      24.371   3.698  50.608  1.00  0.00     0.249 C 
HETATM    2  O2  UNL     1      23.307   3.655  51.318  1.00  0.00    -0.271 OA
HETATM    3  N3  UNL     1      25.476   2.898  51.006  1.00  0.00    -0.249 N 
HETATM    4  H8  UNL     1      26.268   3.029  50.346  1.00  0.00     0.182 HD
ENDROOT
BRANCH   3   5
HETATM    5  S1  UNL     1      25.218   1.945  52.451  1.00  0.00     0.265 S 
HETATM    6  O3  UNL     1      24.888   2.870  53.583  1.00  0.00    -0.200 OA
HETATM    7  O4  UNL     1      24.072   1.016  52.138  1.00  0.00    -0.200 OA
BRANCH   5   8
HETATM    8  C8  UNL     1      26.664   1.033  52.830  1.00  0.00     0.080 A 
HETATM    9  C9  UNL     1      27.736   1.791  53.321  1.00  0.00     0.028 A 
HETATM   10  C10 UNL     1      28.939   1.219  53.672  1.00  0.00     0.044 A 
HETATM   11  C11 UNL     1      29.070  -0.145  53.528  1.00  0.00     0.116 A 
HETATM   12  F1  UNL     1      30.247  -0.755  53.866  1.00  0.00    -0.206 F 
HETATM   13  C12 UNL     1      28.034  -0.908  53.049  1.00  0.00     0.044 A 
HETATM   14  C13 UNL     1      26.814  -0.327  52.693  1.00  0.00     0.028 A 
ENDBRANCH   5   8
ENDBRANCH   3   5
BRANCH   1  15
HETATM   15  C6  UNL     1      24.171   4.638  49.469  1.00  0.00     0.234 C 
BRANCH  15  16
HETATM   16  N2  UNL     1      24.935   5.838  49.595  1.00  0.00    -0.323 N 
HETATM   17  C2  UNL     1      24.356   6.946  50.150  1.00  0.00     0.102 A 
HETATM   18  C1  UNL     1      22.969   7.101  50.667  1.00  0.00     0.091 C 
HETATM   19  N1  UNL     1      25.255   7.972  50.186  1.00  0.00    -0.245 NA
HETATM   20  C3  UNL     1      26.426   7.554  49.658  1.00  0.00     0.151 A 
HETATM   21  C4  UNL     1      26.204   6.242  49.303  1.00  0.00     0.092 A 
BRANCH  21  22
HETATM   22  C5  UNL     1      27.126   5.295  48.683  1.00  0.00     0.289 C 
HETATM   23  O1  UNL     1      27.556   4.177  49.083  1.00  0.00    -0.300 OA
ENDBRANCH  21  22
ENDBRANCH  15  16
ENDBRANCH   1  15
TORSDOF 5
ENDMDL
MODEL 5
REMARK VINA RESULT:      -6.8      1.114      1.554
REMARK  5 active torsions:
REMARK  status: ('A' for Active; 'I' for Inactive)
REMARK    1  A    between atoms: C4_5  and  C5_6 
REMARK    2  A    between atoms: N2_8  and  C6_9 
REMARK    3  A    between atoms: C6_9  and  C7_10 
REMARK       I    between atoms: C7_10  and  N3_12 
REMARK    4  A    between atoms: N3_12  and  S1_13 
REMARK    5  A    between atoms: S1_13  and  C8_16 
ROOT
HETATM    1  C7  UNL     1      24.227   3.514  51.983  1.00  0.00     0.249 C 
HETATM    2  O2  UNL     1      23.070   3.469  51.438  1.00  0.00    -0.271 OA
HETATM    3  N3  UNL     1      25.264   4.208  51.301  1.00  0.00    -0.249 N 
HETATM    4  H8  UNL     1      26.144   4.167  51.852  1.00  0.00     0.182 HD
ENDROOT
BRANCH   3   5
HETATM    5  S1  UNL     1      24.798   4.918  49.771  1.00  0.00     0.265 S 
HETATM    6  O3  UNL     1      24.200   3.848  48.908  1.00  0.00    -0.200 OA
HETATM    7  O4  UNL     1      23.794   5.994  50.100  1.00  0.00    -0.200 OA
BRANCH   5   8
HETATM    8  C8  UNL     1      26.200   5.606  48.980  1.00  0.00     0.080 A 
HETATM    9  C9  UNL     1      27.329   4.775  48.939  1.00  0.00     0.028 A 
HETATM   10  C10 UNL     1      28.508   5.169  48.344  1.00  0.00     0.044 A 
HETATM   11  C11 UNL     1      28.557   6.424  47.778  1.00  0.00     0.116 A 
HETATM   12  F1  UNL     1      29.707   6.855  47.176  1.00  0.00    -0.206 F 
HETATM   13  C12 UNL     1      27.464   7.255  47.808  1.00  0.00     0.044 A 
HETATM   14  C13 UNL     1      26.269   6.855  48.411  1.00  0.00     0.028 A 
ENDBRANCH   5   8
ENDBRANCH   3   5
BRANCH   1  15
HETATM   15  C6  UNL     1      24.196   2.780  53.280  1.00  0.00     0.234 C 
BRANCH  15  16
HETATM   16  N2  UNL     1      24.816   1.495  53.208  1.00  0.00    -0.323 N 
HETATM   17  C2  UNL     1      24.036   0.372  53.240  1.00  0.00     0.102 A 
HETATM   18  C1  UNL     1      22.555   0.281  53.350  1.00  0.00     0.091 C 
HETATM   19  N1  UNL     1      24.821  -0.741  53.150  1.00  0.00    -0.245 NA
HETATM   20  C3  UNL     1      26.115  -0.365  53.060  1.00  0.00     0.151 A 
HETATM   21  C4  UNL     1      26.085   1.012  53.098  1.00  0.00     0.092 A 
BRANCH  21  22
HETATM   22  C5  UNL     1      27.201   1.950  53.039  1.00  0.00     0.289 C 
HETATM   23  O1  UNL     1      27.741   2.533  52.055  1.00  0.00    -0.300 OA
ENDBRANCH  21  22
ENDBRANCH  15  16
ENDBRANCH   1  15
TORSDOF 5
ENDMDL
MODEL 6
REMARK VINA RESULT:      -6.8      3.958      6.677
REMARK  5 active torsions:
REMARK  status: ('A' for Active; 'I' for Inactive)
REMARK    1  A    between atoms: C4_5  and  C5_6 
REMARK    2  A    between atoms: N2_8  and  C6_9 
REMARK    3  A    between atoms: C6_9  and  C7_10 
REMARK       I    between atoms: C7_10  and  N3_12 
REMARK    4  A    between atoms: N3_12  and  S1_13 
REMARK    5  A    between atoms: S1_13  and  C8_16 
ROOT
HETATM    1  C7  UNL     1      23.988   2.516  52.254  1.00  0.00     0.249 C 
HETATM    2  O2  UNL     1      24.412   3.595  52.796  1.00  0.00    -0.271 OA
HETATM    3  N3  UNL     1      24.883   1.416  52.157  1.00  0.00    -0.249 N 
HETATM    4  H8  UNL     1      24.412   0.611  51.700  1.00  0.00     0.182 HD
ENDROOT
BRANCH   3   5
HETATM    5  S1  UNL     1      26.483   1.704  52.808  1.00  0.00     0.265 S 
HETATM    6  O3  UNL     1      27.228   2.603  51.867  1.00  0.00    -0.200 OA
HETATM    7  O4  UNL     1      26.275   2.354  54.152  1.00  0.00    -0.200 OA
BRANCH   5   8
HETATM    8  C8  UNL     1      27.338   0.186  52.983  1.00  0.00     0.080 A 
HETATM    9  C9  UNL     1      28.593   0.277  53.602  1.00  0.00     0.028 A 
HETATM   10  C10 UNL     1      29.384  -0.830  53.820  1.00  0.00     0.044 A 
HETATM   11  C11 UNL     1      28.907  -2.055  53.407  1.00  0.00     0.116 A 
HETATM   12  F1  UNL     1      29.660  -3.180  53.604  1.00  0.00    -0.206 F 
HETATM   13  C12 UNL     1      27.682  -2.167  52.798  1.00  0.00     0.044 A 
HETATM   14  C13 UNL     1      26.880  -1.045  52.577  1.00  0.00     0.028 A 
ENDBRANCH   5   8
ENDBRANCH   3   5
BRANCH   1  15
HETATM   15  C6  UNL     1      22.569   2.695  51.833  1.00  0.00     0.234 C 
BRANCH  15  16
HETATM   16  N2  UNL     1      22.323   2.248  50.500  1.00  0.00    -0.323 N 
HETATM   17  C2  UNL     1      21.590   1.112  50.298  1.00  0.00     0.102 A 
HETATM   18  C1  UNL     1      20.979   0.215  51.316  1.00  0.00     0.091 C 
HETATM   19  N1  UNL     1      21.465   0.870  48.960  1.00  0.00    -0.245 NA
HETATM   20  C3  UNL     1      22.110   1.837  48.273  1.00  0.00     0.151 A 
HETATM   21  C4  UNL     1      22.628   2.670  49.240  1.00  0.00     0.092 A 
BRANCH  21  22
HETATM   22  C5  UNL     1      23.424   3.882  49.069  1.00  0.00     0.289 C 
HETATM   23  O1  UNL     1      24.675   4.056  49.062  1.00  0.00    -0.300 OA
ENDBRANCH  21  22
ENDBRANCH  15  16
ENDBRANCH   1  15
TORSDOF 5
ENDMDL
MODEL 7
REMARK VINA RESULT:      -6.6      2.686      3.623
REMARK  5 active torsions:
REMARK  status: ('A' for Active; 'I' for Inactive)
REMARK    1  A    between atoms: C4_5  and  C5_6 
REMARK    2  A    between atoms: N2_8  and  C6_9 
REMARK    3  A    between atoms: C6_9  and  C7_10 
REMARK       I    between atoms: C7_10  and  N3_12 
REMARK    4  A    between atoms: N3_12  and  S1_13 
REMARK    5  A    between atoms: S1_13  and  C8_16 
ROOT
HETATM    1  C7  UNL     1      22.288   1.586  51.671  1.00  0.00     0.249 C 
HETATM    2  O2  UNL     1      21.457   2.349  52.274  1.00  0.00    -0.271 OA
HETATM    3  N3  UNL     1      23.419   2.182  51.050  1.00  0.00    -0.249 N 
HETATM    4  H8  UNL     1      24.007   1.452  50.601  1.00  0.00     0.182 HD
ENDROOT
BRANCH   3   5
HETATM    5  S1  UNL     1      23.514   3.924  51.199  1.00  0.00     0.265 S 
HETATM    6  O3  UNL     1      22.230   4.517  50.701  1.00  0.00    -0.200 OA
HETATM    7  O4  UNL     1      23.725   4.205  52.666  1.00  0.00    -0.200 OA
BRANCH   5   8
HETATM    8  C8  UNL     1      24.856   4.532  50.255  1.00  0.00     0.080 A 
HETATM    9  C9  UNL     1      25.858   3.593  49.970  1.00  0.00     0.028 A 
HETATM   10  C10 UNL     1      26.975   3.916  49.230  1.00  0.00     0.044 A 
HETATM   11  C11 UNL     1      27.091   5.208  48.767  1.00  0.00     0.116 A 
HETATM   12  F1  UNL     1      28.183   5.571  48.027  1.00  0.00    -0.206 F 
HETATM   13  C12 UNL     1      26.122   6.144  49.035  1.00  0.00     0.044 A 
HETATM   14  C13 UNL     1      24.990   5.817  49.785  1.00  0.00     0.028 A 
ENDBRANCH   5   8
ENDBRANCH   3   5
BRANCH   1  15
HETATM   15  C6  UNL     1      21.832   0.170  51.779  1.00  0.00     0.234 C 
BRANCH  15  16
HETATM   16  N2  UNL     1      22.050  -0.388  53.075  1.00  0.00    -0.323 N 
HETATM   17  C2  UNL     1      20.978  -0.815  53.809  1.00  0.00     0.102 A 
HETATM   18  C1  UNL     1      19.536  -0.778  53.443  1.00  0.00     0.091 C 
HETATM   19  N1  UNL     1      21.404  -1.320  55.003  1.00  0.00    -0.245 NA
HETATM   20  C3  UNL     1      22.750  -1.231  55.068  1.00  0.00     0.151 A 
HETATM   21  C4  UNL     1      23.122  -0.656  53.872  1.00  0.00     0.092 A 
BRANCH  21  22
HETATM   22  C5  UNL     1      24.462  -0.320  53.399  1.00  0.00     0.289 C 
HETATM   23  O1  UNL     1      25.462  -1.054  53.158  1.00  0.00    -0.300 OA
ENDBRANCH  21  22
ENDBRANCH  15  16
ENDBRANCH   1  15
TORSDOF 5
ENDMDL
MODEL 8
REMARK VINA RESULT:      -6.5      5.234      7.668
REMARK  5 active torsions:
REMARK  status: ('A' for Active; 'I' for Inactive)
REMARK    1  A    between atoms: C4_5  and  C5_6 
REMARK    2  A    between atoms: N2_8  and  C6_9 
REMARK    3  A    between atoms: C6_9  and  C7_10 
REMARK       I    between atoms: C7_10  and  N3_12 
REMARK    4  A    between atoms: N3_12  and  S1_13 
REMARK    5  A    between atoms: S1_13  and  C8_16 
ROOT
HETATM    1  C7  UNL     1      23.312   2.134  52.891  1.00  0.00     0.249 C 
HETATM    2  O2  UNL     1      23.108   3.199  52.212  1.00  0.00    -0.271 OA
HETATM    3  N3  UNL     1      22.242   1.208  53.026  1.00  0.00    -0.249 N 
HETATM    4  H8  UNL     1      22.544   0.394  53.597  1.00  0.00     0.182 HD
ENDROOT
BRANCH   3   5
HETATM    5  S1  UNL     1      20.757   1.671  52.224  1.00  0.00     0.265 S 
HETATM    6  O3  UNL     1      20.282   2.969  52.808  1.00  0.00    -0.200 OA
HETATM    7  O4  UNL     1      21.098   1.810  50.762  1.00  0.00    -0.200 OA
BRANCH   5   8
HETATM    8  C8  UNL     1      19.541   0.433  52.459  1.00  0.00     0.080 A 
HETATM    9  C9  UNL     1      18.456   0.487  51.572  1.00  0.00     0.028 A 
HETATM   10  C10 UNL     1      17.422  -0.422  51.622  1.00  0.00     0.044 A 
HETATM   11  C11 UNL     1      17.476  -1.407  52.584  1.00  0.00     0.116 A 
HETATM   12  F1  UNL     1      16.471  -2.331  52.670  1.00  0.00    -0.206 F 
HETATM   13  C12 UNL     1      18.528  -1.478  53.464  1.00  0.00     0.044 A 
HETATM   14  C13 UNL     1      19.576  -0.556  53.412  1.00  0.00     0.028 A 
ENDBRANCH   5   8
ENDBRANCH   3   5
BRANCH   1  15
HETATM   15  C6  UNL     1      24.712   2.132  53.404  1.00  0.00     0.234 C 
BRANCH  15  16
HETATM   16  N2  UNL     1      25.438   0.958  53.038  1.00  0.00    -0.323 N 
HETATM   17  C2  UNL     1      26.273   0.996  51.956  1.00  0.00     0.102 A 
HETATM   18  C1  UNL     1      26.553   2.141  51.047  1.00  0.00     0.091 C 
HETATM   19  N1  UNL     1      26.872  -0.219  51.788  1.00  0.00    -0.245 NA
HETATM   20  C3  UNL     1      26.440  -1.063  52.749  1.00  0.00     0.151 A 
HETATM   21  C4  UNL     1      25.561  -0.318  53.503  1.00  0.00     0.092 A 
BRANCH  21  22
HETATM   22  C5  UNL     1      24.791  -0.725  54.674  1.00  0.00     0.289 C 
HETATM   23  O1  UNL     1      25.147  -1.314  55.734  1.00  0.00    -0.300 OA
ENDBRANCH  21  22
ENDBRANCH  15  16
ENDBRANCH   1  15
TORSDOF 5
ENDMDL
MODEL 9
REMARK VINA RESULT:      -6.4      1.481      2.650
REMARK  5 active torsions:
REMARK  status: ('A' for Active; 'I' for Inactive)
REMARK    1  A    between atoms: C4_5  and  C5_6 
REMARK    2  A    between atoms: N2_8  and  C6_9 
REMARK    3  A    between atoms: C6_9  and  C7_10 
REMARK       I    between atoms: C7_10  and  N3_12 
REMARK    4  A    between atoms: N3_12  and  S1_13 
REMARK    5  A    between atoms: S1_13  and  C8_16 
ROOT
HETATM    1  C7  UNL     1      24.559   2.883  52.308  1.00  0.00     0.249 C 
HETATM    2  O2  UNL     1      24.317   4.128  52.481  1.00  0.00    -0.271 OA
HETATM    3  N3  UNL     1      24.328   2.327  51.020  1.00  0.00    -0.249 N 
HETATM    4  H8  UNL     1      24.564   1.315  51.020  1.00  0.00     0.182 HD
ENDROOT
BRANCH   3   5
HETATM    5  S1  UNL     1      23.728   3.454  49.823  1.00  0.00     0.265 S 
HETATM    6  O3  UNL     1      23.190   2.675  48.660  1.00  0.00    -0.200 OA
HETATM    7  O4  UNL     1      22.646   4.251  50.507  1.00  0.00    -0.200 OA
BRANCH   5   8
HETATM    8  C8  UNL     1      25.023   4.503  49.289  1.00  0.00     0.080 A 
HETATM    9  C9  UNL     1      26.301   3.926  49.297  1.00  0.00     0.028 A 
HETATM   10  C10 UNL     1      27.422   4.620  48.897  1.00  0.00     0.044 A 
HETATM   11  C11 UNL     1      27.258   5.923  48.480  1.00  0.00     0.116 A 
HETATM   12  F1  UNL     1      28.344   6.649  48.073  1.00  0.00    -0.206 F 
HETATM   13  C12 UNL     1      26.016   6.510  48.465  1.00  0.00     0.044 A 
HETATM   14  C13 UNL     1      24.880   5.805  48.870  1.00  0.00     0.028 A 
ENDBRANCH   5   8
ENDBRANCH   3   5
BRANCH   1  15
HETATM   15  C6  UNL     1      25.053   2.290  53.583  1.00  0.00     0.234 C 
BRANCH  15  16
HETATM   16  N2  UNL     1      25.748   1.057  53.392  1.00  0.00    -0.323 N 
HETATM   17  C2  UNL     1      27.108   1.069  53.254  1.00  0.00     0.102 A 
HETATM   18  C1  UNL     1      28.026   2.240  53.268  1.00  0.00     0.091 C 
HETATM   19  N1  UNL     1      27.570  -0.205  53.093  1.00  0.00    -0.245 NA
HETATM   20  C3  UNL     1      26.527  -1.062  53.123  1.00  0.00     0.151 A 
HETATM   21  C4  UNL     1      25.420  -0.263  53.308  1.00  0.00     0.092 A 
BRANCH  21  22
HETATM   22  C5  UNL     1      24.018  -0.656  53.413  1.00  0.00     0.289 C 
HETATM   23  O1  UNL     1      23.235  -0.669  54.404  1.00  0.00    -0.300 OA
ENDBRANCH  21  22
ENDBRANCH  15  16
ENDBRANCH   1  15
TORSDOF 5
ENDMDL
