MODEL 1
REMARK VINA RESULT:      -8.9      0.000      0.000
REMARK  3 active torsions:
REMARK  status: ('A' for Active; 'I' for Inactive)
REMARK    1  A    between atoms: C16_18  and  C17_19 
REMARK    2  A    between atoms: C17_19  and  C18_20 
REMARK    3  A    between atoms: C18_20  and  O2_22 
ROOT
HETATM    1  C1  UNL     1      20.527   0.386  53.635  1.00  0.00     0.016 C 
HETATM    2  C2  UNL     1      21.579  -0.019  52.664  1.00  0.00     0.032 C 
HETATM    3  C3  UNL     1      21.340   0.453  51.243  1.00  0.00     0.011 C 
HETATM    4  C4  UNL     1      21.659   1.884  51.006  1.00  0.00     0.005 C 
HETATM    5  C5  UNL     1      22.232   2.496  52.283  1.00  0.00     0.041 C 
HETATM    6  C6  UNL     1      23.299   1.653  52.854  1.00  0.00    -0.027 C 
HETATM    7  C7  UNL     1      22.956   0.384  53.041  1.00  0.00     0.016 C 
HETATM    8  N1  UNL     1      23.785  -0.667  53.578  1.00  0.00    -0.382 N 
HETATM    9  C8  UNL     1      25.129  -0.785  53.114  1.00  0.00     0.132 C 
HETATM   10  C9  UNL     1      26.425  -0.591  52.927  1.00  0.00     0.014 C 
HETATM   11  C10 UNL     1      27.572   0.269  53.342  1.00  0.00    -0.009 A 
HETATM   12  C11 UNL     1      28.760  -0.395  53.473  1.00  0.00     0.013 A 
HETATM   13  C12 UNL     1      29.802   0.457  53.845  1.00  0.00     0.001 A 
HETATM   14  C13 UNL     1      29.605   1.811  54.046  1.00  0.00     0.002 A 
HETATM   15  C14 UNL     1      28.374   2.392  53.893  1.00  0.00     0.032 A 
HETATM   16  C15 UNL     1      27.279   1.637  53.527  1.00  0.00     0.067 A 
HETATM   17  N2  UNL     1      25.929   1.994  53.325  1.00  0.00    -0.250 N 
HETATM   18  C16 UNL     1      25.485   2.213  52.144  1.00  0.00     0.070 A 
HETATM   19  O3  UNL     1      24.481   2.370  53.088  1.00  0.00     0.000 OA
HETATM   20  H11 UNL     1      23.396  -1.347  54.298  1.00  0.00     0.160 HD
ENDROOT
BRANCH  18  21
HETATM   21  C17 UNL     1      26.310   2.124  50.936  1.00  0.00     0.171 C 
BRANCH  21  22
HETATM   22  C18 UNL     1      26.490   3.419  50.268  1.00  0.00     0.145 C 
HETATM   23  O1  UNL     1      27.217   3.709  49.261  1.00  0.00    -0.650 OA
BRANCH  22  24
HETATM   24  O2  UNL     1      25.795   4.521  50.755  1.00  0.00    -0.776 OA
HETATM   25  H20 UNL     1      25.282   4.479  51.624  1.00  0.00     0.167 HD
ENDBRANCH  22  24
ENDBRANCH  21  22
ENDBRANCH  18  21
TORSDOF 3
ENDMDL
MODEL 2
REMARK VINA RESULT:      -8.8      1.652      5.658
REMARK  3 active torsions:
REMARK  status: ('A' for Active; 'I' for Inactive)
REMARK    1  A    between atoms: C16_18  and  C17_19 
REMARK    2  A    between atoms: C17_19  and  C18_20 
REMARK    3  A    between atoms: C18_20  and  O2_22 
ROOT
HETATM    1  C1  UNL     1      29.598  -0.768  53.413  1.00  0.00     0.016 C 
HETATM    2  C2  UNL     1      28.478  -0.228  54.229  1.00  0.00     0.032 C 
HETATM    3  C3  UNL     1      28.779   1.088  54.920  1.00  0.00     0.011 C 
HETATM    4  C4  UNL     1      28.719   2.279  54.033  1.00  0.00     0.005 C 
HETATM    5  C5  UNL     1      28.283   1.849  52.634  1.00  0.00     0.041 C 
HETATM    6  C6  UNL     1      27.089   0.984  52.682  1.00  0.00    -0.027 C 
HETATM    7  C7  UNL     1      27.200  -0.062  53.493  1.00  0.00     0.016 C 
HETATM    8  N1  UNL     1      26.204  -1.073  53.745  1.00  0.00    -0.382 N 
HETATM    9  C8  UNL     1      24.854  -0.665  53.965  1.00  0.00     0.132 C 
HETATM   10  C9  UNL     1      23.611  -0.248  53.779  1.00  0.00     0.014 C 
HETATM   11  C10 UNL     1      22.643   0.178  52.726  1.00  0.00    -0.009 A 
HETATM   12  C11 UNL     1      21.357  -0.234  52.938  1.00  0.00     0.013 A 
HETATM   13  C12 UNL     1      20.490   0.205  51.935  1.00  0.00     0.001 A 
HETATM   14  C13 UNL     1      20.931   0.968  50.870  1.00  0.00     0.002 A 
HETATM   15  C14 UNL     1      22.244   1.335  50.737  1.00  0.00     0.032 A 
HETATM   16  C15 UNL     1      23.180   0.952  51.675  1.00  0.00     0.067 A 
HETATM   17  N2  UNL     1      24.569   1.185  51.751  1.00  0.00    -0.250 N 
HETATM   18  C16 UNL     1      25.030   2.132  52.480  1.00  0.00     0.070 A 
HETATM   19  O3  UNL     1      26.058   1.446  51.851  1.00  0.00     0.000 OA
HETATM   20  H11 UNL     1      26.473  -2.102  53.775  1.00  0.00     0.160 HD
ENDROOT
BRANCH  18  21
HETATM   21  C17 UNL     1      24.186   3.033  53.271  1.00  0.00     0.171 C 
BRANCH  21  22
HETATM   22  C18 UNL     1      23.916   4.306  52.593  1.00  0.00     0.145 C 
HETATM   23  O1  UNL     1      23.689   4.525  51.356  1.00  0.00    -0.650 OA
BRANCH  22  24
HETATM   24  O2  UNL     1      23.890   5.472  53.350  1.00  0.00    -0.776 OA
HETATM   25  H20 UNL     1      24.715   5.811  53.825  1.00  0.00     0.167 HD
ENDBRANCH  22  24
ENDBRANCH  21  22
ENDBRANCH  18  21
TORSDOF 3
ENDMDL
MODEL 3
REMARK VINA RESULT:      -8.3      2.302      4.337
REMARK  3 active torsions:
REMARK  status: ('A' for Active; 'I' for Inactive)
REMARK    1  A    between atoms: C16_18  and  C17_19 
REMARK    2  A    between atoms: C17_19  and  C18_20 
REMARK    3  A    between atoms: C18_20  and  O2_22 
ROOT
HETATM    1  C1  UNL     1      19.715  -0.727  52.959  1.00  0.00     0.016 C 
HETATM    2  C2  UNL     1      20.421   0.433  53.566  1.00  0.00     0.032 C 
HETATM    3  C3  UNL     1      21.030   0.158  54.927  1.00  0.00     0.011 C 
HETATM    4  C4  UNL     1      22.302  -0.608  54.892  1.00  0.00     0.005 C 
HETATM    5  C5  UNL     1      22.705  -0.857  53.440  1.00  0.00     0.041 C 
HETATM    6  C6  UNL     1      22.643   0.382  52.643  1.00  0.00    -0.027 C 
HETATM    7  C7  UNL     1      21.483   1.025  52.715  1.00  0.00     0.016 C 
HETATM    8  N1  UNL     1      21.131   2.256  52.051  1.00  0.00    -0.382 N 
HETATM    9  C8  UNL     1      22.071   3.330  52.056  1.00  0.00     0.132 C 
HETATM   10  C9  UNL     1      23.108   4.105  51.783  1.00  0.00     0.014 C 
HETATM   11  C10 UNL     1      24.324   4.207  50.923  1.00  0.00    -0.009 A 
HETATM   12  C11 UNL     1      24.600   5.471  50.480  1.00  0.00     0.013 A 
HETATM   13  C12 UNL     1      25.755   5.515  49.697  1.00  0.00     0.001 A 
HETATM   14  C13 UNL     1      26.501   4.381  49.429  1.00  0.00     0.002 A 
HETATM   15  C14 UNL     1      26.147   3.151  49.916  1.00  0.00     0.032 A 
HETATM   16  C15 UNL     1      25.022   3.002  50.701  1.00  0.00     0.067 A 
HETATM   17  N2  UNL     1      24.450   1.858  51.298  1.00  0.00    -0.250 N 
HETATM   18  C16 UNL     1      24.676   1.586  52.528  1.00  0.00     0.070 A 
HETATM   19  O3  UNL     1      23.838   0.639  51.957  1.00  0.00     0.000 OA
HETATM   20  H11 UNL     1      20.185   2.362  51.576  1.00  0.00     0.160 HD
ENDROOT
BRANCH  18  21
HETATM   21  C17 UNL     1      25.525   2.404  53.399  1.00  0.00     0.171 C 
BRANCH  21  22
HETATM   22  C18 UNL     1      26.931   1.981  53.389  1.00  0.00     0.145 C 
HETATM   23  O1  UNL     1      27.463   0.976  52.811  1.00  0.00    -0.650 OA
BRANCH  22  24
HETATM   24  O2  UNL     1      27.861   2.743  54.089  1.00  0.00    -0.776 OA
HETATM   25  H20 UNL     1      27.707   3.010  55.051  1.00  0.00     0.167 HD
ENDBRANCH  22  24
ENDBRANCH  21  22
ENDBRANCH  18  21
TORSDOF 3
ENDMDL
MODEL 4
REMARK VINA RESULT:      -7.9      2.791      6.924
REMARK  3 active torsions:
REMARK  status: ('A' for Active; 'I' for Inactive)
REMARK    1  A    between atoms: C16_18  and  C17_19 
REMARK    2  A    between atoms: C17_19  and  C18_20 
REMARK    3  A    between atoms: C18_20  and  O2_22 
ROOT
HETATM    1  C1  UNL     1      26.352   0.099  52.396  1.00  0.00     0.016 C 
HETATM    2  C2  UNL     1      25.274   0.567  53.308  1.00  0.00     0.032 C 
HETATM    3  C3  UNL     1      25.359   2.034  53.684  1.00  0.00     0.011 C 
HETATM    4  C4  UNL     1      24.887   2.969  52.631  1.00  0.00     0.005 C 
HETATM    5  C5  UNL     1      24.357   2.171  51.442  1.00  0.00     0.041 C 
HETATM    6  C6  UNL     1      23.421   1.116  51.874  1.00  0.00    -0.027 C 
HETATM    7  C7  UNL     1      23.896   0.312  52.818  1.00  0.00     0.016 C 
HETATM    8  N1  UNL     1      23.215  -0.799  53.434  1.00  0.00    -0.382 N 
HETATM    9  C8  UNL     1      21.857  -0.631  53.839  1.00  0.00     0.132 C 
HETATM   10  C9  UNL     1      20.538  -0.520  53.830  1.00  0.00     0.014 C 
HETATM   11  C10 UNL     1      19.348  -0.532  52.928  1.00  0.00    -0.009 A 
HETATM   12  C11 UNL     1      18.242  -1.137  53.457  1.00  0.00     0.013 A 
HETATM   13  C12 UNL     1      17.155  -1.106  52.582  1.00  0.00     0.001 A 
HETATM   14  C13 UNL     1      17.237  -0.517  51.334  1.00  0.00     0.002 A 
HETATM   15  C14 UNL     1      18.391   0.067  50.884  1.00  0.00     0.032 A 
HETATM   16  C15 UNL     1      19.523   0.088  51.673  1.00  0.00     0.067 A 
HETATM   17  N2  UNL     1      20.813   0.606  51.433  1.00  0.00    -0.250 N 
HETATM   18  C16 UNL     1      21.144   1.759  51.881  1.00  0.00     0.070 A 
HETATM   19  O3  UNL     1      22.197   1.173  51.193  1.00  0.00     0.000 OA
HETATM   20  H11 UNL     1      23.720  -1.722  53.592  1.00  0.00     0.160 HD
ENDROOT
BRANCH  18  21
HETATM   21  C17 UNL     1      20.243   2.622  52.650  1.00  0.00     0.171 C 
BRANCH  21  22
HETATM   22  C18 UNL     1      19.496   3.564  51.808  1.00  0.00     0.145 C 
HETATM   23  O1  UNL     1      19.933   4.365  50.916  1.00  0.00    -0.650 OA
BRANCH  22  24
HETATM   24  O2  UNL     1      18.115   3.642  51.958  1.00  0.00    -0.776 OA
HETATM   25  H20 UNL     1      17.676   4.440  52.395  1.00  0.00     0.167 HD
ENDBRANCH  22  24
ENDBRANCH  21  22
ENDBRANCH  18  21
TORSDOF 3
ENDMDL
MODEL 5
REMARK VINA RESULT:      -7.8      9.535     11.617
REMARK  3 active torsions:
REMARK  status: ('A' for Active; 'I' for Inactive)
REMARK    1  A    between atoms: C16_18  and  C17_19 
REMARK    2  A    between atoms: C17_19  and  C18_20 
REMARK    3  A    between atoms: C18_20  and  O2_22 
ROOT
HETATM    1  C1  UNL     1      32.380   2.236  46.720  1.00  0.00     0.016 C 
HETATM    2  C2  UNL     1      33.014   3.201  47.658  1.00  0.00     0.032 C 
HETATM    3  C3  UNL     1      34.529   3.241  47.592  1.00  0.00     0.011 C 
HETATM    4  C4  UNL     1      35.077   3.993  46.434  1.00  0.00     0.005 C 
HETATM    5  C5  UNL     1      33.928   4.606  45.636  1.00  0.00     0.041 C 
HETATM    6  C6  UNL     1      32.981   5.318  46.513  1.00  0.00    -0.027 C 
HETATM    7  C7  UNL     1      32.526   4.597  47.532  1.00  0.00     0.016 C 
HETATM    8  N1  UNL     1      31.598   5.023  48.549  1.00  0.00    -0.382 N 
HETATM    9  C8  UNL     1      31.776   6.307  49.146  1.00  0.00     0.132 C 
HETATM   10  C9  UNL     1      31.782   7.613  49.361  1.00  0.00     0.014 C 
HETATM   11  C10 UNL     1      31.418   8.923  48.745  1.00  0.00    -0.009 A 
HETATM   12  C11 UNL     1      30.915   9.843  49.623  1.00  0.00     0.013 A 
HETATM   13  C12 UNL     1      30.608  11.054  49.000  1.00  0.00     0.001 A 
HETATM   14  C13 UNL     1      30.809  11.252  47.646  1.00  0.00     0.002 A 
HETATM   15  C14 UNL     1      31.319  10.269  46.839  1.00  0.00     0.032 A 
HETATM   16  C15 UNL     1      31.655   9.036  47.358  1.00  0.00     0.067 A 
HETATM   17  N2  UNL     1      32.172   7.877  46.741  1.00  0.00    -0.250 N 
HETATM   18  C16 UNL     1      33.427   7.626  46.782  1.00  0.00     0.070 A 
HETATM   19  O3  UNL     1      32.745   6.634  46.092  1.00  0.00     0.000 OA
HETATM   20  H11 UNL     1      30.801   4.387  48.854  1.00  0.00     0.160 HD
ENDROOT
BRANCH  18  21
HETATM   21  C17 UNL     1      34.409   8.491  47.443  1.00  0.00     0.171 C 
BRANCH  21  22
HETATM   22  C18 UNL     1      35.347   7.746  48.292  1.00  0.00     0.145 C 
HETATM   23  O1  UNL     1      35.242   6.564  48.760  1.00  0.00    -0.650 OA
BRANCH  22  24
HETATM   24  O2  UNL     1      36.534   8.363  48.673  1.00  0.00    -0.776 OA
HETATM   25  H20 UNL     1      37.061   8.935  48.028  1.00  0.00     0.167 HD
ENDBRANCH  22  24
ENDBRANCH  21  22
ENDBRANCH  18  21
TORSDOF 3
ENDMDL
MODEL 6
REMARK VINA RESULT:      -7.8      2.250      6.129
REMARK  3 active torsions:
REMARK  status: ('A' for Active; 'I' for Inactive)
REMARK    1  A    between atoms: C16_18  and  C17_19 
REMARK    2  A    between atoms: C17_19  and  C18_20 
REMARK    3  A    between atoms: C18_20  and  O2_22 
ROOT
HETATM    1  C1  UNL     1      29.047   1.372  54.173  1.00  0.00     0.016 C 
HETATM    2  C2  UNL     1      28.214   1.027  52.989  1.00  0.00     0.032 C 
HETATM    3  C3  UNL     1      27.663  -0.385  52.997  1.00  0.00     0.011 C 
HETATM    4  C4  UNL     1      26.494  -0.588  53.890  1.00  0.00     0.005 C 
HETATM    5  C5  UNL     1      26.103   0.744  54.526  1.00  0.00     0.041 C 
HETATM    6  C6  UNL     1      26.002   1.815  53.516  1.00  0.00    -0.027 C 
HETATM    7  C7  UNL     1      27.075   1.948  52.746  1.00  0.00     0.016 C 
HETATM    8  N1  UNL     1      27.264   2.899  51.679  1.00  0.00    -0.382 N 
HETATM    9  C8  UNL     1      26.200   3.109  50.751  1.00  0.00     0.132 C 
HETATM   10  C9  UNL     1      25.072   3.512  50.189  1.00  0.00     0.014 C 
HETATM   11  C10 UNL     1      23.840   4.318  50.438  1.00  0.00    -0.009 A 
HETATM   12  C11 UNL     1      23.405   5.036  49.358  1.00  0.00     0.013 A 
HETATM   13  C12 UNL     1      22.243   5.756  49.638  1.00  0.00     0.001 A 
HETATM   14  C13 UNL     1      21.637   5.715  50.880  1.00  0.00     0.002 A 
HETATM   15  C14 UNL     1      22.146   4.966  51.908  1.00  0.00     0.032 A 
HETATM   16  C15 UNL     1      23.292   4.217  51.734  1.00  0.00     0.067 A 
HETATM   17  N2  UNL     1      24.008   3.392  52.626  1.00  0.00    -0.250 N 
HETATM   18  C16 UNL     1      23.835   2.123  52.618  1.00  0.00     0.070 A 
HETATM   19  O3  UNL     1      24.774   2.490  53.572  1.00  0.00     0.000 OA
HETATM   20  H11 UNL     1      28.183   3.426  51.582  1.00  0.00     0.160 HD
ENDROOT
BRANCH  18  21
HETATM   21  C17 UNL     1      22.905   1.435  51.718  1.00  0.00     0.171 C 
BRANCH  21  22
HETATM   22  C18 UNL     1      22.244   0.286  52.348  1.00  0.00     0.145 C 
HETATM   23  O1  UNL     1      21.011  -0.041  52.329  1.00  0.00    -0.650 OA
BRANCH  22  24
HETATM   24  O2  UNL     1      23.017  -0.608  53.081  1.00  0.00    -0.776 OA
HETATM   25  H20 UNL     1      23.788  -0.292  53.653  1.00  0.00     0.167 HD
ENDBRANCH  22  24
ENDBRANCH  21  22
ENDBRANCH  18  21
TORSDOF 3
ENDMDL
MODEL 7
REMARK VINA RESULT:      -7.8      2.242      4.262
REMARK  3 active torsions:
REMARK  status: ('A' for Active; 'I' for Inactive)
REMARK    1  A    between atoms: C16_18  and  C17_19 
REMARK    2  A    between atoms: C17_19  and  C18_20 
REMARK    3  A    between atoms: C18_20  and  O2_22 
ROOT
HETATM    1  C1  UNL     1      20.818   3.884  50.256  1.00  0.00     0.016 C 
HETATM    2  C2  UNL     1      21.309   3.689  51.648  1.00  0.00     0.032 C 
HETATM    3  C3  UNL     1      20.274   3.138  52.609  1.00  0.00     0.011 C 
HETATM    4  C4  UNL     1      20.027   1.678  52.482  1.00  0.00     0.005 C 
HETATM    5  C5  UNL     1      20.969   1.094  51.431  1.00  0.00     0.041 C 
HETATM    6  C6  UNL     1      22.361   1.525  51.654  1.00  0.00    -0.027 C 
HETATM    7  C7  UNL     1      22.520   2.839  51.762  1.00  0.00     0.016 C 
HETATM    8  N1  UNL     1      23.755   3.548  51.984  1.00  0.00    -0.382 N 
HETATM    9  C8  UNL     1      24.661   3.054  52.970  1.00  0.00     0.132 C 
HETATM   10  C9  UNL     1      25.581   2.340  53.599  1.00  0.00     0.014 C 
HETATM   11  C10 UNL     1      26.497   1.172  53.440  1.00  0.00    -0.009 A 
HETATM   12  C11 UNL     1      27.721   1.326  54.031  1.00  0.00     0.013 A 
HETATM   13  C12 UNL     1      28.531   0.201  53.867  1.00  0.00     0.001 A 
HETATM   14  C13 UNL     1      28.099  -0.918  53.178  1.00  0.00     0.002 A 
HETATM   15  C14 UNL     1      26.852  -0.984  52.616  1.00  0.00     0.032 A 
HETATM   16  C15 UNL     1      25.975   0.076  52.721  1.00  0.00     0.067 A 
HETATM   17  N2  UNL     1      24.667   0.253  52.224  1.00  0.00    -0.250 N 
HETATM   18  C16 UNL     1      23.652   0.048  52.978  1.00  0.00     0.070 A 
HETATM   19  O3  UNL     1      23.255   0.446  51.709  1.00  0.00     0.000 OA
HETATM   20  H11 UNL     1      23.981   4.427  51.429  1.00  0.00     0.160 HD
ENDROOT
BRANCH  18  21
HETATM   21  C17 UNL     1      23.751  -0.380  54.376  1.00  0.00     0.171 C 
BRANCH  21  22
HETATM   22  C18 UNL     1      22.690  -1.316  54.765  1.00  0.00     0.145 C 
HETATM   23  O1  UNL     1      21.577  -1.554  54.187  1.00  0.00    -0.650 OA
BRANCH  22  24
HETATM   24  O2  UNL     1      22.863  -2.081  55.914  1.00  0.00    -0.776 OA
HETATM   25  H20 UNL     1      23.778  -2.223  56.319  1.00  0.00     0.167 HD
ENDBRANCH  22  24
ENDBRANCH  21  22
ENDBRANCH  18  21
TORSDOF 3
ENDMDL
MODEL 8
REMARK VINA RESULT:      -7.5      2.576      5.411
REMARK  3 active torsions:
REMARK  status: ('A' for Active; 'I' for Inactive)
REMARK    1  A    between atoms: C16_18  and  C17_19 
REMARK    2  A    between atoms: C17_19  and  C18_20 
REMARK    3  A    between atoms: C18_20  and  O2_22 
ROOT
HETATM    1  C1  UNL     1      26.537   0.308  54.970  1.00  0.00     0.016 C 
HETATM    2  C2  UNL     1      26.422   0.273  53.487  1.00  0.00     0.032 C 
HETATM    3  C3  UNL     1      25.532  -0.831  52.950  1.00  0.00     0.011 C 
HETATM    4  C4  UNL     1      24.075  -0.562  53.066  1.00  0.00     0.005 C 
HETATM    5  C5  UNL     1      23.861   0.834  53.647  1.00  0.00     0.041 C 
HETATM    6  C6  UNL     1      24.678   1.842  52.947  1.00  0.00    -0.027 C 
HETATM    7  C7  UNL     1      25.971   1.547  52.872  1.00  0.00     0.016 C 
HETATM    8  N1  UNL     1      27.005   2.335  52.250  1.00  0.00    -0.382 N 
HETATM    9  C8  UNL     1      26.754   2.906  50.967  1.00  0.00     0.132 C 
HETATM   10  C9  UNL     1      26.316   3.690  49.994  1.00  0.00     0.014 C 
HETATM   11  C10 UNL     1      25.489   4.903  49.723  1.00  0.00    -0.009 A 
HETATM   12  C11 UNL     1      25.971   5.707  48.728  1.00  0.00     0.013 A 
HETATM   13  C12 UNL     1      25.153   6.816  48.504  1.00  0.00     0.001 A 
HETATM   14  C13 UNL     1      23.996   7.032  49.230  1.00  0.00     0.002 A 
HETATM   15  C14 UNL     1      23.589   6.169  50.213  1.00  0.00     0.032 A 
HETATM   16  C15 UNL     1      24.328   5.043  50.513  1.00  0.00     0.067 A 
HETATM   17  N2  UNL     1      24.130   4.030  51.474  1.00  0.00    -0.250 N 
HETATM   18  C16 UNL     1      23.588   2.918  51.144  1.00  0.00     0.070 A 
HETATM   19  O3  UNL     1      23.917   2.928  52.492  1.00  0.00     0.000 OA
HETATM   20  H11 UNL     1      27.941   2.478  52.736  1.00  0.00     0.160 HD
ENDROOT
BRANCH  18  21
HETATM   21  C17 UNL     1      23.132   2.608  49.786  1.00  0.00     0.171 C 
BRANCH  21  22
HETATM   22  C18 UNL     1      22.196   1.478  49.740  1.00  0.00     0.145 C 
HETATM   23  O1  UNL     1      21.739   0.775  50.702  1.00  0.00    -0.650 OA
BRANCH  22  24
HETATM   24  O2  UNL     1      21.702   1.071  48.505  1.00  0.00    -0.776 OA
HETATM   25  H20 UNL     1      20.836   0.557  48.428  1.00  0.00     0.167 HD
ENDBRANCH  22  24
ENDBRANCH  21  22
ENDBRANCH  18  21
TORSDOF 3
ENDMDL
MODEL 9
REMARK VINA RESULT:      -7.4      1.914      6.065
REMARK  3 active torsions:
REMARK  status: ('A' for Active; 'I' for Inactive)
REMARK    1  A    between atoms: C16_18  and  C17_19 
REMARK    2  A    between atoms: C17_19  and  C18_20 
REMARK    3  A    between atoms: C18_20  and  O2_22 
ROOT
HETATM    1  C1  UNL     1      27.654  -0.691  52.995  1.00  0.00     0.016 C 
HETATM    2  C2  UNL     1      26.563   0.001  53.732  1.00  0.00     0.032 C 
HETATM    3  C3  UNL     1      26.898   1.411  54.176  1.00  0.00     0.011 C 
HETATM    4  C4  UNL     1      26.829   2.431  53.099  1.00  0.00     0.005 C 
HETATM    5  C5  UNL     1      26.352   1.774  51.806  1.00  0.00     0.041 C 
HETATM    6  C6  UNL     1      25.149   0.951  52.031  1.00  0.00    -0.027 C 
HETATM    7  C7  UNL     1      25.268   0.058  53.008  1.00  0.00     0.016 C 
HETATM    8  N1  UNL     1      24.266  -0.877  53.454  1.00  0.00    -0.382 N 
HETATM    9  C8  UNL     1      22.928  -0.414  53.632  1.00  0.00     0.132 C 
HETATM   10  C9  UNL     1      21.686  -0.015  53.407  1.00  0.00     0.014 C 
HETATM   11  C10 UNL     1      20.696   0.239  52.319  1.00  0.00    -0.009 A 
HETATM   12  C11 UNL     1      19.411  -0.109  52.629  1.00  0.00     0.013 A 
HETATM   13  C12 UNL     1      18.524   0.165  51.587  1.00  0.00     0.001 A 
HETATM   14  C13 UNL     1      18.946   0.725  50.395  1.00  0.00     0.002 A 
HETATM   15  C14 UNL     1      20.260   1.041  50.169  1.00  0.00     0.032 A 
HETATM   16  C15 UNL     1      21.215   0.810  51.137  1.00  0.00     0.067 A 
HETATM   17  N2  UNL     1      22.609   1.030  51.139  1.00  0.00    -0.250 N 
HETATM   18  C16 UNL     1      23.100   2.080  51.682  1.00  0.00     0.070 A 
HETATM   19  O3  UNL     1      24.103   1.278  51.157  1.00  0.00     0.000 OA
HETATM   20  H11 UNL     1      24.524  -1.889  53.656  1.00  0.00     0.160 HD
ENDROOT
BRANCH  18  21
HETATM   21  C17 UNL     1      22.288   3.118  52.325  1.00  0.00     0.171 C 
BRANCH  21  22
HETATM   22  C18 UNL     1      22.191   4.345  51.525  1.00  0.00     0.145 C 
HETATM   23  O1  UNL     1      22.041   5.550  51.917  1.00  0.00    -0.650 OA
BRANCH  22  24
HETATM   24  O2  UNL     1      22.267   4.245  50.139  1.00  0.00    -0.776 OA
HETATM   25  H20 UNL     1      21.681   3.602  49.625  1.00  0.00     0.167 HD
ENDBRANCH  22  24
ENDBRANCH  21  22
ENDBRANCH  18  21
TORSDOF 3
ENDMDL
