MODEL 1
REMARK VINA RESULT:      -7.8      0.000      0.000
REMARK  6 active torsions:
REMARK  status: ('A' for Active; 'I' for Inactive)
REMARK    1  A    between atoms: O1_2  and  C2_3 
REMARK    2  A    between atoms: C4_5  and  S1_6 
REMARK    3  A    between atoms: C7_9  and  C8_10 
REMARK    4  A    between atoms: C9_13  and  S2_14 
REMARK    5  A    between atoms: S2_14  and  C10_15 
REMARK    6  A    between atoms: C10_15  and  C11_16 
ROOT
HETATM    1  C8  UNL     1      21.429  -0.835  53.768  1.00  0.00     0.203 A 
HETATM    2  N1  UNL     1      21.270  -1.615  54.845  1.00  0.00    -0.120 NA
HETATM    3  N2  UNL     1      22.447  -1.746  55.411  1.00  0.00    -0.114 NA
HETATM    4  C9  UNL     1      23.327  -1.047  54.682  1.00  0.00     0.231 A 
HETATM    5  O2  UNL     1      22.691  -0.494  53.678  1.00  0.00    -0.263 OA
ENDROOT
BRANCH   1   6
HETATM    6  C7  UNL     1      20.352  -0.450  52.865  1.00  0.00     0.023 A 
HETATM    7  C6  UNL     1      19.045  -0.762  53.118  1.00  0.00     0.034 A 
HETATM    8  C4  UNL     1      18.050  -0.389  52.252  1.00  0.00     0.003 A 
HETATM    9  C3  UNL     1      18.364   0.321  51.090  1.00  0.00     0.055 A 
HETATM   10  C2  UNL     1      19.694   0.653  50.807  1.00  0.00     0.070 A 
HETATM   11  C17 UNL     1      20.652   0.252  51.713  1.00  0.00     0.052 A 
BRANCH   8  12
HETATM   12  S1  UNL     1      16.322  -0.755  52.510  1.00  0.00    -0.134 SA
HETATM   13  C5  UNL     1      15.471  -1.139  50.972  1.00  0.00     0.095 C 
ENDBRANCH   8  12
BRANCH  10  14
HETATM   14  O1  UNL     1      19.925   1.355  49.640  1.00  0.00    -0.356 OA
HETATM   15  C1  UNL     1      21.072   1.312  48.853  1.00  0.00     0.210 C 
ENDBRANCH  10  14
ENDBRANCH   1   6
BRANCH   4  16
HETATM   16  S2  UNL     1      25.098  -0.722  54.780  1.00  0.00    -0.078 SA
BRANCH  16  17
HETATM   17  C10 UNL     1      25.798  -0.537  53.121  1.00  0.00     0.121 C 
BRANCH  17  18
HETATM   18  C11 UNL     1      27.277  -0.488  53.285  1.00  0.00    -0.049 A 
HETATM   19  C12 UNL     1      27.941  -1.701  53.100  1.00  0.00     0.008 A 
HETATM   20  C13 UNL     1      29.315  -1.827  53.217  1.00  0.00     0.001 A 
HETATM   21  C14 UNL     1      30.062  -0.695  53.533  1.00  0.00     0.000 A 
HETATM   22  C15 UNL     1      29.387   0.492  53.712  1.00  0.00     0.001 A 
HETATM   23  C16 UNL     1      28.017   0.634  53.598  1.00  0.00     0.008 A 
ENDBRANCH  17  18
ENDBRANCH  16  17
ENDBRANCH   4  16
TORSDOF 6
ENDMDL
MODEL 2
REMARK VINA RESULT:      -7.7      5.883      7.771
REMARK  6 active torsions:
REMARK  status: ('A' for Active; 'I' for Inactive)
REMARK    1  A    between atoms: O1_2  and  C2_3 
REMARK    2  A    between atoms: C4_5  and  S1_6 
REMARK    3  A    between atoms: C7_9  and  C8_10 
REMARK    4  A    between atoms: C9_13  and  S2_14 
REMARK    5  A    between atoms: S2_14  and  C10_15 
REMARK    6  A    between atoms: C10_15  and  C11_16 
ROOT
HETATM    1  C8  UNL     1      25.103   3.398  50.245  1.00  0.00     0.203 A 
HETATM    2  N1  UNL     1      23.844   3.048  49.951  1.00  0.00    -0.120 NA
HETATM    3  N2  UNL     1      23.507   2.077  50.768  1.00  0.00    -0.114 NA
HETATM    4  C9  UNL     1      24.559   1.833  51.561  1.00  0.00     0.231 A 
HETATM    5  O2  UNL     1      25.529   2.649  51.231  1.00  0.00    -0.263 OA
ENDROOT
BRANCH   1   6
HETATM    6  C7  UNL     1      25.846   4.448  49.558  1.00  0.00     0.023 A 
HETATM    7  C6  UNL     1      25.291   5.664  49.274  1.00  0.00     0.034 A 
HETATM    8  C4  UNL     1      26.011   6.634  48.626  1.00  0.00     0.003 A 
HETATM    9  C3  UNL     1      27.333   6.387  48.245  1.00  0.00     0.055 A 
HETATM   10  C2  UNL     1      27.925   5.150  48.524  1.00  0.00     0.070 A 
HETATM   11  C17 UNL     1      27.153   4.213  49.177  1.00  0.00     0.052 A 
BRANCH   8  12
HETATM   12  S1  UNL     1      25.362   8.246  48.219  1.00  0.00    -0.134 SA
HETATM   13  C5  UNL     1      26.078   9.545  49.237  1.00  0.00     0.095 C 
ENDBRANCH   8  12
BRANCH  10  14
HETATM   14  O1  UNL     1      29.234   4.981  48.117  1.00  0.00    -0.356 OA
HETATM   15  C1  UNL     1      30.310   5.819  48.395  1.00  0.00     0.210 C 
ENDBRANCH  10  14
ENDBRANCH   1   6
BRANCH   4  16
HETATM   16  S2  UNL     1      24.905   0.687  52.911  1.00  0.00    -0.078 SA
BRANCH  16  17
HETATM   17  C10 UNL     1      26.489   1.088  53.688  1.00  0.00     0.121 C 
BRANCH  17  18
HETATM   18  C11 UNL     1      27.378  -0.087  53.476  1.00  0.00    -0.049 A 
HETATM   19  C12 UNL     1      26.768  -1.205  52.905  1.00  0.00     0.008 A 
HETATM   20  C13 UNL     1      27.455  -2.378  52.642  1.00  0.00     0.001 A 
HETATM   21  C14 UNL     1      28.808  -2.443  52.962  1.00  0.00     0.000 A 
HETATM   22  C15 UNL     1      29.390  -1.329  53.525  1.00  0.00     0.001 A 
HETATM   23  C16 UNL     1      28.720  -0.151  53.794  1.00  0.00     0.008 A 
ENDBRANCH  17  18
ENDBRANCH  16  17
ENDBRANCH   4  16
TORSDOF 6
ENDMDL
MODEL 3
REMARK VINA RESULT:      -7.6      1.586      2.938
REMARK  6 active torsions:
REMARK  status: ('A' for Active; 'I' for Inactive)
REMARK    1  A    between atoms: O1_2  and  C2_3 
REMARK    2  A    between atoms: C4_5  and  S1_6 
REMARK    3  A    between atoms: C7_9  and  C8_10 
REMARK    4  A    between atoms: C9_13  and  S2_14 
REMARK    5  A    between atoms: S2_14  and  C10_15 
REMARK    6  A    between atoms: C10_15  and  C11_16 
ROOT
HETATM    1  C8  UNL     1      21.369  -0.679  53.506  1.00  0.00     0.203 A 
HETATM    2  N1  UNL     1      21.100  -1.381  54.614  1.00  0.00    -0.120 NA
HETATM    3  N2  UNL     1      22.236  -1.573  55.242  1.00  0.00    -0.114 NA
HETATM    4  C9  UNL     1      23.202  -0.990  54.519  1.00  0.00     0.231 A 
HETATM    5  O2  UNL     1      22.657  -0.446  53.458  1.00  0.00    -0.263 OA
ENDROOT
BRANCH   1   6
HETATM    6  C7  UNL     1      20.367  -0.261  52.533  1.00  0.00     0.023 A 
HETATM    7  C6  UNL     1      20.687   0.494  51.439  1.00  0.00     0.034 A 
HETATM    8  C4  UNL     1      19.725   0.875  50.540  1.00  0.00     0.003 A 
HETATM    9  C3  UNL     1      18.396   0.491  50.732  1.00  0.00     0.055 A 
HETATM   10  C2  UNL     1      18.041  -0.282  51.844  1.00  0.00     0.070 A 
HETATM   11  C17 UNL     1      19.050  -0.635  52.716  1.00  0.00     0.052 A 
BRANCH   8  12
HETATM   12  S1  UNL     1      20.059   1.859  49.088  1.00  0.00    -0.134 SA
HETATM   13  C5  UNL     1      21.686   1.522  48.397  1.00  0.00     0.095 C 
ENDBRANCH   8  12
BRANCH  10  14
HETATM   14  O1  UNL     1      16.708  -0.621  51.967  1.00  0.00    -0.356 OA
HETATM   15  C1  UNL     1      16.192  -1.798  52.502  1.00  0.00     0.210 C 
ENDBRANCH  10  14
ENDBRANCH   1   6
BRANCH   4  16
HETATM   16  S2  UNL     1      24.988  -0.803  54.683  1.00  0.00    -0.078 SA
BRANCH  16  17
HETATM   17  C10 UNL     1      25.742  -0.497  53.067  1.00  0.00     0.121 C 
BRANCH  17  18
HETATM   18  C11 UNL     1      27.203  -0.733  53.226  1.00  0.00    -0.049 A 
HETATM   19  C12 UNL     1      27.941   0.361  53.679  1.00  0.00     0.008 A 
HETATM   20  C13 UNL     1      29.311   0.307  53.880  1.00  0.00     0.001 A 
HETATM   21  C14 UNL     1      29.975  -0.887  53.617  1.00  0.00     0.000 A 
HETATM   22  C15 UNL     1      29.228  -1.955  53.170  1.00  0.00     0.001 A 
HETATM   23  C16 UNL     1      27.861  -1.918  52.965  1.00  0.00     0.008 A 
ENDBRANCH  17  18
ENDBRANCH  16  17
ENDBRANCH   4  16
TORSDOF 6
ENDMDL
MODEL 4
REMARK VINA RESULT:      -7.4      3.009      4.384
REMARK  6 active torsions:
REMARK  status: ('A' for Active; 'I' for Inactive)
REMARK    1  A    between atoms: O1_2  and  C2_3 
REMARK    2  A    between atoms: C4_5  and  S1_6 
REMARK    3  A    between atoms: C7_9  and  C8_10 
REMARK    4  A    between atoms: C9_13  and  S2_14 
REMARK    5  A    between atoms: S2_14  and  C10_15 
REMARK    6  A    between atoms: C10_15  and  C11_16 
ROOT
HETATM    1  C8  UNL     1      22.312   1.142  51.468  1.00  0.00     0.203 A 
HETATM    2  N1  UNL     1      21.981   1.276  50.178  1.00  0.00    -0.120 NA
HETATM    3  N2  UNL     1      22.816   2.140  49.647  1.00  0.00    -0.114 NA
HETATM    4  C9  UNL     1      23.657   2.535  50.613  1.00  0.00     0.231 A 
HETATM    5  O2  UNL     1      23.338   1.916  51.723  1.00  0.00    -0.263 OA
ENDROOT
BRANCH   1   6
HETATM    6  C7  UNL     1      21.620   0.268  52.408  1.00  0.00     0.023 A 
HETATM    7  C6  UNL     1      20.283   0.006  52.306  1.00  0.00     0.034 A 
HETATM    8  C4  UNL     1      19.656  -0.820  53.203  1.00  0.00     0.003 A 
HETATM    9  C3  UNL     1      20.384  -1.407  54.241  1.00  0.00     0.055 A 
HETATM   10  C2  UNL     1      21.755  -1.155  54.368  1.00  0.00     0.070 A 
HETATM   11  C17 UNL     1      22.332  -0.317  53.437  1.00  0.00     0.052 A 
BRANCH   8  12
HETATM   12  S1  UNL     1      17.916  -1.213  53.140  1.00  0.00    -0.134 SA
HETATM   13  C5  UNL     1      17.587  -2.922  53.599  1.00  0.00     0.095 C 
ENDBRANCH   8  12
BRANCH  10  14
HETATM   14  O1  UNL     1      22.407  -1.771  55.418  1.00  0.00    -0.356 OA
HETATM   15  C1  UNL     1      23.713  -1.542  55.839  1.00  0.00     0.210 C 
ENDBRANCH  10  14
ENDBRANCH   1   6
BRANCH   4  16
HETATM   16  S2  UNL     1      25.055   3.671  50.705  1.00  0.00    -0.078 SA
BRANCH  16  17
HETATM   17  C10 UNL     1      26.615   2.754  50.668  1.00  0.00     0.121 C 
BRANCH  17  18
HETATM   18  C11 UNL     1      26.535   1.732  51.747  1.00  0.00    -0.049 A 
HETATM   19  C12 UNL     1      26.428   2.237  53.045  1.00  0.00     0.008 A 
HETATM   20  C13 UNL     1      26.344   1.420  54.160  1.00  0.00     0.001 A 
HETATM   21  C14 UNL     1      26.368   0.040  53.978  1.00  0.00     0.000 A 
HETATM   22  C15 UNL     1      26.474  -0.437  52.690  1.00  0.00     0.001 A 
HETATM   23  C16 UNL     1      26.558   0.364  51.566  1.00  0.00     0.008 A 
ENDBRANCH  17  18
ENDBRANCH  16  17
ENDBRANCH   4  16
TORSDOF 6
ENDMDL
MODEL 5
REMARK VINA RESULT:      -7.4      5.111      7.665
REMARK  6 active torsions:
REMARK  status: ('A' for Active; 'I' for Inactive)
REMARK    1  A    between atoms: O1_2  and  C2_3 
REMARK    2  A    between atoms: C4_5  and  S1_6 
REMARK    3  A    between atoms: C7_9  and  C8_10 
REMARK    4  A    between atoms: C9_13  and  S2_14 
REMARK    5  A    between atoms: S2_14  and  C10_15 
REMARK    6  A    between atoms: C10_15  and  C11_16 
ROOT
HETATM    1  C8  UNL     1      23.471   2.669  51.726  1.00  0.00     0.203 A 
HETATM    2  N1  UNL     1      22.457   3.427  52.163  1.00  0.00    -0.120 NA
HETATM    3  N2  UNL     1      22.258   4.367  51.269  1.00  0.00    -0.114 NA
HETATM    4  C9  UNL     1      23.150   4.186  50.285  1.00  0.00     0.231 A 
HETATM    5  O2  UNL     1      23.886   3.143  50.578  1.00  0.00    -0.263 OA
ENDROOT
BRANCH   1   6
HETATM    6  C7  UNL     1      24.001   1.514  52.440  1.00  0.00     0.023 A 
HETATM    7  C6  UNL     1      25.331   1.197  52.425  1.00  0.00     0.034 A 
HETATM    8  C4  UNL     1      25.803   0.105  53.104  1.00  0.00     0.003 A 
HETATM    9  C3  UNL     1      24.923  -0.704  53.828  1.00  0.00     0.055 A 
HETATM   10  C2  UNL     1      23.557  -0.402  53.860  1.00  0.00     0.070 A 
HETATM   11  C17 UNL     1      23.138   0.708  53.158  1.00  0.00     0.052 A 
BRANCH   8  12
HETATM   12  S1  UNL     1      27.522  -0.377  53.135  1.00  0.00    -0.134 SA
HETATM   13  C5  UNL     1      28.347   0.138  54.648  1.00  0.00     0.095 C 
ENDBRANCH   8  12
BRANCH  10  14
HETATM   14  O1  UNL     1      22.749  -1.248  54.596  1.00  0.00    -0.356 OA
HETATM   15  C1  UNL     1      21.384  -1.458  54.424  1.00  0.00     0.210 C 
ENDBRANCH  10  14
ENDBRANCH   1   6
BRANCH   4  16
HETATM   16  S2  UNL     1      23.530   5.022  48.733  1.00  0.00    -0.078 SA
BRANCH  16  17
HETATM   17  C10 UNL     1      24.513   6.509  49.043  1.00  0.00     0.121 C 
BRANCH  17  18
HETATM   18  C11 UNL     1      25.930   6.149  48.765  1.00  0.00    -0.049 A 
HETATM   19  C12 UNL     1      26.704   7.159  48.191  1.00  0.00     0.008 A 
HETATM   20  C13 UNL     1      28.041   6.987  47.871  1.00  0.00     0.001 A 
HETATM   21  C14 UNL     1      28.634   5.755  48.131  1.00  0.00     0.000 A 
HETATM   22  C15 UNL     1      27.852   4.771  48.698  1.00  0.00     0.001 A 
HETATM   23  C16 UNL     1      26.518   4.927  49.024  1.00  0.00     0.008 A 
ENDBRANCH  17  18
ENDBRANCH  16  17
ENDBRANCH   4  16
TORSDOF 6
ENDMDL
MODEL 6
REMARK VINA RESULT:      -7.4      2.207      8.542
REMARK  6 active torsions:
REMARK  status: ('A' for Active; 'I' for Inactive)
REMARK    1  A    between atoms: O1_2  and  C2_3 
REMARK    2  A    between atoms: C4_5  and  S1_6 
REMARK    3  A    between atoms: C7_9  and  C8_10 
REMARK    4  A    between atoms: C9_13  and  S2_14 
REMARK    5  A    between atoms: S2_14  and  C10_15 
REMARK    6  A    between atoms: C10_15  and  C11_16 
ROOT
HETATM    1  C8  UNL     1      23.402  -0.666  54.032  1.00  0.00     0.203 A 
HETATM    2  N1  UNL     1      23.210  -1.276  55.209  1.00  0.00    -0.120 NA
HETATM    3  N2  UNL     1      21.932  -1.559  55.300  1.00  0.00    -0.114 NA
HETATM    4  C9  UNL     1      21.340  -1.123  54.180  1.00  0.00     0.231 A 
HETATM    5  O2  UNL     1      22.252  -0.578  53.412  1.00  0.00    -0.263 OA
ENDROOT
BRANCH   1   6
HETATM    6  C7  UNL     1      24.694  -0.191  53.553  1.00  0.00     0.023 A 
HETATM    7  C6  UNL     1      24.803   0.833  52.654  1.00  0.00     0.034 A 
HETATM    8  C4  UNL     1      26.030   1.261  52.218  1.00  0.00     0.003 A 
HETATM    9  C3  UNL     1      27.194   0.651  52.694  1.00  0.00     0.055 A 
HETATM   10  C2  UNL     1      27.110  -0.400  53.615  1.00  0.00     0.070 A 
HETATM   11  C17 UNL     1      25.849  -0.788  54.017  1.00  0.00     0.052 A 
BRANCH   8  12
HETATM   12  S1  UNL     1      26.260   2.589  51.048  1.00  0.00    -0.134 SA
HETATM   13  C5  UNL     1      24.712   3.101  50.287  1.00  0.00     0.095 C 
ENDBRANCH   8  12
BRANCH  10  14
HETATM   14  O1  UNL     1      28.303  -0.953  54.039  1.00  0.00    -0.356 OA
HETATM   15  C1  UNL     1      29.560  -0.757  53.475  1.00  0.00     0.210 C 
ENDBRANCH  10  14
ENDBRANCH   1   6
BRANCH   4  16
HETATM   16  S2  UNL     1      19.654  -1.125  53.539  1.00  0.00    -0.078 SA
BRANCH  16  17
HETATM   17  C10 UNL     1      19.426   0.228  52.360  1.00  0.00     0.121 C 
BRANCH  17  18
HETATM   18  C11 UNL     1      18.195  -0.085  51.584  1.00  0.00    -0.049 A 
HETATM   19  C12 UNL     1      17.224  -0.818  52.270  1.00  0.00     0.008 A 
HETATM   20  C13 UNL     1      16.022  -1.190  51.693  1.00  0.00     0.001 A 
HETATM   21  C14 UNL     1      15.774  -0.819  50.374  1.00  0.00     0.000 A 
HETATM   22  C15 UNL     1      16.744  -0.097  49.715  1.00  0.00     0.001 A 
HETATM   23  C16 UNL     1      17.949   0.283  50.277  1.00  0.00     0.008 A 
ENDBRANCH  17  18
ENDBRANCH  16  17
ENDBRANCH   4  16
TORSDOF 6
ENDMDL
MODEL 7
REMARK VINA RESULT:      -7.3      6.312      8.721
REMARK  6 active torsions:
REMARK  status: ('A' for Active; 'I' for Inactive)
REMARK    1  A    between atoms: O1_2  and  C2_3 
REMARK    2  A    between atoms: C4_5  and  S1_6 
REMARK    3  A    between atoms: C7_9  and  C8_10 
REMARK    4  A    between atoms: C9_13  and  S2_14 
REMARK    5  A    between atoms: S2_14  and  C10_15 
REMARK    6  A    between atoms: C10_15  and  C11_16 
ROOT
HETATM    1  C8  UNL     1      25.836   4.115  49.652  1.00  0.00     0.203 A 
HETATM    2  N1  UNL     1      24.541   3.861  49.421  1.00  0.00    -0.120 NA
HETATM    3  N2  UNL     1      24.193   2.863  50.200  1.00  0.00    -0.114 NA
HETATM    4  C9  UNL     1      25.273   2.506  50.908  1.00  0.00     0.231 A 
HETATM    5  O2  UNL     1      26.272   3.280  50.563  1.00  0.00    -0.263 OA
ENDROOT
BRANCH   1   6
HETATM    6  C7  UNL     1      26.602   5.157  48.980  1.00  0.00     0.023 A 
HETATM    7  C6  UNL     1      27.945   5.041  48.756  1.00  0.00     0.034 A 
HETATM    8  C4  UNL     1      28.642   6.037  48.122  1.00  0.00     0.003 A 
HETATM    9  C3  UNL     1      27.981   7.192  47.694  1.00  0.00     0.055 A 
HETATM   10  C2  UNL     1      26.606   7.335  47.912  1.00  0.00     0.070 A 
HETATM   11  C17 UNL     1      25.957   6.302  48.554  1.00  0.00     0.052 A 
BRANCH   8  12
HETATM   12  S1  UNL     1      30.395   5.964  47.790  1.00  0.00    -0.134 SA
HETATM   13  C5  UNL     1      31.336   7.067  48.855  1.00  0.00     0.095 C 
ENDBRANCH   8  12
BRANCH  10  14
HETATM   14  O1  UNL     1      26.024   8.504  47.462  1.00  0.00    -0.356 OA
HETATM   15  C1  UNL     1      24.767   8.996  47.804  1.00  0.00     0.210 C 
ENDBRANCH  10  14
ENDBRANCH   1   6
BRANCH   4  16
HETATM   16  S2  UNL     1      25.626   1.259  52.162  1.00  0.00    -0.078 SA
BRANCH  16  17
HETATM   17  C10 UNL     1      27.110   1.707  53.096  1.00  0.00     0.121 C 
BRANCH  17  18
HETATM   18  C11 UNL     1      27.937   0.474  53.200  1.00  0.00    -0.049 A 
HETATM   19  C12 UNL     1      27.292  -0.713  52.844  1.00  0.00     0.008 A 
HETATM   20  C13 UNL     1      27.920  -1.946  52.886  1.00  0.00     0.001 A 
HETATM   21  C14 UNL     1      29.248  -2.003  53.300  1.00  0.00     0.000 A 
HETATM   22  C15 UNL     1      29.866  -0.822  53.646  1.00  0.00     0.001 A 
HETATM   23  C16 UNL     1      29.253   0.417  53.610  1.00  0.00     0.008 A 
ENDBRANCH  17  18
ENDBRANCH  16  17
ENDBRANCH   4  16
TORSDOF 6
ENDMDL
MODEL 8
REMARK VINA RESULT:      -7.2      5.732      7.539
REMARK  6 active torsions:
REMARK  status: ('A' for Active; 'I' for Inactive)
REMARK    1  A    between atoms: O1_2  and  C2_3 
REMARK    2  A    between atoms: C4_5  and  S1_6 
REMARK    3  A    between atoms: C7_9  and  C8_10 
REMARK    4  A    between atoms: C9_13  and  S2_14 
REMARK    5  A    between atoms: S2_14  and  C10_15 
REMARK    6  A    between atoms: C10_15  and  C11_16 
ROOT
HETATM    1  C8  UNL     1      24.404   2.571  51.611  1.00  0.00     0.203 A 
HETATM    2  N1  UNL     1      23.210   3.165  51.494  1.00  0.00    -0.120 NA
HETATM    3  N2  UNL     1      23.380   4.244  50.766  1.00  0.00    -0.114 NA
HETATM    4  C9  UNL     1      24.677   4.311  50.438  1.00  0.00     0.231 A 
HETATM    5  O2  UNL     1      25.293   3.280  50.962  1.00  0.00    -0.263 OA
ENDROOT
BRANCH   1   6
HETATM    6  C7  UNL     1      24.639   1.336  52.351  1.00  0.00     0.023 A 
HETATM    7  C6  UNL     1      23.679   0.770  53.143  1.00  0.00     0.034 A 
HETATM    8  C4  UNL     1      23.926  -0.391  53.828  1.00  0.00     0.003 A 
HETATM    9  C3  UNL     1      25.172  -1.015  53.723  1.00  0.00     0.055 A 
HETATM   10  C2  UNL     1      26.171  -0.457  52.918  1.00  0.00     0.070 A 
HETATM   11  C17 UNL     1      25.867   0.712  52.252  1.00  0.00     0.052 A 
BRANCH   8  12
HETATM   12  S1  UNL     1      22.729  -1.194  54.883  1.00  0.00    -0.134 SA
HETATM   13  C5  UNL     1      21.058  -1.081  54.225  1.00  0.00     0.095 C 
ENDBRANCH   8  12
BRANCH  10  14
HETATM   14  O1  UNL     1      27.376  -1.131  52.864  1.00  0.00    -0.356 OA
HETATM   15  C1  UNL     1      28.548  -0.800  53.537  1.00  0.00     0.210 C 
ENDBRANCH  10  14
ENDBRANCH   1   6
BRANCH   4  16
HETATM   16  S2  UNL     1      25.698   5.451  49.484  1.00  0.00    -0.078 SA
BRANCH  16  17
HETATM   17  C10 UNL     1      27.211   4.628  48.929  1.00  0.00     0.121 C 
BRANCH  17  18
HETATM   18  C11 UNL     1      28.077   5.682  48.334  1.00  0.00    -0.049 A 
HETATM   19  C12 UNL     1      27.426   6.868  47.988  1.00  0.00     0.008 A 
HETATM   20  C13 UNL     1      28.087   7.946  47.424  1.00  0.00     0.001 A 
HETATM   21  C14 UNL     1      29.456   7.842  47.194  1.00  0.00     0.000 A 
HETATM   22  C15 UNL     1      30.079   6.663  47.543  1.00  0.00     0.001 A 
HETATM   23  C16 UNL     1      29.434   5.578  48.107  1.00  0.00     0.008 A 
ENDBRANCH  17  18
ENDBRANCH  16  17
ENDBRANCH   4  16
TORSDOF 6
ENDMDL
MODEL 9
REMARK VINA RESULT:      -7.1      4.024      7.739
REMARK  6 active torsions:
REMARK  status: ('A' for Active; 'I' for Inactive)
REMARK    1  A    between atoms: O1_2  and  C2_3 
REMARK    2  A    between atoms: C4_5  and  S1_6 
REMARK    3  A    between atoms: C7_9  and  C8_10 
REMARK    4  A    between atoms: C9_13  and  S2_14 
REMARK    5  A    between atoms: S2_14  and  C10_15 
REMARK    6  A    between atoms: C10_15  and  C11_16 
ROOT
HETATM    1  C8  UNL     1      25.584   2.519  51.228  1.00  0.00     0.203 A 
HETATM    2  N1  UNL     1      26.705   2.724  50.525  1.00  0.00    -0.120 NA
HETATM    3  N2  UNL     1      26.499   3.767  49.754  1.00  0.00    -0.114 NA
HETATM    4  C9  UNL     1      25.251   4.199  49.984  1.00  0.00     0.231 A 
HETATM    5  O2  UNL     1      24.703   3.426  50.889  1.00  0.00    -0.263 OA
ENDROOT
BRANCH   1   6
HETATM    6  C7  UNL     1      25.410   1.449  52.202  1.00  0.00     0.023 A 
HETATM    7  C6  UNL     1      24.193   0.871  52.436  1.00  0.00     0.034 A 
HETATM    8  C4  UNL     1      24.055  -0.133  53.359  1.00  0.00     0.003 A 
HETATM    9  C3  UNL     1      25.167  -0.582  54.076  1.00  0.00     0.055 A 
HETATM   10  C2  UNL     1      26.424  -0.007  53.856  1.00  0.00     0.070 A 
HETATM   11  C17 UNL     1      26.503   0.999  52.916  1.00  0.00     0.052 A 
BRANCH   8  12
HETATM   12  S1  UNL     1      22.505  -0.939  53.724  1.00  0.00    -0.134 SA
HETATM   13  C5  UNL     1      21.098  -0.054  53.033  1.00  0.00     0.095 C 
ENDBRANCH   8  12
BRANCH  10  14
HETATM   14  O1  UNL     1      27.475  -0.503  54.603  1.00  0.00    -0.356 OA
HETATM   15  C1  UNL     1      28.771   0.003  54.660  1.00  0.00     0.210 C 
ENDBRANCH  10  14
ENDBRANCH   1   6
BRANCH   4  16
HETATM   16  S2  UNL     1      24.225   5.541  49.351  1.00  0.00    -0.078 SA
BRANCH  16  17
HETATM   17  C10 UNL     1      23.113   4.930  48.061  1.00  0.00     0.121 C 
BRANCH  17  18
HETATM   18  C11 UNL     1      22.363   3.787  48.651  1.00  0.00    -0.049 A 
HETATM   19  C12 UNL     1      22.520   2.565  47.995  1.00  0.00     0.008 A 
HETATM   20  C13 UNL     1      21.891   1.405  48.416  1.00  0.00     0.001 A 
HETATM   21  C14 UNL     1      21.069   1.463  49.538  1.00  0.00     0.000 A 
HETATM   22  C15 UNL     1      20.928   2.679  50.170  1.00  0.00     0.001 A 
HETATM   23  C16 UNL     1      21.549   3.845  49.764  1.00  0.00     0.008 A 
ENDBRANCH  17  18
ENDBRANCH  16  17
ENDBRANCH   4  16
TORSDOF 6
ENDMDL
