MODEL 1
REMARK VINA RESULT:      -7.6      0.000      0.000
REMARK  6 active torsions:
REMARK  status: ('A' for Active; 'I' for Inactive)
REMARK    1  A    between atoms: O1_2  and  C2_3 
REMARK    2  A    between atoms: C6_7  and  N1_8 
REMARK    3  A    between atoms: N1_8  and  C7_9 
REMARK    4  A    between atoms: C7_9  and  O2_10 
REMARK    5  A    between atoms: O2_10  and  C8_11 
REMARK    6  A    between atoms: C8_11  and  C9_12 
ROOT
HETATM    1  C2  UNL     1      20.417  -0.218  53.111  1.00  0.00     0.070 A 
HETATM    2  C3  UNL     1      21.364   0.200  52.200  1.00  0.00     0.038 A 
HETATM    3  C4  UNL     1      22.742   0.089  52.422  1.00  0.00     0.020 A 
HETATM    4  C5  UNL     1      23.194  -0.468  53.622  1.00  0.00     0.039 A 
HETATM    5  C6  UNL     1      24.562  -0.523  53.755  1.00  0.00     0.143 A 
HETATM    6  N2  UNL     1      25.013  -1.054  54.928  1.00  0.00    -0.223 NA
HETATM    7  C14 UNL     1      24.089  -1.472  55.838  1.00  0.00     0.236 A 
HETATM    8  N3  UNL     1      22.757  -1.400  55.668  1.00  0.00    -0.241 NA
HETATM    9  C15 UNL     1      22.241  -0.881  54.524  1.00  0.00     0.074 A 
HETATM   10  C16 UNL     1      20.901  -0.768  54.294  1.00  0.00     0.069 A 
ENDROOT
BRANCH   5  11
HETATM   11  N1  UNL     1      25.468  -0.086  52.754  1.00  0.00    -0.320 N 
HETATM   12  H6  UNL     1      25.546  -0.638  51.876  1.00  0.00     0.169 HD
BRANCH  11  13
HETATM   13  C7  UNL     1      26.163   1.076  53.105  1.00  0.00     0.153 C 
HETATM   14  C10 UNL     1      27.499   1.015  53.334  1.00  0.00     0.035 A 
HETATM   15  C11 UNL     1      28.081  -0.348  53.175  1.00  0.00     0.076 A 
HETATM   16  C13 UNL     1      28.864   1.485  53.669  1.00  0.00     0.123 A 
HETATM   17  C12 UNL     1      29.393   0.257  53.529  1.00  0.00     0.021 A 
HETATM   18  F1  UNL     1      28.829   2.814  53.919  1.00  0.00    -0.206 F 
BRANCH  13  19
HETATM   19  O2  UNL     1      25.683   2.354  53.264  1.00  0.00    -0.334 OA
BRANCH  19  20
HETATM   20  C8  UNL     1      24.781   3.034  52.450  1.00  0.00     0.192 C 
BRANCH  20  21
HETATM   21  C9  UNL     1      25.208   3.015  50.990  1.00  0.00     0.141 C 
HETATM   22 CL1  UNL     1      23.787   2.866  49.929  1.00  0.00    -0.128 Cl
ENDBRANCH  20  21
ENDBRANCH  19  20
ENDBRANCH  13  19
ENDBRANCH  11  13
ENDBRANCH   5  11
BRANCH   1  23
HETATM   23  O1  UNL     1      19.066  -0.070  52.814  1.00  0.00    -0.356 OA
HETATM   24  C1  UNL     1      18.131  -1.101  53.072  1.00  0.00     0.210 C 
ENDBRANCH   1  23
TORSDOF 6
ENDMDL
MODEL 2
REMARK VINA RESULT:      -7.4      3.178      4.902
REMARK  6 active torsions:
REMARK  status: ('A' for Active; 'I' for Inactive)
REMARK    1  A    between atoms: O1_2  and  C2_3 
REMARK    2  A    between atoms: C6_7  and  N1_8 
REMARK    3  A    between atoms: N1_8  and  C7_9 
REMARK    4  A    between atoms: C7_9  and  O2_10 
REMARK    5  A    between atoms: O2_10  and  C8_11 
REMARK    6  A    between atoms: C8_11  and  C9_12 
ROOT
HETATM    1  C2  UNL     1      24.912  -0.577  54.640  1.00  0.00     0.070 A 
HETATM    2  C3  UNL     1      24.416  -0.227  53.403  1.00  0.00     0.038 A 
HETATM    3  C4  UNL     1      25.082   0.641  52.528  1.00  0.00     0.020 A 
HETATM    4  C5  UNL     1      26.309   1.186  52.917  1.00  0.00     0.039 A 
HETATM    5  C6  UNL     1      26.881   2.036  51.999  1.00  0.00     0.143 A 
HETATM    6  N2  UNL     1      28.073   2.584  52.373  1.00  0.00    -0.223 NA
HETATM    7  C14 UNL     1      28.576   2.246  53.594  1.00  0.00     0.236 A 
HETATM    8  N3  UNL     1      27.983   1.408  54.464  1.00  0.00    -0.241 NA
HETATM    9  C15 UNL     1      26.795   0.830  54.153  1.00  0.00     0.074 A 
HETATM   10  C16 UNL     1      26.136  -0.017  54.995  1.00  0.00     0.069 A 
ENDROOT
BRANCH   5  11
HETATM   11  N1  UNL     1      26.308   2.328  50.733  1.00  0.00    -0.320 N 
HETATM   12  H6  UNL     1      26.469   1.667  49.948  1.00  0.00     0.169 HD
BRANCH  11  13
HETATM   13  C7  UNL     1      25.576   3.521  50.719  1.00  0.00     0.153 C 
HETATM   14  C10 UNL     1      25.970   4.539  49.913  1.00  0.00     0.035 A 
HETATM   15  C11 UNL     1      27.190   4.242  49.110  1.00  0.00     0.076 A 
HETATM   16  C13 UNL     1      25.954   5.873  49.269  1.00  0.00     0.123 A 
HETATM   17  C12 UNL     1      27.055   5.610  48.544  1.00  0.00     0.021 A 
HETATM   18  F1  UNL     1      24.901   6.581  49.738  1.00  0.00    -0.206 F 
BRANCH  13  19
HETATM   19  O2  UNL     1      24.449   3.850  51.432  1.00  0.00    -0.334 OA
BRANCH  19  20
HETATM   20  C8  UNL     1      23.137   3.918  50.971  1.00  0.00     0.192 C 
BRANCH  20  21
HETATM   21  C9  UNL     1      22.319   2.710  51.403  1.00  0.00     0.141 C 
HETATM   22 CL1  UNL     1      22.297   1.480  50.117  1.00  0.00    -0.128 Cl
ENDBRANCH  20  21
ENDBRANCH  19  20
ENDBRANCH  13  19
ENDBRANCH  11  13
ENDBRANCH   5  11
BRANCH   1  23
HETATM   23  O1  UNL     1      24.187  -1.445  55.450  1.00  0.00    -0.356 OA
HETATM   24  C1  UNL     1      22.775  -1.532  55.371  1.00  0.00     0.210 C 
ENDBRANCH   1  23
TORSDOF 6
ENDMDL
MODEL 3
REMARK VINA RESULT:      -7.3      3.005      6.328
REMARK  6 active torsions:
REMARK  status: ('A' for Active; 'I' for Inactive)
REMARK    1  A    between atoms: O1_2  and  C2_3 
REMARK    2  A    between atoms: C6_7  and  N1_8 
REMARK    3  A    between atoms: N1_8  and  C7_9 
REMARK    4  A    between atoms: C7_9  and  O2_10 
REMARK    5  A    between atoms: O2_10  and  C8_11 
REMARK    6  A    between atoms: C8_11  and  C9_12 
ROOT
HETATM    1  C2  UNL     1      27.745  -0.082  53.596  1.00  0.00     0.070 A 
HETATM    2  C3  UNL     1      26.485  -0.642  53.598  1.00  0.00     0.038 A 
HETATM    3  C4  UNL     1      25.408  -0.107  52.882  1.00  0.00     0.020 A 
HETATM    4  C5  UNL     1      25.605   1.051  52.124  1.00  0.00     0.039 A 
HETATM    5  C6  UNL     1      24.487   1.508  51.466  1.00  0.00     0.143 A 
HETATM    6  N2  UNL     1      24.664   2.645  50.733  1.00  0.00    -0.223 NA
HETATM    7  C14 UNL     1      25.905   3.210  50.721  1.00  0.00     0.236 A 
HETATM    8  N3  UNL     1      26.974   2.729  51.380  1.00  0.00    -0.241 NA
HETATM    9  C15 UNL     1      26.865   1.601  52.129  1.00  0.00     0.074 A 
HETATM   10  C16 UNL     1      27.906   1.070  52.831  1.00  0.00     0.069 A 
ENDROOT
BRANCH   5  11
HETATM   11  N1  UNL     1      23.227   0.855  51.507  1.00  0.00    -0.320 N 
HETATM   12  H6  UNL     1      23.010   0.143  50.782  1.00  0.00     0.169 HD
BRANCH  11  13
HETATM   13  C7  UNL     1      22.417   1.283  52.565  1.00  0.00     0.153 C 
HETATM   14  C10 UNL     1      21.870   0.367  53.403  1.00  0.00     0.035 A 
HETATM   15  C11 UNL     1      22.219  -1.045  53.072  1.00  0.00     0.076 A 
HETATM   16  C13 UNL     1      21.080  -0.167  54.537  1.00  0.00     0.123 A 
HETATM   17  C12 UNL     1      21.390  -1.441  54.241  1.00  0.00     0.021 A 
HETATM   18  F1  UNL     1      20.513   0.862  55.208  1.00  0.00    -0.206 F 
BRANCH  13  19
HETATM   19  O2  UNL     1      22.064   2.563  52.919  1.00  0.00    -0.334 OA
BRANCH  19  20
HETATM   20  C8  UNL     1      21.253   3.450  52.217  1.00  0.00     0.192 C 
BRANCH  20  21
HETATM   21  C9  UNL     1      21.980   4.745  51.887  1.00  0.00     0.141 C 
HETATM   22 CL1  UNL     1      23.414   4.935  52.924  1.00  0.00    -0.128 Cl
ENDBRANCH  20  21
ENDBRANCH  19  20
ENDBRANCH  13  19
ENDBRANCH  11  13
ENDBRANCH   5  11
BRANCH   1  23
HETATM   23  O1  UNL     1      28.762  -0.674  54.338  1.00  0.00    -0.356 OA
HETATM   24  C1  UNL     1      30.027  -0.961  53.771  1.00  0.00     0.210 C 
ENDBRANCH   1  23
TORSDOF 6
ENDMDL
MODEL 4
REMARK VINA RESULT:      -7.2      3.340      6.789
REMARK  6 active torsions:
REMARK  status: ('A' for Active; 'I' for Inactive)
REMARK    1  A    between atoms: O1_2  and  C2_3 
REMARK    2  A    between atoms: C6_7  and  N1_8 
REMARK    3  A    between atoms: N1_8  and  C7_9 
REMARK    4  A    between atoms: C7_9  and  O2_10 
REMARK    5  A    between atoms: O2_10  and  C8_11 
REMARK    6  A    between atoms: C8_11  and  C9_12 
ROOT
HETATM    1  C2  UNL     1      26.446   5.408  49.242  1.00  0.00     0.070 A 
HETATM    2  C3  UNL     1      26.515   4.032  49.244  1.00  0.00     0.038 A 
HETATM    3  C4  UNL     1      25.620   3.221  49.952  1.00  0.00     0.020 A 
HETATM    4  C5  UNL     1      24.602   3.823  50.697  1.00  0.00     0.039 A 
HETATM    5  C6  UNL     1      23.780   2.947  51.368  1.00  0.00     0.143 A 
HETATM    6  N2  UNL     1      22.791   3.525  52.108  1.00  0.00    -0.223 NA
HETATM    7  C14 UNL     1      22.709   4.885  52.115  1.00  0.00     0.236 A 
HETATM    8  N3  UNL     1      23.535   5.707  51.443  1.00  0.00    -0.241 NA
HETATM    9  C15 UNL     1      24.541   5.197  50.688  1.00  0.00     0.074 A 
HETATM   10  C16 UNL     1      25.420   5.975  49.993  1.00  0.00     0.069 A 
ENDROOT
BRANCH   5  11
HETATM   11  N1  UNL     1      23.911   1.535  51.299  1.00  0.00    -0.320 N 
HETATM   12  H6  UNL     1      23.570   1.043  50.449  1.00  0.00     0.169 HD
BRANCH  11  13
HETATM   13  C7  UNL     1      24.506   0.979  52.436  1.00  0.00     0.153 C 
HETATM   14  C10 UNL     1      23.800   0.113  53.207  1.00  0.00     0.035 A 
HETATM   15  C11 UNL     1      22.415  -0.143  52.719  1.00  0.00     0.076 A 
HETATM   16  C13 UNL     1      23.507  -0.819  54.321  1.00  0.00     0.123 A 
HETATM   17  C12 UNL     1      22.257  -1.052  53.886  1.00  0.00     0.021 A 
HETATM   18  F1  UNL     1      24.596  -0.916  55.117  1.00  0.00    -0.206 F 
BRANCH  13  19
HETATM   19  O2  UNL     1      25.773   1.175  52.931  1.00  0.00    -0.334 OA
BRANCH  19  20
HETATM   20  C8  UNL     1      26.980   0.759  52.377  1.00  0.00     0.192 C 
BRANCH  20  21
HETATM   21  C9  UNL     1      27.526  -0.481  53.070  1.00  0.00     0.141 C 
HETATM   22 CL1  UNL     1      26.744  -1.946  52.431  1.00  0.00    -0.128 Cl
ENDBRANCH  20  21
ENDBRANCH  19  20
ENDBRANCH  13  19
ENDBRANCH  11  13
ENDBRANCH   5  11
BRANCH   1  23
HETATM   23  O1  UNL     1      27.377   6.142  48.514  1.00  0.00    -0.356 OA
HETATM   24  C1  UNL     1      28.677   5.645  48.253  1.00  0.00     0.210 C 
ENDBRANCH   1  23
TORSDOF 6
ENDMDL
MODEL 5
REMARK VINA RESULT:      -7.1      2.823      5.405
REMARK  6 active torsions:
REMARK  status: ('A' for Active; 'I' for Inactive)
REMARK    1  A    between atoms: O1_2  and  C2_3 
REMARK    2  A    between atoms: C6_7  and  N1_8 
REMARK    3  A    between atoms: N1_8  and  C7_9 
REMARK    4  A    between atoms: C7_9  and  O2_10 
REMARK    5  A    between atoms: O2_10  and  C8_11 
REMARK    6  A    between atoms: C8_11  and  C9_12 
ROOT
HETATM    1  C2  UNL     1      27.008  -0.346  53.644  1.00  0.00     0.070 A 
HETATM    2  C3  UNL     1      27.102   0.508  52.566  1.00  0.00     0.038 A 
HETATM    3  C4  UNL     1      25.988   1.083  51.944  1.00  0.00     0.020 A 
HETATM    4  C5  UNL     1      24.711   0.786  52.429  1.00  0.00     0.039 A 
HETATM    5  C6  UNL     1      23.678   1.387  51.748  1.00  0.00     0.143 A 
HETATM    6  N2  UNL     1      22.427   1.094  52.206  1.00  0.00    -0.223 NA
HETATM    7  C14 UNL     1      22.318   0.252  53.272  1.00  0.00     0.236 A 
HETATM    8  N3  UNL     1      23.356  -0.315  53.911  1.00  0.00    -0.241 NA
HETATM    9  C15 UNL     1      24.628  -0.066  53.506  1.00  0.00     0.074 A 
HETATM   10  C16 UNL     1      25.722  -0.620  54.102  1.00  0.00     0.069 A 
ENDROOT
BRANCH   5  11
HETATM   11  N1  UNL     1      23.867   2.273  50.654  1.00  0.00    -0.320 N 
HETATM   12  H6  UNL     1      23.947   1.875  49.698  1.00  0.00     0.169 HD
BRANCH  11  13
HETATM   13  C7  UNL     1      23.924   3.618  51.036  1.00  0.00     0.153 C 
HETATM   14  C10 UNL     1      24.800   4.453  50.421  1.00  0.00     0.035 A 
HETATM   15  C11 UNL     1      25.628   3.796  49.369  1.00  0.00     0.076 A 
HETATM   16  C13 UNL     1      25.515   5.710  50.103  1.00  0.00     0.123 A 
HETATM   17  C12 UNL     1      26.266   5.122  49.155  1.00  0.00     0.021 A 
HETATM   18  F1  UNL     1      25.047   6.701  50.896  1.00  0.00    -0.206 F 
BRANCH  13  19
HETATM   19  O2  UNL     1      23.188   4.276  51.991  1.00  0.00    -0.334 OA
BRANCH  19  20
HETATM   20  C8  UNL     1      22.156   5.189  51.794  1.00  0.00     0.192 C 
BRANCH  20  21
HETATM   21  C9  UNL     1      21.012   4.589  50.991  1.00  0.00     0.141 C 
HETATM   22 CL1  UNL     1      20.010   3.540  52.023  1.00  0.00    -0.128 Cl
ENDBRANCH  20  21
ENDBRANCH  19  20
ENDBRANCH  13  19
ENDBRANCH  11  13
ENDBRANCH   5  11
BRANCH   1  23
HETATM   23  O1  UNL     1      28.165  -0.877  54.203  1.00  0.00    -0.356 OA
HETATM   24  C1  UNL     1      29.433  -0.702  53.598  1.00  0.00     0.210 C 
ENDBRANCH   1  23
TORSDOF 6
ENDMDL
MODEL 6
REMARK VINA RESULT:      -7.0      3.276      6.177
REMARK  6 active torsions:
REMARK  status: ('A' for Active; 'I' for Inactive)
REMARK    1  A    between atoms: O1_2  and  C2_3 
REMARK    2  A    between atoms: C6_7  and  N1_8 
REMARK    3  A    between atoms: N1_8  and  C7_9 
REMARK    4  A    between atoms: C7_9  and  O2_10 
REMARK    5  A    between atoms: O2_10  and  C8_11 
REMARK    6  A    between atoms: C8_11  and  C9_12 
ROOT
HETATM    1  C2  UNL     1      27.515   0.052  54.144  1.00  0.00     0.070 A 
HETATM    2  C3  UNL     1      27.638   1.369  53.757  1.00  0.00     0.038 A 
HETATM    3  C4  UNL     1      26.557   2.145  53.323  1.00  0.00     0.020 A 
HETATM    4  C5  UNL     1      25.285   1.568  53.273  1.00  0.00     0.039 A 
HETATM    5  C6  UNL     1      24.288   2.402  52.823  1.00  0.00     0.143 A 
HETATM    6  N2  UNL     1      23.044   1.845  52.758  1.00  0.00    -0.223 NA
HETATM    7  C14 UNL     1      22.907   0.544  53.138  1.00  0.00     0.236 A 
HETATM    8  N3  UNL     1      23.910  -0.239  53.574  1.00  0.00    -0.241 NA
HETATM    9  C15 UNL     1      25.172   0.253  53.661  1.00  0.00     0.074 A 
HETATM   10  C16 UNL     1      26.235  -0.491  54.083  1.00  0.00     0.069 A 
ENDROOT
BRANCH   5  11
HETATM   11  N1  UNL     1      24.501   3.759  52.462  1.00  0.00    -0.320 N 
HETATM   12  H6  UNL     1      24.720   4.445  53.211  1.00  0.00     0.169 HD
BRANCH  11  13
HETATM   13  C7  UNL     1      24.377   3.992  51.088  1.00  0.00     0.153 C 
HETATM   14  C10 UNL     1      23.447   4.873  50.639  1.00  0.00     0.035 A 
HETATM   15  C11 UNL     1      22.639   5.507  51.719  1.00  0.00     0.076 A 
HETATM   16  C13 UNL     1      22.659   5.673  49.673  1.00  0.00     0.123 A 
HETATM   17  C12 UNL     1      21.926   6.246  50.644  1.00  0.00     0.021 A 
HETATM   18  F1  UNL     1      23.086   5.402  48.418  1.00  0.00    -0.206 F 
BRANCH  13  19
HETATM   19  O2  UNL     1      25.092   3.442  50.052  1.00  0.00    -0.334 OA
BRANCH  19  20
HETATM   20  C8  UNL     1      26.425   3.665  49.722  1.00  0.00     0.192 C 
BRANCH  20  21
HETATM   21  C9  UNL     1      26.611   4.966  48.956  1.00  0.00     0.141 C 
HETATM   22 CL1  UNL     1      28.313   5.167  48.473  1.00  0.00    -0.128 Cl
ENDBRANCH  20  21
ENDBRANCH  19  20
ENDBRANCH  13  19
ENDBRANCH  11  13
ENDBRANCH   5  11
BRANCH   1  23
HETATM   23  O1  UNL     1      28.641  -0.650  54.561  1.00  0.00    -0.356 OA
HETATM   24  C1  UNL     1      29.762  -0.829  53.714  1.00  0.00     0.210 C 
ENDBRANCH   1  23
TORSDOF 6
ENDMDL
MODEL 7
REMARK VINA RESULT:      -6.8      2.665      6.057
REMARK  6 active torsions:
REMARK  status: ('A' for Active; 'I' for Inactive)
REMARK    1  A    between atoms: O1_2  and  C2_3 
REMARK    2  A    between atoms: C6_7  and  N1_8 
REMARK    3  A    between atoms: N1_8  and  C7_9 
REMARK    4  A    between atoms: C7_9  and  O2_10 
REMARK    5  A    between atoms: O2_10  and  C8_11 
REMARK    6  A    between atoms: C8_11  and  C9_12 
ROOT
HETATM    1  C2  UNL     1      27.820   0.417  53.500  1.00  0.00     0.070 A 
HETATM    2  C3  UNL     1      27.065   0.811  52.416  1.00  0.00     0.038 A 
HETATM    3  C4  UNL     1      25.681   0.613  52.334  1.00  0.00     0.020 A 
HETATM    4  C5  UNL     1      25.021  -0.015  53.394  1.00  0.00     0.039 A 
HETATM    5  C6  UNL     1      23.666  -0.176  53.217  1.00  0.00     0.143 A 
HETATM    6  N2  UNL     1      23.014  -0.798  54.241  1.00  0.00    -0.223 NA
HETATM    7  C14 UNL     1      23.747  -1.193  55.319  1.00  0.00     0.236 A 
HETATM    8  N3  UNL     1      25.073  -1.015  55.453  1.00  0.00    -0.241 NA
HETATM    9  C15 UNL     1      25.783  -0.403  54.471  1.00  0.00     0.074 A 
HETATM   10  C16 UNL     1      27.131  -0.204  54.538  1.00  0.00     0.069 A 
ENDROOT
BRANCH   5  11
HETATM   11  N1  UNL     1      22.962   0.280  52.072  1.00  0.00    -0.320 N 
HETATM   12  H6  UNL     1      22.989  -0.296  51.207  1.00  0.00     0.169 HD
BRANCH  11  13
HETATM   13  C7  UNL     1      22.303   1.498  52.276  1.00  0.00     0.153 C 
HETATM   14  C10 UNL     1      20.971   1.588  52.036  1.00  0.00     0.035 A 
HETATM   15  C11 UNL     1      20.352   0.318  51.561  1.00  0.00     0.076 A 
HETATM   16  C13 UNL     1      19.626   2.200  51.939  1.00  0.00     0.123 A 
HETATM   17  C12 UNL     1      19.063   1.057  51.508  1.00  0.00     0.021 A 
HETATM   18  F1  UNL     1      19.699   3.497  52.314  1.00  0.00    -0.206 F 
BRANCH  13  19
HETATM   19  O2  UNL     1      22.818   2.695  52.713  1.00  0.00    -0.334 OA
BRANCH  19  20
HETATM   20  C8  UNL     1      22.998   3.865  51.981  1.00  0.00     0.192 C 
BRANCH  20  21
HETATM   21  C9  UNL     1      24.291   3.841  51.180  1.00  0.00     0.141 C 
HETATM   22 CL1  UNL     1      24.039   3.028  49.616  1.00  0.00    -0.128 Cl
ENDBRANCH  20  21
ENDBRANCH  19  20
ENDBRANCH  13  19
ENDBRANCH  11  13
ENDBRANCH   5  11
BRANCH   1  23
HETATM   23  O1  UNL     1      29.191   0.648  53.503  1.00  0.00    -0.356 OA
HETATM   24  C1  UNL     1      30.125  -0.414  53.571  1.00  0.00     0.210 C 
ENDBRANCH   1  23
TORSDOF 6
ENDMDL
MODEL 8
REMARK VINA RESULT:      -6.8      3.423      6.655
REMARK  6 active torsions:
REMARK  status: ('A' for Active; 'I' for Inactive)
REMARK    1  A    between atoms: O1_2  and  C2_3 
REMARK    2  A    between atoms: C6_7  and  N1_8 
REMARK    3  A    between atoms: N1_8  and  C7_9 
REMARK    4  A    between atoms: C7_9  and  O2_10 
REMARK    5  A    between atoms: O2_10  and  C8_11 
REMARK    6  A    between atoms: C8_11  and  C9_12 
ROOT
HETATM    1  C2  UNL     1      26.679   5.694  48.889  1.00  0.00     0.070 A 
HETATM    2  C3  UNL     1      27.022   4.362  48.989  1.00  0.00     0.038 A 
HETATM    3  C4  UNL     1      26.355   3.460  49.826  1.00  0.00     0.020 A 
HETATM    4  C5  UNL     1      25.289   3.918  50.606  1.00  0.00     0.039 A 
HETATM    5  C6  UNL     1      24.705   2.963  51.405  1.00  0.00     0.143 A 
HETATM    6  N2  UNL     1      23.671   3.402  52.179  1.00  0.00    -0.223 NA
HETATM    7  C14 UNL     1      23.320   4.716  52.091  1.00  0.00     0.236 A 
HETATM    8  N3  UNL     1      23.919   5.619  51.294  1.00  0.00    -0.241 NA
HETATM    9  C15 UNL     1      24.954   5.248  50.498  1.00  0.00     0.074 A 
HETATM   10  C16 UNL     1      25.613   6.116  49.678  1.00  0.00     0.069 A 
ENDROOT
BRANCH   5  11
HETATM   11  N1  UNL     1      25.111   1.603  51.431  1.00  0.00    -0.320 N 
HETATM   12  H6  UNL     1      25.458   1.169  50.553  1.00  0.00     0.169 HD
BRANCH  11  13
HETATM   13  C7  UNL     1      24.978   1.010  52.692  1.00  0.00     0.153 C 
HETATM   14  C10 UNL     1      26.077   0.837  53.469  1.00  0.00     0.035 A 
HETATM   15  C11 UNL     1      27.343   1.322  52.850  1.00  0.00     0.076 A 
HETATM   16  C13 UNL     1      26.885   0.438  54.645  1.00  0.00     0.123 A 
HETATM   17  C12 UNL     1      28.030   0.873  54.089  1.00  0.00     0.021 A 
HETATM   18  F1  UNL     1      26.074  -0.113  55.577  1.00  0.00    -0.206 F 
BRANCH  13  19
HETATM   19  O2  UNL     1      23.843   0.548  53.313  1.00  0.00    -0.334 OA
BRANCH  19  20
HETATM   20  C8  UNL     1      23.385  -0.765  53.387  1.00  0.00     0.192 C 
BRANCH  20  21
HETATM   21  C9  UNL     1      22.718  -1.060  54.722  1.00  0.00     0.141 C 
HETATM   22 CL1  UNL     1      21.035  -1.583  54.474  1.00  0.00    -0.128 Cl
ENDBRANCH  20  21
ENDBRANCH  19  20
ENDBRANCH  13  19
ENDBRANCH  11  13
ENDBRANCH   5  11
BRANCH   1  23
HETATM   23  O1  UNL     1      27.394   6.526  48.034  1.00  0.00    -0.356 OA
HETATM   24  C1  UNL     1      28.267   7.525  48.527  1.00  0.00     0.210 C 
ENDBRANCH   1  23
TORSDOF 6
ENDMDL
MODEL 9
REMARK VINA RESULT:      -6.8      3.331      5.138
REMARK  6 active torsions:
REMARK  status: ('A' for Active; 'I' for Inactive)
REMARK    1  A    between atoms: O1_2  and  C2_3 
REMARK    2  A    between atoms: C6_7  and  N1_8 
REMARK    3  A    between atoms: N1_8  and  C7_9 
REMARK    4  A    between atoms: C7_9  and  O2_10 
REMARK    5  A    between atoms: O2_10  and  C8_11 
REMARK    6  A    between atoms: C8_11  and  C9_12 
ROOT
HETATM    1  C2  UNL     1      21.539   0.182  52.678  1.00  0.00     0.070 A 
HETATM    2  C3  UNL     1      22.406   1.178  53.074  1.00  0.00     0.038 A 
HETATM    3  C4  UNL     1      22.979   2.094  52.184  1.00  0.00     0.020 A 
HETATM    4  C5  UNL     1      22.666   2.005  50.824  1.00  0.00     0.039 A 
HETATM    5  C6  UNL     1      23.286   2.938  50.026  1.00  0.00     0.143 A 
HETATM    6  N2  UNL     1      22.997   2.853  48.695  1.00  0.00    -0.223 NA
HETATM    7  C14 UNL     1      22.141   1.874  48.289  1.00  0.00     0.236 A 
HETATM    8  N3  UNL     1      21.555   0.979  49.104  1.00  0.00    -0.241 NA
HETATM    9  C15 UNL     1      21.800   1.008  50.439  1.00  0.00     0.074 A 
HETATM   10  C16 UNL     1      21.249   0.123  51.318  1.00  0.00     0.069 A 
ENDROOT
BRANCH   5  11
HETATM   11  N1  UNL     1      24.154   3.947  50.522  1.00  0.00    -0.320 N 
HETATM   12  H6  UNL     1      23.753   4.707  51.106  1.00  0.00     0.169 HD
BRANCH  11  13
HETATM   13  C7  UNL     1      25.487   3.769  50.135  1.00  0.00     0.153 C 
HETATM   14  C10 UNL     1      26.102   4.723  49.393  1.00  0.00     0.035 A 
HETATM   15  C11 UNL     1      25.237   5.893  49.068  1.00  0.00     0.076 A 
HETATM   16  C13 UNL     1      27.182   5.398  48.636  1.00  0.00     0.123 A 
HETATM   17  C12 UNL     1      26.405   6.454  48.338  1.00  0.00     0.021 A 
HETATM   18  F1  UNL     1      28.292   4.625  48.658  1.00  0.00    -0.206 F 
BRANCH  13  19
HETATM   19  O2  UNL     1      26.330   2.719  50.406  1.00  0.00    -0.334 OA
BRANCH  19  20
HETATM   20  C8  UNL     1      27.083   2.503  51.557  1.00  0.00     0.192 C 
BRANCH  20  21
HETATM   21  C9  UNL     1      26.409   1.520  52.502  1.00  0.00     0.141 C 
HETATM   22 CL1  UNL     1      26.601  -0.146  51.907  1.00  0.00    -0.128 Cl
ENDBRANCH  20  21
ENDBRANCH  19  20
ENDBRANCH  13  19
ENDBRANCH  11  13
ENDBRANCH   5  11
BRANCH   1  23
HETATM   23  O1  UNL     1      21.015  -0.690  53.626  1.00  0.00    -0.356 OA
HETATM   24  C1  UNL     1      21.850  -1.478  54.454  1.00  0.00     0.210 C 
ENDBRANCH   1  23
TORSDOF 6
ENDMDL
