MODEL 1
REMARK VINA RESULT:      -9.2      0.000      0.000
REMARK  3 active torsions:
REMARK  status: ('A' for Active; 'I' for Inactive)
REMARK    1  A    between atoms: C1_2  and  O2_3 
REMARK    2  A    between atoms: C1_2  and  C2_4 
REMARK    3  A    between atoms: N4_17  and  C12_18 
ROOT
HETATM    1  C2  UNL     1      18.646  -0.586  52.809  1.00  0.00     0.038 A 
HETATM    2  C3  UNL     1      18.369   0.140  51.668  1.00  0.00     0.021 A 
HETATM    3  C4  UNL     1      19.346   0.970  51.136  1.00  0.00     0.041 A 
HETATM    4  C5  UNL     1      20.592   1.101  51.701  1.00  0.00     0.107 A 
HETATM    5  C6  UNL     1      20.865   0.373  52.841  1.00  0.00     0.007 A 
HETATM    6  C7  UNL     1      19.893  -0.469  53.394  1.00  0.00     0.030 A 
HETATM    7  C8  UNL     1      22.091   0.296  53.674  1.00  0.00     0.316 C 
HETATM    8  N1  UNL     1      23.233   0.315  52.800  1.00  0.00     0.132 N 
HETATM    9  C9  UNL     1      23.510   1.657  52.401  1.00  0.00     0.457 C 
HETATM   10  N2  UNL     1      22.815   1.996  51.145  1.00  0.00    -0.194 N 
HETATM   11  C10 UNL     1      23.447   2.371  49.900  1.00  0.00     0.234 C 
HETATM   12  N3  UNL     1      24.587   2.997  50.075  1.00  0.00    -0.263 NA
HETATM   13  C11 UNL     1      25.005   3.200  51.454  1.00  0.00     0.278 C 
HETATM   14  N4  UNL     1      24.895   1.971  52.213  1.00  0.00    -0.315 N 
HETATM   15  O3  UNL     1      21.430   1.993  51.002  1.00  0.00    -0.231 OA
HETATM   16  H7  UNL     1      23.113  -0.254  51.949  1.00  0.00     0.321 HD
ENDROOT
BRANCH  14  17
HETATM   17  C12 UNL     1      26.040   1.255  52.647  1.00  0.00     0.036 A 
HETATM   18  C13 UNL     1      27.043   1.907  53.325  1.00  0.00     0.032 A 
HETATM   19  C14 UNL     1      28.170   1.251  53.776  1.00  0.00     0.046 A 
HETATM   20  C15 UNL     1      28.352  -0.103  53.568  1.00  0.00     0.138 A 
HETATM   21  F1  UNL     1      29.445  -0.773  53.997  1.00  0.00    -0.204 F 
HETATM   22  C16 UNL     1      27.356  -0.786  52.886  1.00  0.00     0.074 A 
HETATM   23 CL1  UNL     1      27.548  -2.503  52.603  1.00  0.00    -0.081 Cl
HETATM   24  C17 UNL     1      26.247  -0.092  52.454  1.00  0.00     0.056 A 
ENDBRANCH  14  17
BRANCH   1  25
HETATM   25  C1  UNL     1      17.624  -1.450  53.360  1.00  0.00     0.176 C 
HETATM   26  O1  UNL     1      17.957  -2.617  53.689  1.00  0.00    -0.646 OA
BRANCH  25  27
HETATM   27  O2  UNL     1      16.315  -1.036  53.530  1.00  0.00    -0.773 OA
HETATM   28  H1  UNL     1      16.086  -0.115  53.853  1.00  0.00     0.167 HD
ENDBRANCH  25  27
ENDBRANCH   1  25
TORSDOF 3
ENDMDL
MODEL 2
REMARK VINA RESULT:      -9.1      3.461      4.701
REMARK  3 active torsions:
REMARK  status: ('A' for Active; 'I' for Inactive)
REMARK    1  A    between atoms: C1_2  and  O2_3 
REMARK    2  A    between atoms: C1_2  and  C2_4 
REMARK    3  A    between atoms: N4_17  and  C12_18 
ROOT
HETATM    1  C2  UNL     1      19.867  -0.617  53.052  1.00  0.00     0.038 A 
HETATM    2  C3  UNL     1      20.580  -1.105  54.129  1.00  0.00     0.021 A 
HETATM    3  C4  UNL     1      21.942  -0.856  54.212  1.00  0.00     0.041 A 
HETATM    4  C5  UNL     1      22.622  -0.135  53.258  1.00  0.00     0.107 A 
HETATM    5  C6  UNL     1      21.905   0.351  52.184  1.00  0.00     0.007 A 
HETATM    6  C7  UNL     1      20.531   0.111  52.081  1.00  0.00     0.030 A 
HETATM    7  C8  UNL     1      22.338   1.150  51.010  1.00  0.00     0.316 C 
HETATM    8  N1  UNL     1      23.305   2.118  51.454  1.00  0.00     0.132 N 
HETATM    9  C9  UNL     1      24.583   1.495  51.582  1.00  0.00     0.457 C 
HETATM   10  N2  UNL     1      24.792   0.980  52.949  1.00  0.00    -0.194 N 
HETATM   11  C10 UNL     1      25.826   1.404  53.865  1.00  0.00     0.234 C 
HETATM   12  N3  UNL     1      26.923   1.786  53.257  1.00  0.00    -0.263 NA
HETATM   13  C11 UNL     1      26.910   1.718  51.803  1.00  0.00     0.278 C 
HETATM   14  N4  UNL     1      25.707   2.325  51.269  1.00  0.00    -0.315 N 
HETATM   15  O3  UNL     1      23.996   0.000  53.536  1.00  0.00    -0.231 OA
HETATM   16  H7  UNL     1      23.070   2.555  52.357  1.00  0.00     0.321 HD
ENDROOT
BRANCH  14  17
HETATM   17  C12 UNL     1      25.740   3.559  50.570  1.00  0.00     0.036 A 
HETATM   18  C13 UNL     1      26.679   3.769  49.587  1.00  0.00     0.032 A 
HETATM   19  C14 UNL     1      26.743   4.947  48.873  1.00  0.00     0.046 A 
HETATM   20  C15 UNL     1      25.862   5.985  49.109  1.00  0.00     0.138 A 
HETATM   21  F1  UNL     1      25.901   7.152  48.426  1.00  0.00    -0.204 F 
HETATM   22  C16 UNL     1      24.905   5.801  50.095  1.00  0.00     0.074 A 
HETATM   23 CL1  UNL     1      23.769   7.093  50.424  1.00  0.00    -0.081 Cl
HETATM   24  C17 UNL     1      24.877   4.608  50.783  1.00  0.00     0.056 A 
ENDBRANCH  14  17
BRANCH   1  25
HETATM   25  C1  UNL     1      18.447  -0.879  52.969  1.00  0.00     0.176 C 
HETATM   26  O1  UNL     1      17.888  -0.744  51.851  1.00  0.00    -0.646 OA
BRANCH  25  27
HETATM   27  O2  UNL     1      17.699  -1.267  54.067  1.00  0.00    -0.773 OA
HETATM   28  H1  UNL     1      17.245  -0.600  54.663  1.00  0.00     0.167 HD
ENDBRANCH  25  27
ENDBRANCH   1  25
TORSDOF 3
ENDMDL
MODEL 3
REMARK VINA RESULT:      -9.0      4.244      7.602
REMARK  3 active torsions:
REMARK  status: ('A' for Active; 'I' for Inactive)
REMARK    1  A    between atoms: C1_2  and  O2_3 
REMARK    2  A    between atoms: C1_2  and  C2_4 
REMARK    3  A    between atoms: N4_17  and  C12_18 
ROOT
HETATM    1  C2  UNL     1      26.456   7.340  47.895  1.00  0.00     0.038 A 
HETATM    2  C3  UNL     1      25.177   7.695  48.274  1.00  0.00     0.021 A 
HETATM    3  C4  UNL     1      24.425   6.814  49.038  1.00  0.00     0.041 A 
HETATM    4  C5  UNL     1      24.903   5.589  49.439  1.00  0.00     0.107 A 
HETATM    5  C6  UNL     1      26.182   5.239  49.059  1.00  0.00     0.007 A 
HETATM    6  C7  UNL     1      26.957   6.112  48.288  1.00  0.00     0.030 A 
HETATM    7  C8  UNL     1      26.972   4.011  49.326  1.00  0.00     0.316 C 
HETATM    8  N1  UNL     1      26.713   3.593  50.677  1.00  0.00     0.132 N 
HETATM    9  C9  UNL     1      25.475   2.885  50.731  1.00  0.00     0.457 C 
HETATM   10  N2  UNL     1      24.352   3.794  51.028  1.00  0.00    -0.194 N 
HETATM   11  C10 UNL     1      23.491   3.729  52.187  1.00  0.00     0.234 C 
HETATM   12  N3  UNL     1      23.332   2.507  52.637  1.00  0.00    -0.263 NA
HETATM   13  C11 UNL     1      24.030   1.457  51.910  1.00  0.00     0.278 C 
HETATM   14  N4  UNL     1      25.416   1.819  51.686  1.00  0.00    -0.315 N 
HETATM   15  O3  UNL     1      23.977   4.854  50.206  1.00  0.00    -0.231 OA
HETATM   16  H7  UNL     1      26.667   4.371  51.351  1.00  0.00     0.321 HD
ENDROOT
BRANCH  14  17
HETATM   17  C12 UNL     1      26.477   1.167  52.365  1.00  0.00     0.036 A 
HETATM   18  C13 UNL     1      26.616  -0.199  52.277  1.00  0.00     0.032 A 
HETATM   19  C14 UNL     1      27.637  -0.875  52.910  1.00  0.00     0.046 A 
HETATM   20  C15 UNL     1      28.582  -0.213  53.671  1.00  0.00     0.138 A 
HETATM   21  F1  UNL     1      29.594  -0.848  54.304  1.00  0.00    -0.204 F 
HETATM   22  C16 UNL     1      28.466   1.165  53.778  1.00  0.00     0.074 A 
HETATM   23 CL1  UNL     1      29.644   2.042  54.733  1.00  0.00    -0.081 Cl
HETATM   24  C17 UNL     1      27.431   1.800  53.129  1.00  0.00     0.056 A 
ENDBRANCH  14  17
BRANCH   1  25
HETATM   25  C1  UNL     1      27.237   8.261  47.098  1.00  0.00     0.176 C 
HETATM   26  O1  UNL     1      28.362   7.878  46.691  1.00  0.00    -0.646 OA
BRANCH  25  27
HETATM   27  O2  UNL     1      26.788   9.531  46.780  1.00  0.00    -0.773 OA
HETATM   28  H1  UNL     1      27.367  10.195  46.300  1.00  0.00     0.167 HD
ENDBRANCH  25  27
ENDBRANCH   1  25
TORSDOF 3
ENDMDL
MODEL 4
REMARK VINA RESULT:      -8.9      4.685      7.389
REMARK  3 active torsions:
REMARK  status: ('A' for Active; 'I' for Inactive)
REMARK    1  A    between atoms: C1_2  and  O2_3 
REMARK    2  A    between atoms: C1_2  and  C2_4 
REMARK    3  A    between atoms: N4_17  and  C12_18 
ROOT
HETATM    1  C2  UNL     1      27.806  -1.093  53.030  1.00  0.00     0.038 A 
HETATM    2  C3  UNL     1      26.551  -1.669  53.044  1.00  0.00     0.021 A 
HETATM    3  C4  UNL     1      25.448  -0.906  52.690  1.00  0.00     0.041 A 
HETATM    4  C5  UNL     1      25.550   0.414  52.320  1.00  0.00     0.107 A 
HETATM    5  C6  UNL     1      26.806   0.986  52.306  1.00  0.00     0.007 A 
HETATM    6  C7  UNL     1      27.932   0.234  52.661  1.00  0.00     0.030 A 
HETATM    7  C8  UNL     1      27.243   2.362  51.961  1.00  0.00     0.316 C 
HETATM    8  N1  UNL     1      26.470   2.811  50.835  1.00  0.00     0.132 N 
HETATM    9  C9  UNL     1      25.190   3.260  51.281  1.00  0.00     0.457 C 
HETATM   10  N2  UNL     1      24.199   2.168  51.248  1.00  0.00    -0.194 N 
HETATM   11  C10 UNL     1      22.994   2.139  50.452  1.00  0.00     0.234 C 
HETATM   12  N3  UNL     1      22.491   3.333  50.243  1.00  0.00    -0.263 NA
HETATM   13  C11 UNL     1      23.214   4.449  50.835  1.00  0.00     0.278 C 
HETATM   14  N4  UNL     1      24.631   4.356  50.546  1.00  0.00    -0.315 N 
HETATM   15  O3  UNL     1      24.310   1.001  52.000  1.00  0.00    -0.231 OA
HETATM   16  H7  UNL     1      26.323   2.087  50.116  1.00  0.00     0.321 HD
ENDROOT
BRANCH  14  17
HETATM   17  C12 UNL     1      25.271   5.251  49.651  1.00  0.00     0.036 A 
HETATM   18  C13 UNL     1      24.559   6.280  49.079  1.00  0.00     0.032 A 
HETATM   19  C14 UNL     1      25.141   7.181  48.212  1.00  0.00     0.046 A 
HETATM   20  C15 UNL     1      26.477   7.098  47.870  1.00  0.00     0.138 A 
HETATM   21  F1  UNL     1      27.075   7.967  47.023  1.00  0.00    -0.204 F 
HETATM   22  C16 UNL     1      27.220   6.071  48.432  1.00  0.00     0.074 A 
HETATM   23 CL1  UNL     1      28.917   5.932  48.025  1.00  0.00    -0.081 Cl
HETATM   24  C17 UNL     1      26.599   5.193  49.294  1.00  0.00     0.056 A 
ENDBRANCH  14  17
BRANCH   1  25
HETATM   25  C1  UNL     1      28.954  -1.893  53.400  1.00  0.00     0.176 C 
HETATM   26  O1  UNL     1      30.022  -1.292  53.681  1.00  0.00    -0.646 OA
BRANCH  25  27
HETATM   27  O2  UNL     1      28.909  -3.275  53.451  1.00  0.00    -0.773 OA
HETATM   28  H1  UNL     1      28.487  -3.820  52.723  1.00  0.00     0.167 HD
ENDBRANCH  25  27
ENDBRANCH   1  25
TORSDOF 3
ENDMDL
MODEL 5
REMARK VINA RESULT:      -8.8      4.047      7.686
REMARK  3 active torsions:
REMARK  status: ('A' for Active; 'I' for Inactive)
REMARK    1  A    between atoms: C1_2  and  O2_3 
REMARK    2  A    between atoms: C1_2  and  C2_4 
REMARK    3  A    between atoms: N4_17  and  C12_18 
ROOT
HETATM    1  C2  UNL     1      27.491   5.710  48.581  1.00  0.00     0.038 A 
HETATM    2  C3  UNL     1      26.529   6.667  48.327  1.00  0.00     0.021 A 
HETATM    3  C4  UNL     1      25.199   6.385  48.605  1.00  0.00     0.041 A 
HETATM    4  C5  UNL     1      24.792   5.181  49.129  1.00  0.00     0.107 A 
HETATM    5  C6  UNL     1      25.758   4.228  49.382  1.00  0.00     0.007 A 
HETATM    6  C7  UNL     1      27.104   4.492  49.109  1.00  0.00     0.030 A 
HETATM    7  C8  UNL     1      25.644   2.855  49.935  1.00  0.00     0.316 C 
HETATM    8  N1  UNL     1      24.660   2.870  50.984  1.00  0.00     0.132 N 
HETATM    9  C9  UNL     1      23.352   2.818  50.414  1.00  0.00     0.457 C 
HETATM   10  N2  UNL     1      22.814   4.172  50.186  1.00  0.00    -0.194 N 
HETATM   11  C10 UNL     1      21.628   4.728  50.798  1.00  0.00     0.234 C 
HETATM   12  N3  UNL     1      20.718   3.821  51.064  1.00  0.00    -0.263 NA
HETATM   13  C11 UNL     1      21.051   2.450  50.706  1.00  0.00     0.278 C 
HETATM   14  N4  UNL     1      22.376   2.101  51.179  1.00  0.00    -0.315 N 
HETATM   15  O3  UNL     1      23.401   5.104  49.334  1.00  0.00    -0.231 OA
HETATM   16  H7  UNL     1      24.713   3.702  51.590  1.00  0.00     0.321 HD
ENDROOT
BRANCH  14  17
HETATM   17  C12 UNL     1      22.571   1.190  52.248  1.00  0.00     0.036 A 
HETATM   18  C13 UNL     1      21.497   0.760  52.992  1.00  0.00     0.032 A 
HETATM   19  C14 UNL     1      21.635  -0.134  54.033  1.00  0.00     0.046 A 
HETATM   20  C15 UNL     1      22.868  -0.647  54.388  1.00  0.00     0.138 A 
HETATM   21  F1  UNL     1      23.036  -1.524  55.403  1.00  0.00    -0.204 F 
HETATM   22  C16 UNL     1      23.970  -0.230  53.655  1.00  0.00     0.074 A 
HETATM   23 CL1  UNL     1      25.551  -0.858  54.073  1.00  0.00    -0.081 Cl
HETATM   24  C17 UNL     1      23.786   0.663  52.623  1.00  0.00     0.056 A 
ENDBRANCH  14  17
BRANCH   1  25
HETATM   25  C1  UNL     1      28.877   6.009  48.291  1.00  0.00     0.176 C 
HETATM   26  O1  UNL     1      29.130   6.672  47.254  1.00  0.00    -0.646 OA
BRANCH  25  27
HETATM   27  O2  UNL     1      29.913   5.589  49.107  1.00  0.00    -0.773 OA
HETATM   28  H1  UNL     1      30.032   4.627  49.363  1.00  0.00     0.167 HD
ENDBRANCH  25  27
ENDBRANCH   1  25
TORSDOF 3
ENDMDL
MODEL 6
REMARK VINA RESULT:      -8.6      4.469      7.483
REMARK  3 active torsions:
REMARK  status: ('A' for Active; 'I' for Inactive)
REMARK    1  A    between atoms: C1_2  and  O2_3 
REMARK    2  A    between atoms: C1_2  and  C2_4 
REMARK    3  A    between atoms: N4_17  and  C12_18 
ROOT
HETATM    1  C2  UNL     1      25.454   5.796  48.889  1.00  0.00     0.038 A 
HETATM    2  C3  UNL     1      26.714   5.257  48.721  1.00  0.00     0.021 A 
HETATM    3  C4  UNL     1      27.091   4.160  49.483  1.00  0.00     0.041 A 
HETATM    4  C5  UNL     1      26.256   3.579  50.407  1.00  0.00     0.107 A 
HETATM    5  C6  UNL     1      24.998   4.120  50.571  1.00  0.00     0.007 A 
HETATM    6  C7  UNL     1      24.597   5.226  49.813  1.00  0.00     0.030 A 
HETATM    7  C8  UNL     1      23.883   3.730  51.470  1.00  0.00     0.316 C 
HETATM    8  N1  UNL     1      23.827   2.295  51.524  1.00  0.00     0.132 N 
HETATM    9  C9  UNL     1      24.815   1.811  52.434  1.00  0.00     0.457 C 
HETATM   10  N2  UNL     1      26.084   1.519  51.740  1.00  0.00    -0.194 N 
HETATM   11  C10 UNL     1      26.723   0.226  51.649  1.00  0.00     0.234 C 
HETATM   12  N3  UNL     1      26.489  -0.534  52.693  1.00  0.00    -0.263 NA
HETATM   13  C11 UNL     1      25.651   0.042  53.734  1.00  0.00     0.278 C 
HETATM   14  N4  UNL     1      24.455   0.633  53.165  1.00  0.00    -0.315 N 
HETATM   15  O3  UNL     1      26.837   2.479  51.069  1.00  0.00    -0.231 OA
HETATM   16  H7  UNL     1      23.980   1.839  50.613  1.00  0.00     0.321 HD
ENDROOT
BRANCH  14  17
HETATM   17  C12 UNL     1      23.175   0.052  53.350  1.00  0.00     0.036 A 
HETATM   18  C13 UNL     1      22.961  -0.830  54.384  1.00  0.00     0.032 A 
HETATM   19  C14 UNL     1      21.731  -1.412  54.610  1.00  0.00     0.046 A 
HETATM   20  C15 UNL     1      20.642  -1.137  53.805  1.00  0.00     0.138 A 
HETATM   21  F1  UNL     1      19.424  -1.692  54.002  1.00  0.00    -0.204 F 
HETATM   22  C16 UNL     1      20.828  -0.251  52.755  1.00  0.00     0.074 A 
HETATM   23 CL1  UNL     1      19.472   0.124  51.713  1.00  0.00    -0.081 Cl
HETATM   24  C17 UNL     1      22.073   0.307  52.566  1.00  0.00     0.056 A 
ENDBRANCH  14  17
BRANCH   1  25
HETATM   25  C1  UNL     1      25.065   6.939  48.092  1.00  0.00     0.176 C 
HETATM   26  O1  UNL     1      23.873   7.331  48.171  1.00  0.00    -0.646 OA
BRANCH  25  27
HETATM   27  O2  UNL     1      25.951   7.600  47.260  1.00  0.00    -0.773 OA
HETATM   28  H1  UNL     1      26.724   7.131  46.826  1.00  0.00     0.167 HD
ENDBRANCH  25  27
ENDBRANCH   1  25
TORSDOF 3
ENDMDL
MODEL 7
REMARK VINA RESULT:      -8.6      4.522      8.038
REMARK  3 active torsions:
REMARK  status: ('A' for Active; 'I' for Inactive)
REMARK    1  A    between atoms: C1_2  and  O2_3 
REMARK    2  A    between atoms: C1_2  and  C2_4 
REMARK    3  A    between atoms: N4_17  and  C12_18 
ROOT
HETATM    1  C2  UNL     1      27.357   7.616  47.620  1.00  0.00     0.038 A 
HETATM    2  C3  UNL     1      26.049   8.051  47.539  1.00  0.00     0.021 A 
HETATM    3  C4  UNL     1      25.034   7.251  48.045  1.00  0.00     0.041 A 
HETATM    4  C5  UNL     1      25.276   6.032  48.631  1.00  0.00     0.107 A 
HETATM    5  C6  UNL     1      26.585   5.602  48.711  1.00  0.00     0.007 A 
HETATM    6  C7  UNL     1      27.623   6.392  48.206  1.00  0.00     0.030 A 
HETATM    7  C8  UNL     1      27.165   4.357  49.275  1.00  0.00     0.316 C 
HETATM    8  N1  UNL     1      26.450   4.031  50.479  1.00  0.00     0.132 N 
HETATM    9  C9  UNL     1      25.222   3.385  50.148  1.00  0.00     0.457 C 
HETATM   10  N2  UNL     1      24.122   4.360  50.019  1.00  0.00    -0.194 N 
HETATM   11  C10 UNL     1      22.926   4.402  50.828  1.00  0.00     0.234 C 
HETATM   12  N3  UNL     1      22.552   3.217  51.249  1.00  0.00    -0.263 NA
HETATM   13  C11 UNL     1      23.383   2.096  50.838  1.00  0.00     0.278 C 
HETATM   14  N4  UNL     1      24.785   2.380  51.071  1.00  0.00    -0.315 N 
HETATM   15  O3  UNL     1      24.106   5.385  49.077  1.00  0.00    -0.231 OA
HETATM   16  H7  UNL     1      26.234   4.849  51.068  1.00  0.00     0.321 HD
ENDROOT
BRANCH  14  17
HETATM   17  C12 UNL     1      25.521   1.722  52.090  1.00  0.00     0.036 A 
HETATM   18  C13 UNL     1      25.669   2.311  53.324  1.00  0.00     0.032 A 
HETATM   19  C14 UNL     1      26.366   1.704  54.348  1.00  0.00     0.046 A 
HETATM   20  C15 UNL     1      26.957   0.466  54.187  1.00  0.00     0.138 A 
HETATM   21  F1  UNL     1      27.647  -0.154  55.172  1.00  0.00    -0.204 F 
HETATM   22  C16 UNL     1      26.825  -0.152  52.952  1.00  0.00     0.074 A 
HETATM   23 CL1  UNL     1      27.559  -1.723  52.708  1.00  0.00    -0.081 Cl
HETATM   24  C17 UNL     1      26.120   0.490  51.958  1.00  0.00     0.056 A 
ENDBRANCH  14  17
BRANCH   1  25
HETATM   25  C1  UNL     1      28.412   8.453  47.091  1.00  0.00     0.176 C 
HETATM   26  O1  UNL     1      28.237   8.975  45.961  1.00  0.00    -0.646 OA
BRANCH  25  27
HETATM   27  O2  UNL     1      29.588   8.688  47.781  1.00  0.00    -0.773 OA
HETATM   28  H1  UNL     1      30.436   8.951  47.314  1.00  0.00     0.167 HD
ENDBRANCH  25  27
ENDBRANCH   1  25
TORSDOF 3
ENDMDL
MODEL 8
REMARK VINA RESULT:      -8.5      4.734      7.466
REMARK  3 active torsions:
REMARK  status: ('A' for Active; 'I' for Inactive)
REMARK    1  A    between atoms: C1_2  and  O2_3 
REMARK    2  A    between atoms: C1_2  and  C2_4 
REMARK    3  A    between atoms: N4_17  and  C12_18 
ROOT
HETATM    1  C2  UNL     1      26.713  -0.666  52.944  1.00  0.00     0.038 A 
HETATM    2  C3  UNL     1      25.630  -1.019  53.723  1.00  0.00     0.021 A 
HETATM    3  C4  UNL     1      24.515  -0.193  53.752  1.00  0.00     0.041 A 
HETATM    4  C5  UNL     1      24.441   0.975  53.031  1.00  0.00     0.107 A 
HETATM    5  C6  UNL     1      25.526   1.323  52.253  1.00  0.00     0.007 A 
HETATM    6  C7  UNL     1      26.660   0.505  52.209  1.00  0.00     0.030 A 
HETATM    7  C8  UNL     1      25.753   2.498  51.374  1.00  0.00     0.316 C 
HETATM    8  N1  UNL     1      24.523   2.795  50.690  1.00  0.00     0.132 N 
HETATM    9  C9  UNL     1      23.658   3.529  51.557  1.00  0.00     0.457 C 
HETATM   10  N2  UNL     1      22.767   2.628  52.312  1.00  0.00    -0.194 N 
HETATM   11  C10 UNL     1      21.324   2.608  52.243  1.00  0.00     0.234 C 
HETATM   12  N3  UNL     1      20.809   3.786  51.984  1.00  0.00    -0.263 NA
HETATM   13  C11 UNL     1      21.754   4.880  51.816  1.00  0.00     0.278 C 
HETATM   14  N4  UNL     1      22.825   4.502  50.915  1.00  0.00    -0.315 N 
HETATM   15  O3  UNL     1      23.222   1.661  53.204  1.00  0.00    -0.231 OA
HETATM   16  H7  UNL     1      24.017   1.958  50.365  1.00  0.00     0.321 HD
ENDROOT
BRANCH  14  17
HETATM   17  C12 UNL     1      22.938   5.057  49.615  1.00  0.00     0.036 A 
HETATM   18  C13 UNL     1      22.091   4.643  48.613  1.00  0.00     0.032 A 
HETATM   19  C14 UNL     1      22.156   5.162  47.336  1.00  0.00     0.046 A 
HETATM   20  C15 UNL     1      23.079   6.131  46.995  1.00  0.00     0.138 A 
HETATM   21  F1  UNL     1      23.167   6.658  45.752  1.00  0.00    -0.204 F 
HETATM   22  C16 UNL     1      23.946   6.567  47.986  1.00  0.00     0.074 A 
HETATM   23 CL1  UNL     1      25.132   7.795  47.592  1.00  0.00    -0.081 Cl
HETATM   24  C17 UNL     1      23.847   6.022  49.247  1.00  0.00     0.056 A 
ENDBRANCH  14  17
BRANCH   1  25
HETATM   25  C1  UNL     1      27.873  -1.530  52.915  1.00  0.00     0.176 C 
HETATM   26  O1  UNL     1      29.000  -1.007  53.108  1.00  0.00    -0.646 OA
BRANCH  25  27
HETATM   27  O2  UNL     1      27.779  -2.891  52.685  1.00  0.00    -0.773 OA
HETATM   28  H1  UNL     1      28.091  -3.567  53.357  1.00  0.00     0.167 HD
ENDBRANCH  25  27
ENDBRANCH   1  25
TORSDOF 3
ENDMDL
MODEL 9
REMARK VINA RESULT:      -8.3      7.812     11.226
REMARK  3 active torsions:
REMARK  status: ('A' for Active; 'I' for Inactive)
REMARK    1  A    between atoms: C1_2  and  O2_3 
REMARK    2  A    between atoms: C1_2  and  C2_4 
REMARK    3  A    between atoms: N4_17  and  C12_18 
ROOT
HETATM    1  C2  UNL     1      32.411   5.827  48.209  1.00  0.00     0.038 A 
HETATM    2  C3  UNL     1      32.659   7.144  48.541  1.00  0.00     0.021 A 
HETATM    3  C4  UNL     1      31.591   8.003  48.759  1.00  0.00     0.041 A 
HETATM    4  C5  UNL     1      30.282   7.596  48.659  1.00  0.00     0.107 A 
HETATM    5  C6  UNL     1      30.039   6.279  48.328  1.00  0.00     0.007 A 
HETATM    6  C7  UNL     1      31.101   5.396  48.103  1.00  0.00     0.030 A 
HETATM    7  C8  UNL     1      28.762   5.544  48.145  1.00  0.00     0.316 C 
HETATM    8  N1  UNL     1      27.835   5.993  49.147  1.00  0.00     0.132 N 
HETATM    9  C9  UNL     1      27.253   7.232  48.741  1.00  0.00     0.457 C 
HETATM   10  N2  UNL     1      28.027   8.379  49.254  1.00  0.00    -0.194 N 
HETATM   11  C10 UNL     1      27.540   9.394  50.160  1.00  0.00     0.234 C 
HETATM   12  N3  UNL     1      26.256   9.625  50.025  1.00  0.00    -0.263 NA
HETATM   13  C11 UNL     1      25.563   8.840  49.014  1.00  0.00     0.278 C 
HETATM   14  N4  UNL     1      25.892   7.434  49.139  1.00  0.00    -0.315 N 
HETATM   15  O3  UNL     1      29.356   8.626  48.920  1.00  0.00    -0.231 OA
HETATM   16  H7  UNL     1      28.260   6.128  50.076  1.00  0.00     0.321 HD
ENDROOT
BRANCH  14  17
HETATM   17  C12 UNL     1      24.946   6.484  49.603  1.00  0.00     0.036 A 
HETATM   18  C13 UNL     1      24.472   6.556  50.892  1.00  0.00     0.032 A 
HETATM   19  C14 UNL     1      23.544   5.662  51.384  1.00  0.00     0.046 A 
HETATM   20  C15 UNL     1      23.039   4.640  50.604  1.00  0.00     0.138 A 
HETATM   21  F1  UNL     1      22.130   3.748  51.058  1.00  0.00    -0.204 F 
HETATM   22  C16 UNL     1      23.500   4.542  49.299  1.00  0.00     0.074 A 
HETATM   23 CL1  UNL     1      22.884   3.260  48.277  1.00  0.00    -0.081 Cl
HETATM   24  C17 UNL     1      24.427   5.456  48.848  1.00  0.00     0.056 A 
ENDBRANCH  14  17
BRANCH   1  25
HETATM   25  C1  UNL     1      33.527   4.935  47.982  1.00  0.00     0.176 C 
HETATM   26  O1  UNL     1      34.571   5.417  47.474  1.00  0.00    -0.646 OA
BRANCH  25  27
HETATM   27  O2  UNL     1      33.477   3.589  48.302  1.00  0.00    -0.773 OA
HETATM   28  H1  UNL     1      33.974   2.898  47.771  1.00  0.00     0.167 HD
ENDBRANCH  25  27
ENDBRANCH   1  25
TORSDOF 3
ENDMDL
