MODEL 1
REMARK VINA RESULT:      -7.2      0.000      0.000
REMARK  2 active torsions:
REMARK  status: ('A' for Active; 'I' for Inactive)
REMARK    1  A    between atoms: O1_2  and  C2_3 
REMARK    2  A    between atoms: C7_8  and  O2_9 
ROOT
HETATM    1  C2  UNL     1      25.276   1.274  52.778  1.00  0.00     0.103 A 
HETATM    2  C3  UNL     1      26.132   1.821  51.868  1.00  0.00     0.051 A 
HETATM    3  C4  UNL     1      25.456   2.360  50.825  1.00  0.00    -0.003 A 
HETATM    4  C5  UNL     1      24.105   2.483  50.454  1.00  0.00     0.095 A 
HETATM    5  C6  UNL     1      23.417   1.891  51.498  1.00  0.00     0.052 A 
HETATM    6  C7  UNL     1      23.880   1.293  52.623  1.00  0.00     0.116 A 
HETATM    7  C9  UNL     1      21.990   2.326  51.419  1.00  0.00     0.029 C 
HETATM    8 BR1  UNL     1      21.542   0.607  50.836  1.00  0.00    -0.050 Br
HETATM    9  C10 UNL     1      22.112   3.633  51.835  1.00  0.00     0.050 C 
HETATM   10  P1  UNL     1      23.265   4.955  52.407  1.00  0.00     0.052 P 
HETATM   11  N1  UNL     1      24.007   6.038  51.317  1.00  0.00    -0.166 NA
HETATM   12  C11 UNL     1      23.582   5.756  49.872  1.00  0.00     0.229 A 
HETATM   13  N2  UNL     1      22.429   6.202  49.502  1.00  0.00    -0.243 NA
HETATM   14  C12 UNL     1      21.549   5.373  48.776  1.00  0.00     0.227 A 
HETATM   15  N3  UNL     1      22.422   4.233  48.771  1.00  0.00    -0.234 NA
HETATM   16  C13 UNL     1      23.522   4.584  49.407  1.00  0.00     0.253 A 
HETATM   17  C14 UNL     1      24.674   5.033  50.103  1.00  0.00     0.098 A 
HETATM   18  N4  UNL     1      25.916   4.700  50.457  1.00  0.00    -0.385 N 
HETATM   19  C15 UNL     1      26.419   3.295  50.080  1.00  0.00     0.161 C 
HETATM   20  O3  UNL     1      23.792   3.136  49.174  1.00  0.00    -0.306 OA
HETATM   21  H10 UNL     1      26.017   5.670  50.890  1.00  0.00     0.159 HD
ENDROOT
BRANCH   1  22
HETATM   22  O1  UNL     1      25.633   0.638  53.951  1.00  0.00    -0.353 OA
HETATM   23  C1  UNL     1      26.982   0.233  54.123  1.00  0.00     0.210 C 
ENDBRANCH   1  22
BRANCH   6  24
HETATM   24  O2  UNL     1      22.827   0.821  53.377  1.00  0.00    -0.352 OA
HETATM   25  C8  UNL     1      22.825  -0.517  53.843  1.00  0.00     0.210 C 
ENDBRANCH   6  24
TORSDOF 2
ENDMDL
MODEL 2
REMARK VINA RESULT:      -7.1      1.899      2.819
REMARK  2 active torsions:
REMARK  status: ('A' for Active; 'I' for Inactive)
REMARK    1  A    between atoms: O1_2  and  C2_3 
REMARK    2  A    between atoms: C7_8  and  O2_9 
ROOT
HETATM    1  C2  UNL     1      22.042   0.056  52.659  1.00  0.00     0.103 A 
HETATM    2  C3  UNL     1      23.295   0.425  53.051  1.00  0.00     0.051 A 
HETATM    3  C4  UNL     1      23.838   1.310  52.180  1.00  0.00    -0.003 A 
HETATM    4  C5  UNL     1      23.433   1.924  50.982  1.00  0.00     0.095 A 
HETATM    5  C6  UNL     1      22.154   1.438  50.773  1.00  0.00     0.052 A 
HETATM    6  C7  UNL     1      21.424   0.555  51.499  1.00  0.00     0.116 A 
HETATM    7  C9  UNL     1      21.477   2.323  49.778  1.00  0.00     0.029 C 
HETATM    8 BR1  UNL     1      21.643   0.958  48.513  1.00  0.00    -0.050 Br
HETATM    9  C10 UNL     1      21.257   3.438  50.556  1.00  0.00     0.050 C 
HETATM   10  P1  UNL     1      21.459   4.204  52.223  1.00  0.00     0.052 P 
HETATM   11  N1  UNL     1      22.828   5.138  52.626  1.00  0.00    -0.166 NA
HETATM   12  C11 UNL     1      23.805   5.237  51.448  1.00  0.00     0.229 A 
HETATM   13  N2  UNL     1      23.520   6.087  50.520  1.00  0.00    -0.243 NA
HETATM   14  C12 UNL     1      23.619   5.714  49.165  1.00  0.00     0.227 A 
HETATM   15  N3  UNL     1      24.035   4.366  49.432  1.00  0.00    -0.234 NA
HETATM   16  C13 UNL     1      24.106   4.235  50.742  1.00  0.00     0.253 A 
HETATM   17  C14 UNL     1      24.160   4.169  52.158  1.00  0.00     0.098 A 
HETATM   18  N4  UNL     1      24.510   3.397  53.188  1.00  0.00    -0.385 N 
HETATM   19  C15 UNL     1      25.028   1.980  52.880  1.00  0.00     0.161 C 
HETATM   20  O3  UNL     1      24.376   2.832  50.312  1.00  0.00    -0.306 OA
HETATM   21  H10 UNL     1      24.248   4.202  53.837  1.00  0.00     0.159 HD
ENDROOT
BRANCH   1  22
HETATM   22  O1  UNL     1      21.213  -0.833  53.313  1.00  0.00    -0.353 OA
HETATM   23  C1  UNL     1      21.663  -1.418  54.526  1.00  0.00     0.210 C 
ENDBRANCH   1  22
BRANCH   6  24
HETATM   24  O2  UNL     1      20.201   0.345  50.900  1.00  0.00    -0.352 OA
HETATM   25  C8  UNL     1      19.004   0.626  51.603  1.00  0.00     0.210 C 
ENDBRANCH   6  24
TORSDOF 2
ENDMDL
MODEL 3
REMARK VINA RESULT:      -7.1      3.102      4.704
REMARK  2 active torsions:
REMARK  status: ('A' for Active; 'I' for Inactive)
REMARK    1  A    between atoms: O1_2  and  C2_3 
REMARK    2  A    between atoms: C7_8  and  O2_9 
ROOT
HETATM    1  C2  UNL     1      24.024   0.455  52.739  1.00  0.00     0.103 A 
HETATM    2  C3  UNL     1      22.970  -0.057  53.436  1.00  0.00     0.051 A 
HETATM    3  C4  UNL     1      21.909   0.784  53.402  1.00  0.00    -0.003 A 
HETATM    4  C5  UNL     1      21.637   2.043  52.839  1.00  0.00     0.095 A 
HETATM    5  C6  UNL     1      22.806   2.371  52.174  1.00  0.00     0.052 A 
HETATM    6  C7  UNL     1      23.976   1.694  52.078  1.00  0.00     0.116 A 
HETATM    7  C9  UNL     1      22.499   3.469  51.210  1.00  0.00     0.029 C 
HETATM    8 BR1  UNL     1      23.416   4.653  52.328  1.00  0.00    -0.050 Br
HETATM    9  C10 UNL     1      21.793   2.766  50.259  1.00  0.00     0.050 C 
HETATM   10  P1  UNL     1      21.129   1.120  49.754  1.00  0.00     0.052 P 
HETATM   11  N1  UNL     1      19.561   0.608  50.189  1.00  0.00    -0.166 NA
HETATM   12  C11 UNL     1      18.833   1.674  51.015  1.00  0.00     0.229 A 
HETATM   13  N2  UNL     1      18.312   2.662  50.368  1.00  0.00    -0.243 NA
HETATM   14  C12 UNL     1      18.492   3.982  50.827  1.00  0.00     0.227 A 
HETATM   15  N3  UNL     1      19.296   3.616  51.958  1.00  0.00    -0.234 NA
HETATM   16  C13 UNL     1      19.402   2.303  51.950  1.00  0.00     0.253 A 
HETATM   17  C14 UNL     1      19.473   0.887  51.876  1.00  0.00     0.098 A 
HETATM   18  N4  UNL     1      19.896  -0.205  52.513  1.00  0.00    -0.385 N 
HETATM   19  C15 UNL     1      20.669  -0.014  53.830  1.00  0.00     0.161 C 
HETATM   20  O3  UNL     1      20.315   2.642  53.079  1.00  0.00    -0.306 OA
HETATM   21  H10 UNL     1      19.454  -0.789  51.737  1.00  0.00     0.159 HD
ENDROOT
BRANCH   1  22
HETATM   22  O1  UNL     1      25.260  -0.141  52.577  1.00  0.00    -0.353 OA
HETATM   23  C1  UNL     1      25.910  -0.681  53.717  1.00  0.00     0.210 C 
ENDBRANCH   1  22
BRANCH   6  24
HETATM   24  O2  UNL     1      24.880   2.415  51.327  1.00  0.00    -0.352 OA
HETATM   25  C8  UNL     1      26.240   2.482  51.719  1.00  0.00     0.210 C 
ENDBRANCH   6  24
TORSDOF 2
ENDMDL
MODEL 4
REMARK VINA RESULT:      -6.7      5.174      6.917
REMARK  2 active torsions:
REMARK  status: ('A' for Active; 'I' for Inactive)
REMARK    1  A    between atoms: O1_2  and  C2_3 
REMARK    2  A    between atoms: C7_8  and  O2_9 
ROOT
HETATM    1  C2  UNL     1      25.752   5.442  49.371  1.00  0.00     0.103 A 
HETATM    2  C3  UNL     1      27.042   5.121  49.069  1.00  0.00     0.051 A 
HETATM    3  C4  UNL     1      27.575   6.010  48.196  1.00  0.00    -0.003 A 
HETATM    4  C5  UNL     1      27.124   7.162  47.529  1.00  0.00     0.095 A 
HETATM    5  C6  UNL     1      25.824   7.320  47.977  1.00  0.00     0.052 A 
HETATM    6  C7  UNL     1      25.096   6.562  48.833  1.00  0.00     0.116 A 
HETATM    7  C9  UNL     1      25.393   8.717  47.668  1.00  0.00     0.029 C 
HETATM    8 BR1  UNL     1      24.293   8.035  46.320  1.00  0.00    -0.050 Br
HETATM    9  C10 UNL     1      26.127   9.410  48.605  1.00  0.00     0.050 C 
HETATM   10  P1  UNL     1      27.343   9.292  49.988  1.00  0.00     0.052 P 
HETATM   11  N1  UNL     1      29.025   9.393  49.721  1.00  0.00    -0.166 NA
HETATM   12  C11 UNL     1      29.344   9.591  48.234  1.00  0.00     0.229 A 
HETATM   13  N2  UNL     1      29.216  10.784  47.761  1.00  0.00    -0.243 NA
HETATM   14  C12 UNL     1      28.556  10.990  46.532  1.00  0.00     0.227 A 
HETATM   15  N3  UNL     1      28.259   9.603  46.312  1.00  0.00    -0.234 NA
HETATM   16  C13 UNL     1      28.760   8.933  47.330  1.00  0.00     0.253 A 
HETATM   17  C14 UNL     1      29.325   8.279  48.455  1.00  0.00     0.098 A 
HETATM   18  N4  UNL     1      29.585   7.085  48.989  1.00  0.00    -0.385 N 
HETATM   19  C15 UNL     1      29.100   5.837  48.229  1.00  0.00     0.161 C 
HETATM   20  O3  UNL     1      28.048   7.839  46.607  1.00  0.00    -0.306 OA
HETATM   21  H10 UNL     1      30.071   7.588  49.794  1.00  0.00     0.159 HD
ENDROOT
BRANCH   1  22
HETATM   22  O1  UNL     1      24.917   4.744  50.221  1.00  0.00    -0.353 OA
HETATM   23  C1  UNL     1      24.209   3.624  49.713  1.00  0.00     0.210 C 
ENDBRANCH   1  22
BRANCH   6  24
HETATM   24  O2  UNL     1      23.830   7.089  48.973  1.00  0.00    -0.352 OA
HETATM   25  C8  UNL     1      23.387   7.555  50.235  1.00  0.00     0.210 C 
ENDBRANCH   6  24
TORSDOF 2
ENDMDL
MODEL 5
REMARK VINA RESULT:      -6.6      6.506      8.546
REMARK  2 active torsions:
REMARK  status: ('A' for Active; 'I' for Inactive)
REMARK    1  A    between atoms: O1_2  and  C2_3 
REMARK    2  A    between atoms: C7_8  and  O2_9 
ROOT
HETATM    1  C2  UNL     1      26.694   6.268  48.414  1.00  0.00     0.103 A 
HETATM    2  C3  UNL     1      27.894   5.634  48.542  1.00  0.00     0.051 A 
HETATM    3  C4  UNL     1      28.863   6.275  47.845  1.00  0.00    -0.003 A 
HETATM    4  C5  UNL     1      28.928   7.416  47.025  1.00  0.00     0.095 A 
HETATM    5  C6  UNL     1      27.636   7.912  47.040  1.00  0.00     0.052 A 
HETATM    6  C7  UNL     1      26.524   7.439  47.655  1.00  0.00     0.116 A 
HETATM    7  C9  UNL     1      27.676   9.325  46.557  1.00  0.00     0.029 C 
HETATM    8 BR1  UNL     1      26.886   8.758  44.961  1.00  0.00    -0.050 Br
HETATM    9  C10 UNL     1      28.252   9.937  47.648  1.00  0.00     0.050 C 
HETATM   10  P1  UNL     1      28.940   9.708  49.344  1.00  0.00     0.052 P 
HETATM   11  N1  UNL     1      30.596   9.397  49.611  1.00  0.00    -0.166 NA
HETATM   12  C11 UNL     1      31.375   9.348  48.292  1.00  0.00     0.229 A 
HETATM   13  N2  UNL     1      31.692  10.477  47.755  1.00  0.00    -0.243 NA
HETATM   14  C12 UNL     1      31.495  10.685  46.375  1.00  0.00     0.227 A 
HETATM   15  N3  UNL     1      30.939   9.384  46.127  1.00  0.00    -0.234 NA
HETATM   16  C13 UNL     1      30.937   8.739  47.276  1.00  0.00     0.253 A 
HETATM   17  C14 UNL     1      30.966   8.108  48.547  1.00  0.00     0.098 A 
HETATM   18  N4  UNL     1      30.753   6.954  49.182  1.00  0.00    -0.385 N 
HETATM   19  C15 UNL     1      30.218   5.769  48.358  1.00  0.00     0.161 C 
HETATM   20  O3  UNL     1      30.220   7.758  46.411  1.00  0.00    -0.306 OA
HETATM   21  H10 UNL     1      31.092   7.423  50.078  1.00  0.00     0.159 HD
ENDROOT
BRANCH   1  22
HETATM   22  O1  UNL     1      25.501   5.877  48.988  1.00  0.00    -0.353 OA
HETATM   23  C1  UNL     1      25.479   4.699  49.779  1.00  0.00     0.210 C 
ENDBRANCH   1  22
BRANCH   6  24
HETATM   24  O2  UNL     1      25.446   8.249  47.373  1.00  0.00    -0.352 OA
HETATM   25  C8  UNL     1      24.777   8.935  48.416  1.00  0.00     0.210 C 
ENDBRANCH   6  24
TORSDOF 2
ENDMDL
MODEL 6
REMARK VINA RESULT:      -6.5      9.285     11.622
REMARK  2 active torsions:
REMARK  status: ('A' for Active; 'I' for Inactive)
REMARK    1  A    between atoms: O1_2  and  C2_3 
REMARK    2  A    between atoms: C7_8  and  O2_9 
ROOT
HETATM    1  C2  UNL     1      31.041   9.391  48.533  1.00  0.00     0.103 A 
HETATM    2  C3  UNL     1      30.675   8.219  49.126  1.00  0.00     0.051 A 
HETATM    3  C4  UNL     1      31.021   7.155  48.361  1.00  0.00    -0.003 A 
HETATM    4  C5  UNL     1      31.648   6.970  47.117  1.00  0.00     0.095 A 
HETATM    5  C6  UNL     1      31.949   8.255  46.699  1.00  0.00     0.052 A 
HETATM    6  C7  UNL     1      31.697   9.448  47.291  1.00  0.00     0.116 A 
HETATM    7  C9  UNL     1      32.969   8.163  45.612  1.00  0.00     0.029 C 
HETATM    8 BR1  UNL     1      31.642   8.632  44.383  1.00  0.00    -0.050 Br
HETATM    9  C10 UNL     1      34.078   7.814  46.351  1.00  0.00     0.050 C 
HETATM   10  P1  UNL     1      34.742   7.444  48.032  1.00  0.00     0.052 P 
HETATM   11  N1  UNL     1      34.775   5.858  48.659  1.00  0.00    -0.166 NA
HETATM   12  C11 UNL     1      34.204   4.848  47.657  1.00  0.00     0.229 A 
HETATM   13  N2  UNL     1      34.982   4.467  46.700  1.00  0.00    -0.243 NA
HETATM   14  C12 UNL     1      34.500   4.413  45.376  1.00  0.00     0.227 A 
HETATM   15  N3  UNL     1      33.182   4.880  45.700  1.00  0.00    -0.234 NA
HETATM   16  C13 UNL     1      33.149   5.076  47.003  1.00  0.00     0.253 A 
HETATM   17  C14 UNL     1      33.189   5.265  48.409  1.00  0.00     0.098 A 
HETATM   18  N4  UNL     1      32.448   5.561  49.477  1.00  0.00    -0.385 N 
HETATM   19  C15 UNL     1      30.964   5.905  49.249  1.00  0.00     0.161 C 
HETATM   20  O3  UNL     1      31.806   5.597  46.615  1.00  0.00    -0.306 OA
HETATM   21  H10 UNL     1      33.314   5.405  50.080  1.00  0.00     0.159 HD
ENDROOT
BRANCH   1  22
HETATM   22  O1  UNL     1      30.833  10.658  49.038  1.00  0.00    -0.353 OA
HETATM   23  C1  UNL     1      29.593  11.300  48.780  1.00  0.00     0.210 C 
ENDBRANCH   1  22
BRANCH   6  24
HETATM   24  O2  UNL     1      32.158  10.477  46.499  1.00  0.00    -0.352 OA
HETATM   25  C8  UNL     1      33.110  11.395  47.005  1.00  0.00     0.210 C 
ENDBRANCH   6  24
TORSDOF 2
ENDMDL
MODEL 7
REMARK VINA RESULT:      -6.4      3.046      4.555
REMARK  2 active torsions:
REMARK  status: ('A' for Active; 'I' for Inactive)
REMARK    1  A    between atoms: O1_2  and  C2_3 
REMARK    2  A    between atoms: C7_8  and  O2_9 
ROOT
HETATM    1  C2  UNL     1      24.225   3.719  50.174  1.00  0.00     0.103 A 
HETATM    2  C3  UNL     1      23.773   3.279  48.965  1.00  0.00     0.051 A 
HETATM    3  C4  UNL     1      22.829   2.319  49.117  1.00  0.00    -0.003 A 
HETATM    4  C5  UNL     1      22.217   1.669  50.203  1.00  0.00     0.095 A 
HETATM    5  C6  UNL     1      22.793   2.262  51.314  1.00  0.00     0.052 A 
HETATM    6  C7  UNL     1      23.745   3.223  51.398  1.00  0.00     0.116 A 
HETATM    7  C9  UNL     1      21.936   1.957  52.499  1.00  0.00     0.029 C 
HETATM    8 BR1  UNL     1      23.253   0.772  53.094  1.00  0.00    -0.050 Br
HETATM    9  C10 UNL     1      20.860   2.776  52.237  1.00  0.00     0.050 C 
HETATM   10  P1  UNL     1      20.123   4.009  51.080  1.00  0.00     0.052 P 
HETATM   11  N1  UNL     1      19.099   3.542  49.797  1.00  0.00    -0.166 NA
HETATM   12  C11 UNL     1      18.899   2.023  49.766  1.00  0.00     0.229 A 
HETATM   13  N2  UNL     1      18.050   1.526  50.600  1.00  0.00    -0.243 NA
HETATM   14  C12 UNL     1      18.381   0.377  51.347  1.00  0.00     0.227 A 
HETATM   15  N3  UNL     1      19.700   0.242  50.797  1.00  0.00    -0.234 NA
HETATM   16  C13 UNL     1      19.857   1.217  49.924  1.00  0.00     0.253 A 
HETATM   17  C14 UNL     1      19.955   2.290  49.002  1.00  0.00     0.098 A 
HETATM   18  N4  UNL     1      20.724   2.831  48.056  1.00  0.00    -0.385 N 
HETATM   19  C15 UNL     1      22.090   2.177  47.779  1.00  0.00     0.161 C 
HETATM   20  O3  UNL     1      21.225   0.621  49.919  1.00  0.00    -0.306 OA
HETATM   21  H10 UNL     1      19.957   3.555  47.893  1.00  0.00     0.159 HD
ENDROOT
BRANCH   1  22
HETATM   22  O1  UNL     1      25.190   4.685  50.379  1.00  0.00    -0.353 OA
HETATM   23  C1  UNL     1      26.142   4.927  49.355  1.00  0.00     0.210 C 
ENDBRANCH   1  22
BRANCH   6  24
HETATM   24  O2  UNL     1      24.031   3.494  52.719  1.00  0.00    -0.352 OA
HETATM   25  C8  UNL     1      23.720   4.759  53.271  1.00  0.00     0.210 C 
ENDBRANCH   6  24
TORSDOF 2
ENDMDL
MODEL 8
REMARK VINA RESULT:      -6.3      9.006     10.769
REMARK  2 active torsions:
REMARK  status: ('A' for Active; 'I' for Inactive)
REMARK    1  A    between atoms: O1_2  and  C2_3 
REMARK    2  A    between atoms: C7_8  and  O2_9 
ROOT
HETATM    1  C2  UNL     1      32.860   5.666  45.970  1.00  0.00     0.103 A 
HETATM    2  C3  UNL     1      32.538   5.311  47.247  1.00  0.00     0.051 A 
HETATM    3  C4  UNL     1      32.285   6.403  48.008  1.00  0.00    -0.003 A 
HETATM    4  C5  UNL     1      32.281   7.794  47.806  1.00  0.00     0.095 A 
HETATM    5  C6  UNL     1      32.610   7.939  46.470  1.00  0.00     0.052 A 
HETATM    6  C7  UNL     1      32.904   7.002  45.535  1.00  0.00     0.116 A 
HETATM    7  C9  UNL     1      32.234   9.321  46.046  1.00  0.00     0.029 C 
HETATM    8 BR1  UNL     1      34.050   9.758  46.003  1.00  0.00    -0.050 Br
HETATM    9  C10 UNL     1      30.862   9.199  46.013  1.00  0.00     0.050 C 
HETATM   10  P1  UNL     1      29.420   8.077  46.270  1.00  0.00     0.052 P 
HETATM   11  N1  UNL     1      28.625   7.960  47.775  1.00  0.00    -0.166 NA
HETATM   12  C11 UNL     1      29.263   8.886  48.817  1.00  0.00     0.229 A 
HETATM   13  N2  UNL     1      28.942  10.135  48.766  1.00  0.00    -0.243 NA
HETATM   14  C12 UNL     1      29.940  11.126  48.865  1.00  0.00     0.227 A 
HETATM   15  N3  UNL     1      31.030  10.199  48.982  1.00  0.00    -0.234 NA
HETATM   16  C13 UNL     1      30.514   8.987  48.949  1.00  0.00     0.253 A 
HETATM   17  C14 UNL     1      29.887   7.715  48.906  1.00  0.00     0.098 A 
HETATM   18  N4  UNL     1      30.100   6.404  49.032  1.00  0.00    -0.385 N 
HETATM   19  C15 UNL     1      31.546   5.931  49.268  1.00  0.00     0.161 C 
HETATM   20  O3  UNL     1      31.970   8.663  48.952  1.00  0.00    -0.306 OA
HETATM   21  H10 UNL     1      29.052   6.255  48.902  1.00  0.00     0.159 HD
ENDROOT
BRANCH   1  22
HETATM   22  O1  UNL     1      33.180   4.803  44.942  1.00  0.00    -0.353 OA
HETATM   23  C1  UNL     1      34.523   4.363  44.814  1.00  0.00     0.210 C 
ENDBRANCH   1  22
BRANCH   6  24
HETATM   24  O2  UNL     1      33.194   7.607  44.331  1.00  0.00    -0.352 OA
HETATM   25  C8  UNL     1      32.405   7.335  43.188  1.00  0.00     0.210 C 
ENDBRANCH   6  24
TORSDOF 2
ENDMDL
MODEL 9
REMARK VINA RESULT:      -6.3      3.699      5.688
REMARK  2 active torsions:
REMARK  status: ('A' for Active; 'I' for Inactive)
REMARK    1  A    between atoms: O1_2  and  C2_3 
REMARK    2  A    between atoms: C7_8  and  O2_9 
ROOT
HETATM    1  C2  UNL     1      22.597   5.113  48.682  1.00  0.00     0.103 A 
HETATM    2  C3  UNL     1      22.590   3.925  48.013  1.00  0.00     0.051 A 
HETATM    3  C4  UNL     1      22.497   2.881  48.872  1.00  0.00    -0.003 A 
HETATM    4  C5  UNL     1      22.416   2.727  50.267  1.00  0.00     0.095 A 
HETATM    5  C6  UNL     1      22.420   4.025  50.747  1.00  0.00     0.052 A 
HETATM    6  C7  UNL     1      22.509   5.203  50.082  1.00  0.00     0.116 A 
HETATM    7  C9  UNL     1      21.925   4.000  52.156  1.00  0.00     0.029 C 
HETATM    8 BR1  UNL     1      23.671   4.334  52.732  1.00  0.00    -0.050 Br
HETATM    9  C10 UNL     1      20.586   3.758  51.938  1.00  0.00     0.050 C 
HETATM   10  P1  UNL     1      19.269   3.474  50.677  1.00  0.00     0.052 P 
HETATM   11  N1  UNL     1      18.851   1.907  50.147  1.00  0.00    -0.166 NA
HETATM   12  C11 UNL     1      19.693   0.836  50.849  1.00  0.00     0.229 A 
HETATM   13  N2  UNL     1      19.342   0.505  52.045  1.00  0.00    -0.243 NA
HETATM   14  C12 UNL     1      20.313   0.387  53.060  1.00  0.00     0.227 A 
HETATM   15  N3  UNL     1      21.421   0.747  52.221  1.00  0.00    -0.234 NA
HETATM   16  C13 UNL     1      20.938   0.963  51.014  1.00  0.00     0.253 A 
HETATM   17  C14 UNL     1      20.347   1.180  49.742  1.00  0.00     0.098 A 
HETATM   18  N4  UNL     1      20.613   1.432  48.460  1.00  0.00    -0.385 N 
HETATM   19  C15 UNL     1      22.084   1.646  48.059  1.00  0.00     0.161 C 
HETATM   20  O3  UNL     1      22.362   1.363  50.814  1.00  0.00    -0.306 OA
HETATM   21  H10 UNL     1      19.567   1.359  48.263  1.00  0.00     0.159 HD
ENDROOT
BRANCH   1  22
HETATM   22  O1  UNL     1      22.687   6.367  48.114  1.00  0.00    -0.353 OA
HETATM   23  C1  UNL     1      23.971   6.878  47.789  1.00  0.00     0.210 C 
ENDBRANCH   1  22
BRANCH   6  24
HETATM   24  O2  UNL     1      22.496   6.253  50.975  1.00  0.00    -0.352 OA
HETATM   25  C8  UNL     1      21.535   7.285  50.849  1.00  0.00     0.210 C 
ENDBRANCH   6  24
TORSDOF 2
ENDMDL
