MODEL 1
REMARK VINA RESULT:      -8.2      0.000      0.000
REMARK  3 active torsions:
REMARK  status: ('A' for Active; 'I' for Inactive)
REMARK    1  A    between atoms: C8_9  and  N2_10 
REMARK    2  A    between atoms: N2_10  and  C9_11 
REMARK    3  A    between atoms: C12_15  and  C13_16 
ROOT
HETATM    1  C9  UNL     1      24.254   1.521  52.362  1.00  0.00     0.723 A 
HETATM    2  N3  UNL     1      24.408   2.662  53.053  1.00  0.00    -0.075 NA
HETATM    3  C10 UNL     1      25.525   2.844  53.808  1.00  0.00     0.139 A 
HETATM    4  C11 UNL     1      26.438   1.811  53.804  1.00  0.00     0.053 A 
HETATM    5  C12 UNL     1      26.309   0.637  53.109  1.00  0.00     0.089 A 
HETATM    6  N5  UNL     1      25.167   0.546  52.388  1.00  0.00    -0.062 NA
ENDROOT
BRANCH   1   7
HETATM    7  N2  UNL     1      23.072   1.346  51.573  1.00  0.00    -0.211 N 
HETATM    8  H11 UNL     1      22.853   1.996  50.786  1.00  0.00     0.179 HD
BRANCH   7   9
HETATM    9  C8  UNL     1      22.163   0.245  51.870  1.00  0.00     0.151 C 
HETATM   10  C2  UNL     1      20.924   0.394  51.076  1.00  0.00    -0.056 C 
HETATM   11  C1  UNL     1      21.238   0.871  49.687  1.00  0.00     0.046 C 
HETATM   12  C3  UNL     1      19.607   0.264  51.125  1.00  0.00     0.024 C 
HETATM   13  C4  UNL     1      18.750  -0.167  52.229  1.00  0.00     0.111 C 
HETATM   14  N1  UNL     1      18.846  -0.810  53.367  1.00  0.00    -0.298 NA
HETATM   15  C5  UNL     1      20.057  -1.375  53.954  1.00  0.00     0.175 C 
HETATM   16  C6  UNL     1      21.088  -0.332  54.183  1.00  0.00    -0.007 C 
HETATM   17  C7  UNL     1      21.919   0.302  53.331  1.00  0.00     0.001 C 
ENDBRANCH   7   9
ENDBRANCH   1   7
BRANCH   5  18
HETATM   18  C13 UNL     1      27.295  -0.431  53.129  1.00  0.00     0.011 A 
HETATM   19  C14 UNL     1      28.609  -0.281  53.517  1.00  0.00     0.017 A 
HETATM   20  C15 UNL     1      29.481  -1.348  53.506  1.00  0.00     0.020 A 
HETATM   21  C16 UNL     1      29.041  -2.596  53.101  1.00  0.00     0.116 A 
HETATM   22  N4  UNL     1      27.744  -2.756  52.717  1.00  0.00    -0.272 NA
HETATM   23  C17 UNL     1      26.894  -1.690  52.733  1.00  0.00     0.130 A 
ENDBRANCH   5  18
TORSDOF 3
ENDMDL
MODEL 2
REMARK VINA RESULT:      -8.1      1.234      2.244
REMARK  3 active torsions:
REMARK  status: ('A' for Active; 'I' for Inactive)
REMARK    1  A    between atoms: C8_9  and  N2_10 
REMARK    2  A    between atoms: N2_10  and  C9_11 
REMARK    3  A    between atoms: C12_15  and  C13_16 
ROOT
HETATM    1  C9  UNL     1      23.853   0.552  52.898  1.00  0.00     0.723 A 
HETATM    2  N3  UNL     1      23.881   1.885  53.058  1.00  0.00    -0.075 NA
HETATM    3  C10 UNL     1      25.066   2.507  53.305  1.00  0.00     0.139 A 
HETATM    4  C11 UNL     1      26.177   1.696  53.375  1.00  0.00     0.053 A 
HETATM    5  C12 UNL     1      26.180   0.335  53.216  1.00  0.00     0.089 A 
HETATM    6  N5  UNL     1      24.958  -0.195  52.974  1.00  0.00    -0.062 NA
ENDROOT
BRANCH   1   7
HETATM    7  N2  UNL     1      22.599  -0.087  52.639  1.00  0.00    -0.211 N 
HETATM    8  H11 UNL     1      22.476  -1.110  52.803  1.00  0.00     0.179 HD
BRANCH   7   9
HETATM    9  C8  UNL     1      21.478   0.701  52.140  1.00  0.00     0.151 C 
HETATM   10  C2  UNL     1      20.210   0.157  52.673  1.00  0.00    -0.056 C 
HETATM   11  C1  UNL     1      20.372  -0.257  54.107  1.00  0.00     0.046 C 
HETATM   12  C3  UNL     1      18.952  -0.113  52.358  1.00  0.00     0.024 C 
HETATM   13  C4  UNL     1      18.241   0.083  51.094  1.00  0.00     0.111 C 
HETATM   14  N1  UNL     1      18.362   0.768  49.984  1.00  0.00    -0.298 NA
HETATM   15  C5  UNL     1      19.438   1.693  49.638  1.00  0.00     0.175 C 
HETATM   16  C6  UNL     1      20.759   1.017  49.645  1.00  0.00    -0.007 C 
HETATM   17  C7  UNL     1      21.557   0.630  50.661  1.00  0.00     0.001 C 
ENDBRANCH   7   9
ENDBRANCH   1   7
BRANCH   5  18
HETATM   18  C13 UNL     1      27.376  -0.490  53.296  1.00  0.00     0.011 A 
HETATM   19  C14 UNL     1      28.622  -0.033  53.668  1.00  0.00     0.017 A 
HETATM   20  C15 UNL     1      29.706  -0.883  53.718  1.00  0.00     0.020 A 
HETATM   21  C16 UNL     1      29.552  -2.219  53.392  1.00  0.00     0.116 A 
HETATM   22  N4  UNL     1      28.324  -2.681  53.025  1.00  0.00    -0.272 NA
HETATM   23  C17 UNL     1      27.262  -1.827  52.980  1.00  0.00     0.130 A 
ENDBRANCH   5  18
TORSDOF 3
ENDMDL
MODEL 3
REMARK VINA RESULT:      -8.0      1.790      2.845
REMARK  3 active torsions:
REMARK  status: ('A' for Active; 'I' for Inactive)
REMARK    1  A    between atoms: C8_9  and  N2_10 
REMARK    2  A    between atoms: N2_10  and  C9_11 
REMARK    3  A    between atoms: C12_15  and  C13_16 
ROOT
HETATM    1  C9  UNL     1      22.881   1.100  52.549  1.00  0.00     0.723 A 
HETATM    2  N3  UNL     1      22.501   2.368  52.326  1.00  0.00    -0.075 NA
HETATM    3  C10 UNL     1      23.384   3.381  52.540  1.00  0.00     0.139 A 
HETATM    4  C11 UNL     1      24.635   3.015  52.984  1.00  0.00     0.053 A 
HETATM    5  C12 UNL     1      25.052   1.731  53.220  1.00  0.00     0.089 A 
HETATM    6  N5  UNL     1      24.108   0.792  52.979  1.00  0.00    -0.062 NA
ENDROOT
BRANCH   1   7
HETATM    7  N2  UNL     1      21.940   0.046  52.319  1.00  0.00    -0.211 N 
HETATM    8  H11 UNL     1      22.242  -0.856  51.890  1.00  0.00     0.179 HD
BRANCH   7   9
HETATM    9  C8  UNL     1      20.542   0.234  52.687  1.00  0.00     0.151 C 
HETATM   10  C2  UNL     1      20.105  -0.873  53.566  1.00  0.00    -0.056 C 
HETATM   11  C1  UNL     1      21.188  -1.236  54.541  1.00  0.00     0.046 C 
HETATM   12  C3  UNL     1      19.096  -1.689  53.827  1.00  0.00     0.024 C 
HETATM   13  C4  UNL     1      17.783  -1.787  53.189  1.00  0.00     0.111 C 
HETATM   14  N1  UNL     1      16.993  -1.069  52.429  1.00  0.00    -0.298 NA
HETATM   15  C5  UNL     1      17.255   0.271  51.913  1.00  0.00     0.175 C 
HETATM   16  C6  UNL     1      18.482   0.302  51.078  1.00  0.00    -0.007 C 
HETATM   17  C7  UNL     1      19.788   0.286  51.412  1.00  0.00     0.001 C 
ENDBRANCH   7   9
ENDBRANCH   1   7
BRANCH   5  18
HETATM   18  C13 UNL     1      26.384   1.382  53.688  1.00  0.00     0.011 A 
HETATM   19  C14 UNL     1      27.526   2.108  53.423  1.00  0.00     0.017 A 
HETATM   20  C15 UNL     1      28.753   1.707  53.906  1.00  0.00     0.020 A 
HETATM   21  C16 UNL     1      28.852   0.558  54.671  1.00  0.00     0.116 A 
HETATM   22  N4  UNL     1      27.730  -0.166  54.940  1.00  0.00    -0.272 NA
HETATM   23  C17 UNL     1      26.524   0.244  54.455  1.00  0.00     0.130 A 
ENDBRANCH   5  18
TORSDOF 3
ENDMDL
MODEL 4
REMARK VINA RESULT:      -8.0      1.731      7.627
REMARK  3 active torsions:
REMARK  status: ('A' for Active; 'I' for Inactive)
REMARK    1  A    between atoms: C8_9  and  N2_10 
REMARK    2  A    between atoms: N2_10  and  C9_11 
REMARK    3  A    between atoms: C12_15  and  C13_16 
ROOT
HETATM    1  C9  UNL     1      23.281  -0.226  53.181  1.00  0.00     0.723 A 
HETATM    2  N3  UNL     1      23.262  -0.817  54.386  1.00  0.00    -0.075 NA
HETATM    3  C10 UNL     1      22.076  -1.216  54.920  1.00  0.00     0.139 A 
HETATM    4  C11 UNL     1      20.954  -0.974  54.159  1.00  0.00     0.053 A 
HETATM    5  C12 UNL     1      20.941  -0.374  52.927  1.00  0.00     0.089 A 
HETATM    6  N5  UNL     1      22.165  -0.012  52.478  1.00  0.00    -0.062 NA
ENDROOT
BRANCH   1   7
HETATM    7  N2  UNL     1      24.537   0.188  52.633  1.00  0.00    -0.211 N 
HETATM    8  H11 UNL     1      24.617   0.472  51.632  1.00  0.00     0.179 HD
BRANCH   7   9
HETATM    9  C8  UNL     1      25.721   0.215  53.484  1.00  0.00     0.151 C 
HETATM   10  C2  UNL     1      26.272   1.587  53.530  1.00  0.00    -0.056 C 
HETATM   11  C1  UNL     1      25.165   2.600  53.599  1.00  0.00     0.046 C 
HETATM   12  C3  UNL     1      27.399   2.281  53.532  1.00  0.00     0.024 C 
HETATM   13  C4  UNL     1      28.785   1.816  53.478  1.00  0.00     0.111 C 
HETATM   14  N1  UNL     1      29.471   0.719  53.683  1.00  0.00    -0.298 NA
HETATM   15  C5  UNL     1      28.946  -0.579  54.097  1.00  0.00     0.175 C 
HETATM   16  C6  UNL     1      27.953  -1.099  53.123  1.00  0.00    -0.007 C 
HETATM   17  C7  UNL     1      26.667  -0.764  52.898  1.00  0.00     0.001 C 
ENDBRANCH   7   9
ENDBRANCH   1   7
BRANCH   5  18
HETATM   18  C13 UNL     1      19.733  -0.136  52.151  1.00  0.00     0.011 A 
HETATM   19  C14 UNL     1      18.483  -0.617  52.476  1.00  0.00     0.017 A 
HETATM   20  C15 UNL     1      17.388  -0.344  51.684  1.00  0.00     0.020 A 
HETATM   21  C16 UNL     1      17.535   0.426  50.543  1.00  0.00     0.116 A 
HETATM   22  N4  UNL     1      18.766   0.907  50.214  1.00  0.00    -0.272 NA
HETATM   23  C17 UNL     1      19.839   0.628  51.008  1.00  0.00     0.130 A 
ENDBRANCH   5  18
TORSDOF 3
ENDMDL
MODEL 5
REMARK VINA RESULT:      -8.0      1.760      2.259
REMARK  3 active torsions:
REMARK  status: ('A' for Active; 'I' for Inactive)
REMARK    1  A    between atoms: C8_9  and  N2_10 
REMARK    2  A    between atoms: N2_10  and  C9_11 
REMARK    3  A    between atoms: C12_15  and  C13_16 
ROOT
HETATM    1  C9  UNL     1      23.989   2.477  51.007  1.00  0.00     0.723 A 
HETATM    2  N3  UNL     1      24.377   3.174  49.927  1.00  0.00    -0.075 NA
HETATM    3  C10 UNL     1      25.704   3.325  49.665  1.00  0.00     0.139 A 
HETATM    4  C11 UNL     1      26.571   2.734  50.557  1.00  0.00     0.053 A 
HETATM    5  C12 UNL     1      26.207   2.017  51.667  1.00  0.00     0.089 A 
HETATM    6  N5  UNL     1      24.868   1.920  51.845  1.00  0.00    -0.062 NA
ENDROOT
BRANCH   1   7
HETATM    7  N2  UNL     1      22.590   2.327  51.268  1.00  0.00    -0.211 N 
HETATM    8  H11 UNL     1      21.939   3.138  51.177  1.00  0.00     0.179 HD
BRANCH   7   9
HETATM    9  C8  UNL     1      22.066   1.025  51.665  1.00  0.00     0.151 C 
HETATM   10  C2  UNL     1      20.776   0.778  50.983  1.00  0.00    -0.056 C 
HETATM   11  C1  UNL     1      20.825   1.266  49.563  1.00  0.00     0.046 C 
HETATM   12  C3  UNL     1      19.562   0.279  51.152  1.00  0.00     0.024 C 
HETATM   13  C4  UNL     1      18.959  -0.333  52.337  1.00  0.00     0.111 C 
HETATM   14  N1  UNL     1      19.328  -0.872  53.472  1.00  0.00    -0.298 NA
HETATM   15  C5  UNL     1      20.695  -1.040  53.958  1.00  0.00     0.175 C 
HETATM   16  C6  UNL     1      21.395   0.264  54.075  1.00  0.00    -0.007 C 
HETATM   17  C7  UNL     1      21.935   1.072  53.141  1.00  0.00     0.001 C 
ENDBRANCH   7   9
ENDBRANCH   1   7
BRANCH   5  18
HETATM   18  C13 UNL     1      27.153   1.406  52.587  1.00  0.00     0.011 A 
HETATM   19  C14 UNL     1      27.388   0.052  52.689  1.00  0.00     0.017 A 
HETATM   20  C15 UNL     1      28.305  -0.446  53.589  1.00  0.00     0.020 A 
HETATM   21  C16 UNL     1      29.008   0.419  54.410  1.00  0.00     0.116 A 
HETATM   22  N4  UNL     1      28.785   1.760  54.316  1.00  0.00    -0.272 NA
HETATM   23  C17 UNL     1      27.874   2.236  53.420  1.00  0.00     0.130 A 
ENDBRANCH   5  18
TORSDOF 3
ENDMDL
MODEL 6
REMARK VINA RESULT:      -7.9      3.921      6.177
REMARK  3 active torsions:
REMARK  status: ('A' for Active; 'I' for Inactive)
REMARK    1  A    between atoms: C8_9  and  N2_10 
REMARK    2  A    between atoms: N2_10  and  C9_11 
REMARK    3  A    between atoms: C12_15  and  C13_16 
ROOT
HETATM    1  C9  UNL     1      23.445   3.396  50.991  1.00  0.00     0.723 A 
HETATM    2  N3  UNL     1      22.316   3.537  50.278  1.00  0.00    -0.075 NA
HETATM    3  C10 UNL     1      22.345   4.223  49.103  1.00  0.00     0.139 A 
HETATM    4  C11 UNL     1      23.567   4.735  48.727  1.00  0.00     0.053 A 
HETATM    5  C12 UNL     1      24.735   4.608  49.432  1.00  0.00     0.089 A 
HETATM    6  N5  UNL     1      24.609   3.911  50.586  1.00  0.00    -0.062 NA
ENDROOT
BRANCH   1   7
HETATM    7  N2  UNL     1      23.397   2.672  52.225  1.00  0.00    -0.211 N 
HETATM    8  H11 UNL     1      22.696   2.912  52.959  1.00  0.00     0.179 HD
BRANCH   7   9
HETATM    9  C8  UNL     1      24.340   1.584  52.459  1.00  0.00     0.151 C 
HETATM   10  C2  UNL     1      23.623   0.412  53.005  1.00  0.00    -0.056 C 
HETATM   11  C1  UNL     1      22.295   0.239  52.325  1.00  0.00     0.046 C 
HETATM   12  C3  UNL     1      23.707  -0.570  53.889  1.00  0.00     0.024 C 
HETATM   13  C4  UNL     1      24.779  -0.893  54.830  1.00  0.00     0.111 C 
HETATM   14  N1  UNL     1      26.051  -0.633  55.012  1.00  0.00    -0.298 NA
HETATM   15  C5  UNL     1      26.902   0.205  54.173  1.00  0.00     0.175 C 
HETATM   16  C6  UNL     1      26.386   1.594  54.088  1.00  0.00    -0.007 C 
HETATM   17  C7  UNL     1      25.357   2.121  53.394  1.00  0.00     0.001 C 
ENDBRANCH   7   9
ENDBRANCH   1   7
BRANCH   5  18
HETATM   18  C13 UNL     1      26.009   5.163  49.002  1.00  0.00     0.011 A 
HETATM   19  C14 UNL     1      26.206   6.473  48.621  1.00  0.00     0.017 A 
HETATM   20  C15 UNL     1      27.449   6.919  48.225  1.00  0.00     0.020 A 
HETATM   21  C16 UNL     1      28.523   6.047  48.207  1.00  0.00     0.116 A 
HETATM   22  N4  UNL     1      28.339   4.751  48.583  1.00  0.00    -0.272 NA
HETATM   23  C17 UNL     1      27.103   4.325  48.971  1.00  0.00     0.130 A 
ENDBRANCH   5  18
TORSDOF 3
ENDMDL
MODEL 7
REMARK VINA RESULT:      -7.9      2.117      7.198
REMARK  3 active torsions:
REMARK  status: ('A' for Active; 'I' for Inactive)
REMARK    1  A    between atoms: C8_9  and  N2_10 
REMARK    2  A    between atoms: N2_10  and  C9_11 
REMARK    3  A    between atoms: C12_15  and  C13_16 
ROOT
HETATM    1  C9  UNL     1      26.380   2.673  51.552  1.00  0.00     0.723 A 
HETATM    2  N3  UNL     1      26.779   3.227  50.396  1.00  0.00    -0.075 NA
HETATM    3  C10 UNL     1      25.856   3.529  49.442  1.00  0.00     0.139 A 
HETATM    4  C11 UNL     1      24.546   3.233  49.747  1.00  0.00     0.053 A 
HETATM    5  C12 UNL     1      24.108   2.669  50.917  1.00  0.00     0.089 A 
HETATM    6  N5  UNL     1      25.096   2.403  51.804  1.00  0.00    -0.062 NA
ENDROOT
BRANCH   1   7
HETATM    7  N2  UNL     1      27.363   2.361  52.544  1.00  0.00    -0.211 N 
HETATM    8  H11 UNL     1      28.082   3.064  52.823  1.00  0.00     0.179 HD
BRANCH   7   9
HETATM    9  C8  UNL     1      27.361   1.046  53.173  1.00  0.00     0.151 C 
HETATM   10  C2  UNL     1      28.709   0.744  53.702  1.00  0.00    -0.056 C 
HETATM   11  C1  UNL     1      29.323   1.968  54.318  1.00  0.00     0.046 C 
HETATM   12  C3  UNL     1      29.606  -0.220  53.842  1.00  0.00     0.024 C 
HETATM   13  C4  UNL     1      29.545  -1.622  53.427  1.00  0.00     0.111 C 
HETATM   14  N1  UNL     1      28.653  -2.515  53.079  1.00  0.00    -0.298 NA
HETATM   15  C5  UNL     1      27.208  -2.323  52.992  1.00  0.00     0.175 C 
HETATM   16  C6  UNL     1      26.859  -1.251  52.027  1.00  0.00    -0.007 C 
HETATM   17  C7  UNL     1      26.930   0.092  52.124  1.00  0.00     0.001 C 
ENDBRANCH   7   9
ENDBRANCH   1   7
BRANCH   5  18
HETATM   18  C13 UNL     1      22.714   2.371  51.204  1.00  0.00     0.011 A 
HETATM   19  C14 UNL     1      22.034   1.267  50.737  1.00  0.00     0.017 A 
HETATM   20  C15 UNL     1      20.709   1.059  51.057  1.00  0.00     0.020 A 
HETATM   21  C16 UNL     1      20.041   1.967  51.860  1.00  0.00     0.116 A 
HETATM   22  N4  UNL     1      20.704   3.061  52.328  1.00  0.00    -0.272 NA
HETATM   23  C17 UNL     1      22.015   3.252  52.002  1.00  0.00     0.130 A 
ENDBRANCH   5  18
TORSDOF 3
ENDMDL
MODEL 8
REMARK VINA RESULT:      -7.9      3.282      5.050
REMARK  3 active torsions:
REMARK  status: ('A' for Active; 'I' for Inactive)
REMARK    1  A    between atoms: C8_9  and  N2_10 
REMARK    2  A    between atoms: N2_10  and  C9_11 
REMARK    3  A    between atoms: C12_15  and  C13_16 
ROOT
HETATM    1  C9  UNL     1      24.866   2.262  52.442  1.00  0.00     0.723 A 
HETATM    2  N3  UNL     1      23.632   1.816  52.728  1.00  0.00    -0.075 NA
HETATM    3  C10 UNL     1      23.462   0.532  53.147  1.00  0.00     0.139 A 
HETATM    4  C11 UNL     1      24.603  -0.232  53.246  1.00  0.00     0.053 A 
HETATM    5  C12 UNL     1      25.874   0.194  52.962  1.00  0.00     0.089 A 
HETATM    6  N5  UNL     1      25.945   1.483  52.554  1.00  0.00    -0.062 NA
ENDROOT
BRANCH   1   7
HETATM    7  N2  UNL     1      25.027   3.614  52.003  1.00  0.00    -0.211 N 
HETATM    8  H11 UNL     1      25.658   4.271  52.514  1.00  0.00     0.179 HD
BRANCH   7   9
HETATM    9  C8  UNL     1      24.302   4.083  50.828  1.00  0.00     0.151 C 
HETATM   10  C2  UNL     1      25.260   4.583  49.818  1.00  0.00    -0.056 C 
HETATM   11  C1  UNL     1      26.475   3.702  49.758  1.00  0.00     0.046 C 
HETATM   12  C3  UNL     1      25.461   5.537  48.922  1.00  0.00     0.024 C 
HETATM   13  C4  UNL     1      24.608   6.667  48.552  1.00  0.00     0.111 C 
HETATM   14  N1  UNL     1      23.357   7.042  48.658  1.00  0.00    -0.298 NA
HETATM   15  C5  UNL     1      22.271   6.300  49.291  1.00  0.00     0.175 C 
HETATM   16  C6  UNL     1      22.559   6.030  50.722  1.00  0.00    -0.007 C 
HETATM   17  C7  UNL     1      23.378   5.136  51.312  1.00  0.00     0.001 C 
ENDBRANCH   7   9
ENDBRANCH   1   7
BRANCH   5  18
HETATM   18  C13 UNL     1      27.058  -0.644  53.079  1.00  0.00     0.011 A 
HETATM   19  C14 UNL     1      28.277  -0.219  53.563  1.00  0.00     0.017 A 
HETATM   20  C15 UNL     1      29.350  -1.080  53.641  1.00  0.00     0.020 A 
HETATM   21  C16 UNL     1      29.213  -2.395  53.230  1.00  0.00     0.116 A 
HETATM   22  N4  UNL     1      28.013  -2.825  52.752  1.00  0.00    -0.272 NA
HETATM   23  C17 UNL     1      26.960  -1.960  52.681  1.00  0.00     0.130 A 
ENDBRANCH   5  18
TORSDOF 3
ENDMDL
MODEL 9
REMARK VINA RESULT:      -7.8      2.442      4.180
REMARK  3 active torsions:
REMARK  status: ('A' for Active; 'I' for Inactive)
REMARK    1  A    between atoms: C8_9  and  N2_10 
REMARK    2  A    between atoms: N2_10  and  C9_11 
REMARK    3  A    between atoms: C12_15  and  C13_16 
ROOT
HETATM    1  C9  UNL     1      22.905   0.921  53.022  1.00  0.00     0.723 A 
HETATM    2  N3  UNL     1      22.059   0.167  53.742  1.00  0.00    -0.075 NA
HETATM    3  C10 UNL     1      22.551  -0.823  54.536  1.00  0.00     0.139 A 
HETATM    4  C11 UNL     1      23.919  -0.980  54.537  1.00  0.00     0.053 A 
HETATM    5  C12 UNL     1      24.807  -0.227  53.814  1.00  0.00     0.089 A 
HETATM    6  N5  UNL     1      24.228   0.732  53.055  1.00  0.00    -0.062 NA
ENDROOT
BRANCH   1   7
HETATM    7  N2  UNL     1      22.372   1.958  52.193  1.00  0.00    -0.211 N 
HETATM    8  H11 UNL     1      21.629   2.599  52.548  1.00  0.00     0.179 HD
BRANCH   7   9
HETATM    9  C8  UNL     1      22.872   2.122  50.833  1.00  0.00     0.151 C 
HETATM   10  C2  UNL     1      23.049   3.561  50.537  1.00  0.00    -0.056 C 
HETATM   11  C1  UNL     1      23.607   4.283  51.730  1.00  0.00     0.046 C 
HETATM   12  C3  UNL     1      22.897   4.481  49.597  1.00  0.00     0.024 C 
HETATM   13  C4  UNL     1      22.391   4.347  48.231  1.00  0.00     0.111 C 
HETATM   14  N1  UNL     1      22.184   3.412  47.337  1.00  0.00    -0.298 NA
HETATM   15  C5  UNL     1      22.449   1.984  47.485  1.00  0.00     0.175 C 
HETATM   16  C6  UNL     1      21.684   1.404  48.617  1.00  0.00    -0.007 C 
HETATM   17  C7  UNL     1      21.874   1.474  49.950  1.00  0.00     0.001 C 
ENDBRANCH   7   9
ENDBRANCH   1   7
BRANCH   5  18
HETATM   18  C13 UNL     1      26.249  -0.422  53.842  1.00  0.00     0.011 A 
HETATM   19  C14 UNL     1      26.964  -1.131  52.901  1.00  0.00     0.017 A 
HETATM   20  C15 UNL     1      28.332  -1.268  53.002  1.00  0.00     0.020 A 
HETATM   21  C16 UNL     1      29.008  -0.689  54.061  1.00  0.00     0.116 A 
HETATM   22  N4  UNL     1      28.312   0.015  54.995  1.00  0.00    -0.272 NA
HETATM   23  C17 UNL     1      26.958   0.142  54.881  1.00  0.00     0.130 A 
ENDBRANCH   5  18
TORSDOF 3
ENDMDL
