MODEL 1
REMARK VINA RESULT:      -7.4      0.000      0.000
REMARK  7 active torsions:
REMARK  status: ('A' for Active; 'I' for Inactive)
REMARK    1  A    between atoms: C2_2  and  C3_3 
REMARK       I    between atoms: C3_3  and  N1_5 
REMARK    2  A    between atoms: N1_5  and  C4_6 
REMARK    3  A    between atoms: C5_7  and  C6_8 
REMARK    4  A    between atoms: C6_8  and  N2_12 
REMARK    5  A    between atoms: C7_9  and  C8_10 
REMARK    6  A    between atoms: C8_10  and  O2_11 
REMARK    7  A    between atoms: N2_12  and  C9_13 
ROOT
HETATM    1  C6  UNL     1      23.638   1.339  52.261  1.00  0.00     0.049 C 
HETATM    2  C7  UNL     1      22.441   0.776  52.225  1.00  0.00     0.029 C 
ENDROOT
BRANCH   1   3
HETATM    3  C5  UNL     1      24.132   2.232  51.246  1.00  0.00     0.047 C 
HETATM    4  C4  UNL     1      24.886   3.255  51.559  1.00  0.00     0.093 C 
BRANCH   4   5
HETATM    5  N1  UNL     1      25.431   4.202  50.661  1.00  0.00    -0.334 N 
HETATM    6  C3  UNL     1      26.455   4.047  49.690  1.00  0.00     0.244 C 
HETATM    7  O1  UNL     1      26.986   2.918  49.575  1.00  0.00    -0.268 OA
HETATM    8  H4  UNL     1      25.067   5.202  50.656  1.00  0.00     0.168 HD
BRANCH   6   9
HETATM    9  C2  UNL     1      26.913   5.129  48.827  1.00  0.00     0.064 C 
HETATM   10  C1  UNL     1      28.152   5.346  48.430  1.00  0.00     0.017 C 
ENDBRANCH   6   9
ENDBRANCH   4   5
ENDBRANCH   1   3
BRANCH   1  11
HETATM   11  N2  UNL     1      24.288   0.890  53.470  1.00  0.00    -0.187 N 
HETATM   12  H11 UNL     1      23.821   1.136  54.391  1.00  0.00     0.184 HD
BRANCH  11  13
HETATM   13  C9  UNL     1      25.517   0.144  53.338  1.00  0.00     0.744 A 
HETATM   14  N3  UNL     1      25.663  -1.117  52.901  1.00  0.00    -0.071 NA
HETATM   15  C10 UNL     1      26.851  -1.723  52.804  1.00  0.00     0.168 A 
HETATM   16  C11 UNL     1      27.990  -1.035  53.167  1.00  0.00     0.077 A 
HETATM   17  C12 UNL     1      29.336  -1.386  53.177  1.00  0.00     0.035 A 
HETATM   18  N4  UNL     1      27.822   0.231  53.604  1.00  0.00    -0.222 N 
HETATM   19  C13 UNL     1      30.005  -0.275  53.641  1.00  0.00     0.029 A 
HETATM   20  C14 UNL     1      29.046   0.705  53.896  1.00  0.00     0.033 A 
HETATM   21  C15 UNL     1      29.457   2.038  54.412  1.00  0.00     0.070 C 
HETATM   22  N5  UNL     1      26.629   0.809  53.689  1.00  0.00     0.026 NA
ENDBRANCH  11  13
ENDBRANCH   1  11
BRANCH   2  23
HETATM   23  C8  UNL     1      21.767  -0.153  53.158  1.00  0.00     0.194 C 
BRANCH  23  24
HETATM   24  O2  UNL     1      22.436  -1.380  53.084  1.00  0.00    -0.397 OA
HETATM   25  H10 UNL     1      23.403  -1.203  53.270  1.00  0.00     0.209 HD
ENDBRANCH  23  24
ENDBRANCH   2  23
TORSDOF 7
ENDMDL
MODEL 2
REMARK VINA RESULT:      -7.4      2.080      4.833
REMARK  7 active torsions:
REMARK  status: ('A' for Active; 'I' for Inactive)
REMARK    1  A    between atoms: C2_2  and  C3_3 
REMARK       I    between atoms: C3_3  and  N1_5 
REMARK    2  A    between atoms: N1_5  and  C4_6 
REMARK    3  A    between atoms: C5_7  and  C6_8 
REMARK    4  A    between atoms: C6_8  and  N2_12 
REMARK    5  A    between atoms: C7_9  and  C8_10 
REMARK    6  A    between atoms: C8_10  and  O2_11 
REMARK    7  A    between atoms: N2_12  and  C9_13 
ROOT
HETATM    1  C6  UNL     1      27.310   1.230  52.716  1.00  0.00     0.049 C 
HETATM    2  C7  UNL     1      28.480   1.155  53.328  1.00  0.00     0.029 C 
ENDROOT
BRANCH   1   3
HETATM    3  C5  UNL     1      26.725   2.462  52.256  1.00  0.00     0.047 C 
HETATM    4  C4  UNL     1      26.774   2.800  50.992  1.00  0.00     0.093 C 
BRANCH   4   5
HETATM    5  N1  UNL     1      26.243   3.978  50.417  1.00  0.00    -0.334 N 
HETATM    6  C3  UNL     1      26.712   4.738  49.312  1.00  0.00     0.244 C 
HETATM    7  O1  UNL     1      27.748   4.345  48.728  1.00  0.00    -0.268 OA
HETATM    8  H4  UNL     1      25.362   4.418  50.820  1.00  0.00     0.168 HD
BRANCH   6   9
HETATM    9  C2  UNL     1      26.048   5.943  48.830  1.00  0.00     0.064 C 
HETATM   10  C1  UNL     1      26.600   6.916  48.131  1.00  0.00     0.017 C 
ENDBRANCH   6   9
ENDBRANCH   4   5
ENDBRANCH   1   3
BRANCH   1  11
HETATM   11  N2  UNL     1      26.791  -0.114  52.615  1.00  0.00    -0.187 N 
HETATM   12  H11 UNL     1      27.314  -0.790  51.985  1.00  0.00     0.184 HD
BRANCH  11  13
HETATM   13  C9  UNL     1      25.606  -0.439  53.373  1.00  0.00     0.744 A 
HETATM   14  N3  UNL     1      25.545  -0.929  54.622  1.00  0.00    -0.071 NA
HETATM   15  C10 UNL     1      24.393  -1.190  55.248  1.00  0.00     0.168 A 
HETATM   16  C11 UNL     1      23.201  -0.951  54.595  1.00  0.00     0.077 A 
HETATM   17  C12 UNL     1      21.874  -1.116  54.974  1.00  0.00     0.035 A 
HETATM   18  N4  UNL     1      23.284  -0.458  53.341  1.00  0.00    -0.222 N 
HETATM   19  C13 UNL     1      21.126  -0.701  53.895  1.00  0.00     0.029 A 
HETATM   20  C14 UNL     1      22.022  -0.301  52.903  1.00  0.00     0.033 A 
HETATM   21  C15 UNL     1      21.518   0.207  51.600  1.00  0.00     0.070 C 
HETATM   22  N5  UNL     1      24.443  -0.207  52.743  1.00  0.00     0.026 NA
ENDBRANCH  11  13
ENDBRANCH   1  11
BRANCH   2  23
HETATM   23  C8  UNL     1      29.233   0.000  53.865  1.00  0.00     0.194 C 
BRANCH  23  24
HETATM   24  O2  UNL     1      28.605  -0.394  55.052  1.00  0.00    -0.397 OA
HETATM   25  H10 UNL     1      28.585   0.402  55.657  1.00  0.00     0.209 HD
ENDBRANCH  23  24
ENDBRANCH   2  23
TORSDOF 7
ENDMDL
MODEL 3
REMARK VINA RESULT:      -7.1      1.534      5.373
REMARK  7 active torsions:
REMARK  status: ('A' for Active; 'I' for Inactive)
REMARK    1  A    between atoms: C2_2  and  C3_3 
REMARK       I    between atoms: C3_3  and  N1_5 
REMARK    2  A    between atoms: N1_5  and  C4_6 
REMARK    3  A    between atoms: C5_7  and  C6_8 
REMARK    4  A    between atoms: C6_8  and  N2_12 
REMARK    5  A    between atoms: C7_9  and  C8_10 
REMARK    6  A    between atoms: C8_10  and  O2_11 
REMARK    7  A    between atoms: N2_12  and  C9_13 
ROOT
HETATM    1  C6  UNL     1      24.920   2.346  51.654  1.00  0.00     0.049 C 
HETATM    2  C7  UNL     1      25.306   2.826  50.483  1.00  0.00     0.029 C 
ENDROOT
BRANCH   1   3
HETATM    3  C5  UNL     1      23.810   1.445  51.823  1.00  0.00     0.047 C 
HETATM    4  C4  UNL     1      23.259   1.268  52.997  1.00  0.00     0.093 C 
BRANCH   4   5
HETATM    5  N1  UNL     1      22.172   0.414  53.294  1.00  0.00    -0.334 N 
HETATM    6  C3  UNL     1      22.121  -0.734  54.129  1.00  0.00     0.244 C 
HETATM    7  O1  UNL     1      23.175  -1.080  54.711  1.00  0.00    -0.268 OA
HETATM    8  H4  UNL     1      21.216   0.598  52.862  1.00  0.00     0.168 HD
BRANCH   6   9
HETATM    9  C2  UNL     1      20.912  -1.519  54.339  1.00  0.00     0.064 C 
HETATM   10  C1  UNL     1      19.736  -1.317  53.777  1.00  0.00     0.017 C 
ENDBRANCH   6   9
ENDBRANCH   4   5
ENDBRANCH   1   3
BRANCH   1  11
HETATM   11  N2  UNL     1      25.809   2.888  52.655  1.00  0.00    -0.187 N 
HETATM   12  H11 UNL     1      25.566   3.842  53.054  1.00  0.00     0.184 HD
BRANCH  11  13
HETATM   13  C9  UNL     1      26.956   2.100  53.038  1.00  0.00     0.744 A 
HETATM   14  N3  UNL     1      28.080   2.530  53.633  1.00  0.00    -0.071 NA
HETATM   15  C10 UNL     1      29.090   1.718  53.959  1.00  0.00     0.168 A 
HETATM   16  C11 UNL     1      28.990   0.371  53.677  1.00  0.00     0.077 A 
HETATM   17  C12 UNL     1      29.852  -0.700  53.891  1.00  0.00     0.035 A 
HETATM   18  N4  UNL     1      27.853  -0.042  53.079  1.00  0.00    -0.222 N 
HETATM   19  C13 UNL     1      29.198  -1.806  53.397  1.00  0.00     0.029 A 
HETATM   20  C14 UNL     1      27.968  -1.370  52.903  1.00  0.00     0.033 A 
HETATM   21  C15 UNL     1      27.019  -2.340  52.297  1.00  0.00     0.070 C 
HETATM   22  N5  UNL     1      26.865   0.788  52.766  1.00  0.00     0.026 NA
ENDBRANCH  11  13
ENDBRANCH   1  11
BRANCH   2  23
HETATM   23  C8  UNL     1      26.403   3.747  50.115  1.00  0.00     0.194 C 
BRANCH  23  24
HETATM   24  O2  UNL     1      25.989   5.043  50.442  1.00  0.00    -0.397 OA
HETATM   25  H10 UNL     1      24.991   5.062  50.381  1.00  0.00     0.209 HD
ENDBRANCH  23  24
ENDBRANCH   2  23
TORSDOF 7
ENDMDL
MODEL 4
REMARK VINA RESULT:      -6.9      2.217      5.775
REMARK  7 active torsions:
REMARK  status: ('A' for Active; 'I' for Inactive)
REMARK    1  A    between atoms: C2_2  and  C3_3 
REMARK       I    between atoms: C3_3  and  N1_5 
REMARK    2  A    between atoms: N1_5  and  C4_6 
REMARK    3  A    between atoms: C5_7  and  C6_8 
REMARK    4  A    between atoms: C6_8  and  N2_12 
REMARK    5  A    between atoms: C7_9  and  C8_10 
REMARK    6  A    between atoms: C8_10  and  O2_11 
REMARK    7  A    between atoms: N2_12  and  C9_13 
ROOT
HETATM    1  C6  UNL     1      23.181  -0.166  53.128  1.00  0.00     0.049 C 
HETATM    2  C7  UNL     1      22.445  -0.779  54.040  1.00  0.00     0.029 C 
ENDROOT
BRANCH   1   3
HETATM    3  C5  UNL     1      24.618  -0.235  53.081  1.00  0.00     0.047 C 
HETATM    4  C4  UNL     1      25.306  -0.656  54.112  1.00  0.00     0.093 C 
BRANCH   4   5
HETATM    5  N1  UNL     1      26.714  -0.768  54.193  1.00  0.00    -0.334 N 
HETATM    6  C3  UNL     1      27.691   0.235  54.429  1.00  0.00     0.244 C 
HETATM    7  O1  UNL     1      27.293   1.411  54.596  1.00  0.00    -0.268 OA
HETATM    8  H4  UNL     1      27.181  -1.716  54.069  1.00  0.00     0.168 HD
BRANCH   6   9
HETATM    9  C2  UNL     1      29.122  -0.037  54.487  1.00  0.00     0.064 C 
HETATM   10  C1  UNL     1      29.805  -0.819  53.674  1.00  0.00     0.017 C 
ENDBRANCH   6   9
ENDBRANCH   4   5
ENDBRANCH   1   3
BRANCH   1  11
HETATM   11  N2  UNL     1      22.277   0.536  52.247  1.00  0.00    -0.187 N 
HETATM   12  H11 UNL     1      21.478  -0.022  51.827  1.00  0.00     0.184 HD
BRANCH  11  13
HETATM   13  C9  UNL     1      22.525   1.938  52.003  1.00  0.00     0.744 A 
HETATM   14  N3  UNL     1      21.787   2.981  52.416  1.00  0.00    -0.071 NA
HETATM   15  C10 UNL     1      22.104   4.251  52.147  1.00  0.00     0.168 A 
HETATM   16  C11 UNL     1      23.240   4.521  51.411  1.00  0.00     0.077 A 
HETATM   17  C12 UNL     1      23.819   5.710  50.981  1.00  0.00     0.035 A 
HETATM   18  N4  UNL     1      23.968   3.460  51.006  1.00  0.00    -0.222 N 
HETATM   19  C13 UNL     1      24.949   5.342  50.286  1.00  0.00     0.029 A 
HETATM   20  C14 UNL     1      25.014   3.948  50.317  1.00  0.00     0.033 A 
HETATM   21  C15 UNL     1      26.135   3.237  49.648  1.00  0.00     0.070 C 
HETATM   22  N5  UNL     1      23.629   2.207  51.288  1.00  0.00     0.026 NA
ENDBRANCH  11  13
ENDBRANCH   1  11
BRANCH   2  23
HETATM   23  C8  UNL     1      20.981  -0.827  54.248  1.00  0.00     0.194 C 
BRANCH  23  24
HETATM   24  O2  UNL     1      20.619   0.337  54.935  1.00  0.00    -0.397 OA
HETATM   25  H10 UNL     1      20.056   0.060  55.715  1.00  0.00     0.209 HD
ENDBRANCH  23  24
ENDBRANCH   2  23
TORSDOF 7
ENDMDL
MODEL 5
REMARK VINA RESULT:      -6.9      1.736      2.675
REMARK  7 active torsions:
REMARK  status: ('A' for Active; 'I' for Inactive)
REMARK    1  A    between atoms: C2_2  and  C3_3 
REMARK       I    between atoms: C3_3  and  N1_5 
REMARK    2  A    between atoms: N1_5  and  C4_6 
REMARK    3  A    between atoms: C5_7  and  C6_8 
REMARK    4  A    between atoms: C6_8  and  N2_12 
REMARK    5  A    between atoms: C7_9  and  C8_10 
REMARK    6  A    between atoms: C8_10  and  O2_11 
REMARK    7  A    between atoms: N2_12  and  C9_13 
ROOT
HETATM    1  C6  UNL     1      24.954   2.834  51.993  1.00  0.00     0.049 C 
HETATM    2  C7  UNL     1      23.832   2.134  51.957  1.00  0.00     0.029 C 
ENDROOT
BRANCH   1   3
HETATM    3  C5  UNL     1      25.492   3.543  50.862  1.00  0.00     0.047 C 
HETATM    4  C4  UNL     1      24.781   4.444  50.232  1.00  0.00     0.093 C 
BRANCH   4   5
HETATM    5  N1  UNL     1      25.191   5.203  49.111  1.00  0.00    -0.334 N 
HETATM    6  C3  UNL     1      25.755   6.505  49.056  1.00  0.00     0.244 C 
HETATM    7  O1  UNL     1      25.935   7.111  50.137  1.00  0.00    -0.268 OA
HETATM    8  H4  UNL     1      25.091   4.803  48.130  1.00  0.00     0.168 HD
BRANCH   6   9
HETATM    9  C2  UNL     1      26.132   7.163  47.811  1.00  0.00     0.064 C 
HETATM   10  C1  UNL     1      27.134   8.004  47.639  1.00  0.00     0.017 C 
ENDBRANCH   6   9
ENDBRANCH   4   5
ENDBRANCH   1   3
BRANCH   1  11
HETATM   11  N2  UNL     1      25.477   2.738  53.336  1.00  0.00    -0.187 N 
HETATM   12  H11 UNL     1      24.907   3.186  54.112  1.00  0.00     0.184 HD
BRANCH  11  13
HETATM   13  C9  UNL     1      26.729   2.043  53.524  1.00  0.00     0.744 A 
HETATM   14  N3  UNL     1      27.874   2.544  54.015  1.00  0.00    -0.071 NA
HETATM   15  C10 UNL     1      28.985   1.816  54.162  1.00  0.00     0.168 A 
HETATM   16  C11 UNL     1      28.974   0.486  53.794  1.00  0.00     0.077 A 
HETATM   17  C12 UNL     1      29.948  -0.506  53.828  1.00  0.00     0.035 A 
HETATM   18  N4  UNL     1      27.814   0.002  53.303  1.00  0.00    -0.222 N 
HETATM   19  C13 UNL     1      29.341  -1.638  53.333  1.00  0.00     0.029 A 
HETATM   20  C14 UNL     1      28.026  -1.295  53.017  1.00  0.00     0.033 A 
HETATM   21  C15 UNL     1      27.101  -2.314  52.456  1.00  0.00     0.070 C 
HETATM   22  N5  UNL     1      26.724   0.748  53.169  1.00  0.00     0.026 NA
ENDBRANCH  11  13
ENDBRANCH   1  11
BRANCH   2  23
HETATM   23  C8  UNL     1      23.131   1.351  52.998  1.00  0.00     0.194 C 
BRANCH  23  24
HETATM   24  O2  UNL     1      23.751   0.099  53.068  1.00  0.00    -0.397 OA
HETATM   25  H10 UNL     1      23.189  -0.480  53.660  1.00  0.00     0.209 HD
ENDBRANCH  23  24
ENDBRANCH   2  23
TORSDOF 7
ENDMDL
MODEL 6
REMARK VINA RESULT:      -6.6      2.404      6.452
REMARK  7 active torsions:
REMARK  status: ('A' for Active; 'I' for Inactive)
REMARK    1  A    between atoms: C2_2  and  C3_3 
REMARK       I    between atoms: C3_3  and  N1_5 
REMARK    2  A    between atoms: N1_5  and  C4_6 
REMARK    3  A    between atoms: C5_7  and  C6_8 
REMARK    4  A    between atoms: C6_8  and  N2_12 
REMARK    5  A    between atoms: C7_9  and  C8_10 
REMARK    6  A    between atoms: C8_10  and  O2_11 
REMARK    7  A    between atoms: N2_12  and  C9_13 
ROOT
HETATM    1  C6  UNL     1      25.711   3.263  51.116  1.00  0.00     0.049 C 
HETATM    2  C7  UNL     1      25.853   4.025  50.045  1.00  0.00     0.029 C 
ENDROOT
BRANCH   1   3
HETATM    3  C5  UNL     1      26.463   2.057  51.345  1.00  0.00     0.047 C 
HETATM    4  C4  UNL     1      27.060   1.843  52.491  1.00  0.00     0.093 C 
BRANCH   4   5
HETATM    5  N1  UNL     1      27.827   0.708  52.839  1.00  0.00    -0.334 N 
HETATM    6  C3  UNL     1      28.791   0.545  53.869  1.00  0.00     0.244 C 
HETATM    7  O1  UNL     1      29.031   1.529  54.606  1.00  0.00    -0.268 OA
HETATM    8  H4  UNL     1      27.718  -0.198  52.290  1.00  0.00     0.168 HD
BRANCH   6   9
HETATM    9  C2  UNL     1      29.506  -0.702  54.108  1.00  0.00     0.064 C 
HETATM   10  C1  UNL     1      29.499  -1.771  53.336  1.00  0.00     0.017 C 
ENDBRANCH   6   9
ENDBRANCH   4   5
ENDBRANCH   1   3
BRANCH   1  11
HETATM   11  N2  UNL     1      24.703   3.876  51.950  1.00  0.00    -0.187 N 
HETATM   12  H11 UNL     1      24.973   4.767  52.460  1.00  0.00     0.184 HD
BRANCH  11  13
HETATM   13  C9  UNL     1      23.411   3.237  52.027  1.00  0.00     0.744 A 
HETATM   14  N3  UNL     1      22.257   3.661  51.488  1.00  0.00    -0.071 NA
HETATM   15  C10 UNL     1      21.107   2.992  51.606  1.00  0.00     0.168 A 
HETATM   16  C11 UNL     1      21.085   1.807  52.314  1.00  0.00     0.077 A 
HETATM   17  C12 UNL     1      20.068   0.904  52.603  1.00  0.00     0.035 A 
HETATM   18  N4  UNL     1      22.255   1.397  52.848  1.00  0.00    -0.222 N 
HETATM   19  C13 UNL     1      20.658  -0.094  53.346  1.00  0.00     0.029 A 
HETATM   20  C14 UNL     1      22.006   0.237  53.480  1.00  0.00     0.033 A 
HETATM   21  C15 UNL     1      22.924  -0.654  54.238  1.00  0.00     0.070 C 
HETATM   22  N5  UNL     1      23.384   2.083  52.713  1.00  0.00     0.026 NA
ENDBRANCH  11  13
ENDBRANCH   1  11
BRANCH   2  23
HETATM   23  C8  UNL     1      25.182   5.280  49.638  1.00  0.00     0.194 C 
BRANCH  23  24
HETATM   24  O2  UNL     1      25.713   6.311  50.420  1.00  0.00    -0.397 OA
HETATM   25  H10 UNL     1      26.242   6.904  49.813  1.00  0.00     0.209 HD
ENDBRANCH  23  24
ENDBRANCH   2  23
TORSDOF 7
ENDMDL
MODEL 7
REMARK VINA RESULT:      -6.6      2.776      6.327
REMARK  7 active torsions:
REMARK  status: ('A' for Active; 'I' for Inactive)
REMARK    1  A    between atoms: C2_2  and  C3_3 
REMARK       I    between atoms: C3_3  and  N1_5 
REMARK    2  A    between atoms: N1_5  and  C4_6 
REMARK    3  A    between atoms: C5_7  and  C6_8 
REMARK    4  A    between atoms: C6_8  and  N2_12 
REMARK    5  A    between atoms: C7_9  and  C8_10 
REMARK    6  A    between atoms: C8_10  and  O2_11 
REMARK    7  A    between atoms: N2_12  and  C9_13 
ROOT
HETATM    1  C6  UNL     1      23.300   0.339  53.362  1.00  0.00     0.049 C 
HETATM    2  C7  UNL     1      22.592  -0.519  54.076  1.00  0.00     0.029 C 
ENDROOT
BRANCH   1   3
HETATM    3  C5  UNL     1      24.711   0.200  53.113  1.00  0.00     0.047 C 
HETATM    4  C4  UNL     1      25.452  -0.580  53.857  1.00  0.00     0.093 C 
BRANCH   4   5
HETATM    5  N1  UNL     1      26.842  -0.800  53.719  1.00  0.00    -0.334 N 
HETATM    6  C3  UNL     1      27.934  -0.064  54.251  1.00  0.00     0.244 C 
HETATM    7  O1  UNL     1      27.676   0.939  54.956  1.00  0.00    -0.268 OA
HETATM    8  H4  UNL     1      27.197  -1.621  53.143  1.00  0.00     0.168 HD
BRANCH   6   9
HETATM    9  C2  UNL     1      29.329  -0.418  54.019  1.00  0.00     0.064 C 
HETATM   10  C1  UNL     1      29.774  -1.519  53.445  1.00  0.00     0.017 C 
ENDBRANCH   6   9
ENDBRANCH   4   5
ENDBRANCH   1   3
BRANCH   1  11
HETATM   11  N2  UNL     1      22.397   1.373  52.913  1.00  0.00    -0.187 N 
HETATM   12  H11 UNL     1      21.924   1.962  53.660  1.00  0.00     0.184 HD
BRANCH  11  13
HETATM   13  C9  UNL     1      22.203   1.530  51.491  1.00  0.00     0.744 A 
HETATM   14  N3  UNL     1      21.612   0.668  50.648  1.00  0.00    -0.071 NA
HETATM   15  C10 UNL     1      21.471   0.907  49.341  1.00  0.00     0.168 A 
HETATM   16  C11 UNL     1      21.950   2.090  48.815  1.00  0.00     0.077 A 
HETATM   17  C12 UNL     1      21.950   2.613  47.527  1.00  0.00     0.035 A 
HETATM   18  N4  UNL     1      22.540   2.943  49.679  1.00  0.00    -0.222 N 
HETATM   19  C13 UNL     1      22.570   3.838  47.624  1.00  0.00     0.029 A 
HETATM   20  C14 UNL     1      22.923   4.014  48.962  1.00  0.00     0.033 A 
HETATM   21  C15 UNL     1      23.617   5.256  49.396  1.00  0.00     0.070 C 
HETATM   22  N5  UNL     1      22.667   2.680  50.974  1.00  0.00     0.026 NA
ENDBRANCH  11  13
ENDBRANCH   1  11
BRANCH   2  23
HETATM   23  C8  UNL     1      21.157  -0.546  54.436  1.00  0.00     0.194 C 
BRANCH  23  24
HETATM   24  O2  UNL     1      20.871  -1.827  54.922  1.00  0.00    -0.397 OA
HETATM   25  H10 UNL     1      21.728  -2.343  54.925  1.00  0.00     0.209 HD
ENDBRANCH  23  24
ENDBRANCH   2  23
TORSDOF 7
ENDMDL
MODEL 8
REMARK VINA RESULT:      -6.2      5.846      8.647
REMARK  7 active torsions:
REMARK  status: ('A' for Active; 'I' for Inactive)
REMARK    1  A    between atoms: C2_2  and  C3_3 
REMARK       I    between atoms: C3_3  and  N1_5 
REMARK    2  A    between atoms: N1_5  and  C4_6 
REMARK    3  A    between atoms: C5_7  and  C6_8 
REMARK    4  A    between atoms: C6_8  and  N2_12 
REMARK    5  A    between atoms: C7_9  and  C8_10 
REMARK    6  A    between atoms: C8_10  and  O2_11 
REMARK    7  A    between atoms: N2_12  and  C9_13 
ROOT
HETATM    1  C6  UNL     1      29.671   7.187  48.217  1.00  0.00     0.049 C 
HETATM    2  C7  UNL     1      29.963   8.324  48.827  1.00  0.00     0.029 C 
ENDROOT
BRANCH   1   3
HETATM    3  C5  UNL     1      30.635   6.151  47.953  1.00  0.00     0.047 C 
HETATM    4  C4  UNL     1      31.588   5.883  48.810  1.00  0.00     0.093 C 
BRANCH   4   5
HETATM    5  N1  UNL     1      32.592   4.898  48.668  1.00  0.00    -0.334 N 
HETATM    6  C3  UNL     1      33.806   4.939  47.931  1.00  0.00     0.244 C 
HETATM    7  O1  UNL     1      34.068   5.985  47.295  1.00  0.00    -0.268 OA
HETATM    8  H4  UNL     1      32.491   3.959  49.159  1.00  0.00     0.168 HD
BRANCH   6   9
HETATM    9  C2  UNL     1      34.751   3.831  47.882  1.00  0.00     0.064 C 
HETATM   10  C1  UNL     1      35.122   3.162  46.807  1.00  0.00     0.017 C 
ENDBRANCH   6   9
ENDBRANCH   4   5
ENDBRANCH   1   3
BRANCH   1  11
HETATM   11  N2  UNL     1      28.262   7.216  47.904  1.00  0.00    -0.187 N 
HETATM   12  H11 UNL     1      27.940   7.926  47.183  1.00  0.00     0.184 HD
BRANCH  11  13
HETATM   13  C9  UNL     1      27.399   6.284  48.590  1.00  0.00     0.744 A 
HETATM   14  N3  UNL     1      27.518   4.948  48.643  1.00  0.00    -0.071 NA
HETATM   15  C10 UNL     1      26.670   4.165  49.316  1.00  0.00     0.168 A 
HETATM   16  C11 UNL     1      25.615   4.740  49.994  1.00  0.00     0.077 A 
HETATM   17  C12 UNL     1      24.591   4.203  50.766  1.00  0.00     0.035 A 
HETATM   18  N4  UNL     1      25.512   6.084  49.929  1.00  0.00    -0.222 N 
HETATM   19  C13 UNL     1      23.839   5.278  51.185  1.00  0.00     0.029 A 
HETATM   20  C14 UNL     1      24.431   6.425  50.653  1.00  0.00     0.033 A 
HETATM   21  C15 UNL     1      23.847   7.764  50.928  1.00  0.00     0.070 C 
HETATM   22  N5  UNL     1      26.370   6.838  49.253  1.00  0.00     0.026 NA
ENDBRANCH  11  13
ENDBRANCH   1  11
BRANCH   2  23
HETATM   23  C8  UNL     1      29.124   9.489  49.181  1.00  0.00     0.194 C 
BRANCH  23  24
HETATM   24  O2  UNL     1      28.414   9.157  50.341  1.00  0.00    -0.397 OA
HETATM   25  H10 UNL     1      27.906   8.317  50.149  1.00  0.00     0.209 HD
ENDBRANCH  23  24
ENDBRANCH   2  23
TORSDOF 7
ENDMDL
MODEL 9
REMARK VINA RESULT:      -6.1      5.530      8.105
REMARK  7 active torsions:
REMARK  status: ('A' for Active; 'I' for Inactive)
REMARK    1  A    between atoms: C2_2  and  C3_3 
REMARK       I    between atoms: C3_3  and  N1_5 
REMARK    2  A    between atoms: N1_5  and  C4_6 
REMARK    3  A    between atoms: C5_7  and  C6_8 
REMARK    4  A    between atoms: C6_8  and  N2_12 
REMARK    5  A    between atoms: C7_9  and  C8_10 
REMARK    6  A    between atoms: C8_10  and  O2_11 
REMARK    7  A    between atoms: N2_12  and  C9_13 
ROOT
HETATM    1  C6  UNL     1      27.548   7.286  48.930  1.00  0.00     0.049 C 
HETATM    2  C7  UNL     1      27.780   8.585  49.016  1.00  0.00     0.029 C 
ENDROOT
BRANCH   1   3
HETATM    3  C5  UNL     1      28.255   6.404  48.039  1.00  0.00     0.047 C 
HETATM    4  C4  UNL     1      29.391   5.858  48.393  1.00  0.00     0.093 C 
BRANCH   4   5
HETATM    5  N1  UNL     1      30.180   4.981  47.614  1.00  0.00    -0.334 N 
HETATM    6  C3  UNL     1      31.561   4.666  47.721  1.00  0.00     0.244 C 
HETATM    7  O1  UNL     1      32.220   5.225  48.629  1.00  0.00    -0.268 OA
HETATM    8  H4  UNL     1      29.741   4.443  46.808  1.00  0.00     0.168 HD
BRANCH   6   9
HETATM    9  C2  UNL     1      32.241   3.731  46.834  1.00  0.00     0.064 C 
HETATM   10  C1  UNL     1      32.919   2.658  47.195  1.00  0.00     0.017 C 
ENDBRANCH   6   9
ENDBRANCH   4   5
ENDBRANCH   1   3
BRANCH   1  11
HETATM   11  N2  UNL     1      26.499   6.974  49.873  1.00  0.00    -0.187 N 
HETATM   12  H11 UNL     1      26.361   7.644  50.685  1.00  0.00     0.184 HD
BRANCH  11  13
HETATM   13  C9  UNL     1      25.719   5.781  49.644  1.00  0.00     0.744 A 
HETATM   14  N3  UNL     1      25.951   4.549  50.125  1.00  0.00    -0.071 NA
HETATM   15  C10 UNL     1      25.162   3.503  49.864  1.00  0.00     0.168 A 
HETATM   16  C11 UNL     1      24.052   3.678  49.063  1.00  0.00     0.077 A 
HETATM   17  C12 UNL     1      23.064   2.803  48.624  1.00  0.00     0.035 A 
HETATM   18  N4  UNL     1      23.836   4.923  48.589  1.00  0.00    -0.222 N 
HETATM   19  C13 UNL     1      22.215   3.563  47.850  1.00  0.00     0.029 A 
HETATM   20  C14 UNL     1      22.716   4.865  47.847  1.00  0.00     0.033 A 
HETATM   21  C15 UNL     1      22.013   5.935  47.092  1.00  0.00     0.070 C 
HETATM   22  N5  UNL     1      24.637   5.945  48.866  1.00  0.00     0.026 NA
ENDBRANCH  11  13
ENDBRANCH   1  11
BRANCH   2  23
HETATM   23  C8  UNL     1      27.168   9.637  49.856  1.00  0.00     0.194 C 
BRANCH  23  24
HETATM   24  O2  UNL     1      27.660   9.475  51.155  1.00  0.00    -0.397 OA
HETATM   25  H10 UNL     1      26.891   9.204  51.734  1.00  0.00     0.209 HD
ENDBRANCH  23  24
ENDBRANCH   2  23
TORSDOF 7
ENDMDL
