MODEL 1
REMARK VINA RESULT:      -8.1      0.000      0.000
REMARK  5 active torsions:
REMARK  status: ('A' for Active; 'I' for Inactive)
REMARK    1  A    between atoms: O1_2  and  C2_3 
REMARK    2  A    between atoms: C3_4  and  C4_5 
REMARK    3  A    between atoms: C4_5  and  C5_6 
REMARK    4  A    between atoms: C7_10  and  C8_11 
REMARK    5  A    between atoms: C8_11  and  O3_13 
ROOT
HETATM    1  C5  UNL     1      26.300   4.246  49.929  1.00  0.00     0.007 C 
HETATM    2  N1  UNL     1      27.098   3.425  50.503  1.00  0.00    -0.213 NA
HETATM    3  N2  UNL     1      26.901   2.592  51.574  1.00  0.00    -0.218 NA
HETATM    4  C6  UNL     1      27.790   2.435  52.732  1.00  0.00     0.092 C 
HETATM    5  C7  UNL     1      27.667   1.230  53.318  1.00  0.00     0.053 C 
HETATM    6  C9  UNL     1      26.682   0.232  52.761  1.00  0.00     0.247 C 
HETATM    7  O4  UNL     1      25.743  -0.085  53.735  1.00  0.00    -0.276 OA
HETATM    8  N3  UNL     1      24.547  -0.405  53.191  1.00  0.00    -0.278 N 
HETATM    9  C10 UNL     1      23.933   0.806  52.758  1.00  0.00     0.114 C 
HETATM   10  C11 UNL     1      23.039   1.796  52.652  1.00  0.00     0.022 C 
HETATM   11  C12 UNL     1      22.368   3.035  52.237  1.00  0.00     0.045 C 
HETATM   12  C13 UNL     1      22.879   3.874  51.351  1.00  0.00     0.138 C 
HETATM   13  F1  UNL     1      21.731   4.637  51.539  1.00  0.00    -0.204 F 
HETATM   14  C14 UNL     1      23.605   4.707  50.394  1.00  0.00     0.074 C 
HETATM   15 CL1  UNL     1      22.678   5.992  49.518  1.00  0.00    -0.081 Cl
HETATM   16  C15 UNL     1      24.877   4.605  50.071  1.00  0.00     0.047 C 
HETATM   17  H8  UNL     1      27.727   3.214  51.426  1.00  0.00     0.262 HD
HETATM   18  H13 UNL     1      23.638  -0.764  52.789  1.00  0.00     0.193 HD
ENDROOT
BRANCH   1  19
HETATM   19  C4  UNL     1      27.147   4.843  48.826  1.00  0.00     0.081 C 
BRANCH  19  20
HETATM   20  C3  UNL     1      26.845   6.235  48.541  1.00  0.00     0.003 C 
HETATM   21  C2  UNL     1      27.781   7.108  48.301  1.00  0.00     0.130 C 
BRANCH  21  22
HETATM   22  O1  UNL     1      29.077   6.615  48.337  1.00  0.00    -0.368 OA
HETATM   23  C1  UNL     1      30.237   7.382  48.526  1.00  0.00     0.208 C 
ENDBRANCH  21  22
ENDBRANCH  19  20
ENDBRANCH   1  19
BRANCH   5  24
HETATM   24  C8  UNL     1      28.391   0.738  54.481  1.00  0.00     0.175 C 
HETATM   25  O2  UNL     1      29.115   1.466  55.229  1.00  0.00    -0.646 OA
BRANCH  24  26
HETATM   26  O3  UNL     1      28.390  -0.561  54.923  1.00  0.00    -0.773 OA
HETATM   27  H10 UNL     1      28.960  -1.290  54.467  1.00  0.00     0.167 HD
ENDBRANCH  24  26
ENDBRANCH   5  24
TORSDOF 5
ENDMDL
MODEL 2
REMARK VINA RESULT:      -7.8      1.997      2.625
REMARK  5 active torsions:
REMARK  status: ('A' for Active; 'I' for Inactive)
REMARK    1  A    between atoms: O1_2  and  C2_3 
REMARK    2  A    between atoms: C3_4  and  C4_5 
REMARK    3  A    between atoms: C4_5  and  C5_6 
REMARK    4  A    between atoms: C7_10  and  C8_11 
REMARK    5  A    between atoms: C8_11  and  O3_13 
ROOT
HETATM    1  C5  UNL     1      24.180   2.889  50.418  1.00  0.00     0.007 C 
HETATM    2  N1  UNL     1      25.416   2.640  50.645  1.00  0.00    -0.213 NA
HETATM    3  N2  UNL     1      26.013   1.960  51.675  1.00  0.00    -0.218 NA
HETATM    4  C6  UNL     1      27.176   2.403  52.454  1.00  0.00     0.092 C 
HETATM    5  C7  UNL     1      27.865   1.376  52.984  1.00  0.00     0.053 C 
HETATM    6  C9  UNL     1      27.392  -0.037  52.743  1.00  0.00     0.247 C 
HETATM    7  O4  UNL     1      27.102  -0.642  53.960  1.00  0.00    -0.276 OA
HETATM    8  N3  UNL     1      26.125  -1.569  53.837  1.00  0.00    -0.278 N 
HETATM    9  C10 UNL     1      24.887  -0.873  53.700  1.00  0.00     0.114 C 
HETATM   10  C11 UNL     1      23.639  -0.465  53.954  1.00  0.00     0.022 C 
HETATM   11  C12 UNL     1      22.348   0.229  53.855  1.00  0.00     0.045 C 
HETATM   12  C13 UNL     1      22.060   1.090  52.893  1.00  0.00     0.138 C 
HETATM   13  F1  UNL     1      20.814   1.217  53.497  1.00  0.00    -0.204 F 
HETATM   14  C14 UNL     1      21.925   2.040  51.790  1.00  0.00     0.074 C 
HETATM   15 CL1  UNL     1      20.259   2.590  51.347  1.00  0.00    -0.081 Cl
HETATM   16  C15 UNL     1      22.899   2.528  51.051  1.00  0.00     0.047 C 
HETATM   17  H8  UNL     1      26.322   2.879  51.288  1.00  0.00     0.262 HD
HETATM   18  H13 UNL     1      25.443  -2.371  53.749  1.00  0.00     0.193 HD
ENDROOT
BRANCH   1  19
HETATM   19  C4  UNL     1      24.215   3.676  49.125  1.00  0.00     0.081 C 
BRANCH  19  20
HETATM   20  C3  UNL     1      24.363   5.109  49.313  1.00  0.00     0.003 C 
HETATM   21  C2  UNL     1      25.530   5.685  49.333  1.00  0.00     0.130 C 
BRANCH  21  22
HETATM   22  O1  UNL     1      26.614   4.837  49.162  1.00  0.00    -0.368 OA
HETATM   23  C1  UNL     1      27.812   5.164  48.508  1.00  0.00     0.208 C 
ENDBRANCH  21  22
ENDBRANCH  19  20
ENDBRANCH   1  19
BRANCH   5  24
HETATM   24  C8  UNL     1      29.063   1.449  53.807  1.00  0.00     0.175 C 
HETATM   25  O2  UNL     1      29.258   2.328  54.704  1.00  0.00    -0.646 OA
BRANCH  24  26
HETATM   26  O3  UNL     1      30.132   0.592  53.728  1.00  0.00    -0.773 OA
HETATM   27  H10 UNL     1      30.011  -0.407  53.501  1.00  0.00     0.167 HD
ENDBRANCH  24  26
ENDBRANCH   5  24
TORSDOF 5
ENDMDL
MODEL 3
REMARK VINA RESULT:      -7.8      3.343      6.601
REMARK  5 active torsions:
REMARK  status: ('A' for Active; 'I' for Inactive)
REMARK    1  A    between atoms: O1_2  and  C2_3 
REMARK    2  A    between atoms: C3_4  and  C4_5 
REMARK    3  A    between atoms: C4_5  and  C5_6 
REMARK    4  A    between atoms: C7_10  and  C8_11 
REMARK    5  A    between atoms: C8_11  and  O3_13 
ROOT
HETATM    1  C5  UNL     1      24.653   0.439  53.288  1.00  0.00     0.007 C 
HETATM    2  N1  UNL     1      25.252   1.408  52.702  1.00  0.00    -0.213 NA
HETATM    3  N2  UNL     1      24.751   2.449  51.964  1.00  0.00    -0.218 NA
HETATM    4  C6  UNL     1      25.239   2.908  50.658  1.00  0.00     0.092 C 
HETATM    5  C7  UNL     1      24.968   4.207  50.431  1.00  0.00     0.053 C 
HETATM    6  C9  UNL     1      24.229   5.003  51.478  1.00  0.00     0.247 C 
HETATM    7  O4  UNL     1      23.041   5.484  50.940  1.00  0.00    -0.276 OA
HETATM    8  N3  UNL     1      22.081   5.613  51.884  1.00  0.00    -0.278 N 
HETATM    9  C10 UNL     1      21.604   4.305  52.194  1.00  0.00     0.114 C 
HETATM   10  C11 UNL     1      20.764   3.273  52.340  1.00  0.00     0.022 C 
HETATM   11  C12 UNL     1      20.228   1.941  52.644  1.00  0.00     0.045 C 
HETATM   12  C13 UNL     1      20.969   0.950  53.113  1.00  0.00     0.138 C 
HETATM   13  F1  UNL     1      19.802   0.193  53.117  1.00  0.00    -0.204 F 
HETATM   14  C14 UNL     1      21.937  -0.040  53.582  1.00  0.00     0.074 C 
HETATM   15 CL1  UNL     1      21.299  -1.533  54.381  1.00  0.00    -0.081 Cl
HETATM   16  C15 UNL     1      23.249   0.051  53.513  1.00  0.00     0.047 C 
HETATM   17  H8  UNL     1      25.567   1.853  51.704  1.00  0.00     0.262 HD
HETATM   18  H13 UNL     1      21.350   5.825  52.617  1.00  0.00     0.193 HD
ENDROOT
BRANCH   1  19
HETATM   19  C4  UNL     1      25.787  -0.348  53.909  1.00  0.00     0.081 C 
BRANCH  19  20
HETATM   20  C3  UNL     1      26.688   0.457  54.716  1.00  0.00     0.003 C 
HETATM   21  C2  UNL     1      27.952   0.169  54.831  1.00  0.00     0.130 C 
BRANCH  21  22
HETATM   22  O1  UNL     1      28.373  -0.953  54.134  1.00  0.00    -0.368 OA
HETATM   23  C1  UNL     1      29.618  -1.105  53.506  1.00  0.00     0.208 C 
ENDBRANCH  21  22
ENDBRANCH  19  20
ENDBRANCH   1  19
BRANCH   5  24
HETATM   24  C8  UNL     1      25.306   4.984  49.248  1.00  0.00     0.175 C 
HETATM   25  O2  UNL     1      26.484   5.106  48.790  1.00  0.00    -0.646 OA
BRANCH  24  26
HETATM   26  O3  UNL     1      24.411   5.680  48.476  1.00  0.00    -0.773 OA
HETATM   27  H10 UNL     1      24.632   6.615  48.099  1.00  0.00     0.167 HD
ENDBRANCH  24  26
ENDBRANCH   5  24
TORSDOF 5
ENDMDL
MODEL 4
REMARK VINA RESULT:      -7.7      2.633      6.624
REMARK  5 active torsions:
REMARK  status: ('A' for Active; 'I' for Inactive)
REMARK    1  A    between atoms: O1_2  and  C2_3 
REMARK    2  A    between atoms: C3_4  and  C4_5 
REMARK    3  A    between atoms: C4_5  and  C5_6 
REMARK    4  A    between atoms: C7_10  and  C8_11 
REMARK    5  A    between atoms: C8_11  and  O3_13 
ROOT
HETATM    1  C5  UNL     1      25.940   2.286  51.745  1.00  0.00     0.007 C 
HETATM    2  N1  UNL     1      26.507   3.266  51.145  1.00  0.00    -0.213 NA
HETATM    3  N2  UNL     1      25.970   4.382  50.557  1.00  0.00    -0.218 NA
HETATM    4  C6  UNL     1      26.299   4.911  49.227  1.00  0.00     0.092 C 
HETATM    5  C7  UNL     1      26.074   6.235  49.128  1.00  0.00     0.053 C 
HETATM    6  C9  UNL     1      25.534   6.986  50.320  1.00  0.00     0.247 C 
HETATM    7  O4  UNL     1      24.313   7.562  49.990  1.00  0.00    -0.276 OA
HETATM    8  N3  UNL     1      23.502   7.666  51.067  1.00  0.00    -0.278 N 
HETATM    9  C10 UNL     1      22.998   6.364  51.355  1.00  0.00     0.114 C 
HETATM   10  C11 UNL     1      22.128   5.365  51.549  1.00  0.00     0.022 C 
HETATM   11  C12 UNL     1      21.563   4.041  51.838  1.00  0.00     0.045 C 
HETATM   12  C13 UNL     1      22.303   2.985  52.129  1.00  0.00     0.138 C 
HETATM   13  F1  UNL     1      21.107   2.285  52.249  1.00  0.00    -0.204 F 
HETATM   14  C14 UNL     1      23.268   1.918  52.390  1.00  0.00     0.074 C 
HETATM   15 CL1  UNL     1      22.662   0.401  53.170  1.00  0.00    -0.081 Cl
HETATM   16  C15 UNL     1      24.561   1.950  52.141  1.00  0.00     0.047 C 
HETATM   17  H8  UNL     1      26.707   3.767  50.145  1.00  0.00     0.262 HD
HETATM   18  H13 UNL     1      22.893   7.859  51.909  1.00  0.00     0.193 HD
ENDROOT
BRANCH   1  19
HETATM   19  C4  UNL     1      27.102   1.403  52.145  1.00  0.00     0.081 C 
BRANCH  19  20
HETATM   20  C3  UNL     1      26.771  -0.010  52.210  1.00  0.00     0.003 C 
HETATM   21  C2  UNL     1      27.435  -0.840  52.962  1.00  0.00     0.130 C 
BRANCH  21  22
HETATM   22  O1  UNL     1      28.473  -0.281  53.691  1.00  0.00    -0.368 OA
HETATM   23  C1  UNL     1      29.816  -0.688  53.643  1.00  0.00     0.208 C 
ENDBRANCH  21  22
ENDBRANCH  19  20
ENDBRANCH   1  19
BRANCH   5  24
HETATM   24  C8  UNL     1      26.289   7.080  47.964  1.00  0.00     0.175 C 
HETATM   25  O2  UNL     1      27.435   7.380  47.504  1.00  0.00    -0.646 OA
BRANCH  24  26
HETATM   26  O3  UNL     1      25.298   7.660  47.213  1.00  0.00    -0.773 OA
HETATM   27  H10 UNL     1      24.515   8.172  47.649  1.00  0.00     0.167 HD
ENDBRANCH  24  26
ENDBRANCH   5  24
TORSDOF 5
ENDMDL
MODEL 5
REMARK VINA RESULT:      -7.5      4.047      7.717
REMARK  5 active torsions:
REMARK  status: ('A' for Active; 'I' for Inactive)
REMARK    1  A    between atoms: O1_2  and  C2_3 
REMARK    2  A    between atoms: C3_4  and  C4_5 
REMARK    3  A    between atoms: C4_5  and  C5_6 
REMARK    4  A    between atoms: C7_10  and  C8_11 
REMARK    5  A    between atoms: C8_11  and  O3_13 
ROOT
HETATM    1  C5  UNL     1      21.479   2.174  52.395  1.00  0.00     0.007 C 
HETATM    2  N1  UNL     1      21.723   3.274  51.784  1.00  0.00    -0.213 NA
HETATM    3  N2  UNL     1      22.916   3.881  51.486  1.00  0.00    -0.218 NA
HETATM    4  C6  UNL     1      23.254   5.294  51.702  1.00  0.00     0.092 C 
HETATM    5  C7  UNL     1      24.209   5.732  50.860  1.00  0.00     0.053 C 
HETATM    6  C9  UNL     1      24.800   4.779  49.851  1.00  0.00     0.247 C 
HETATM    7  O4  UNL     1      26.167   4.661  50.072  1.00  0.00    -0.276 OA
HETATM    8  N3  UNL     1      26.629   3.443  49.709  1.00  0.00    -0.278 N 
HETATM    9  C10 UNL     1      26.220   2.511  50.708  1.00  0.00     0.114 C 
HETATM   10  C11 UNL     1      26.294   1.586  51.672  1.00  0.00     0.022 C 
HETATM   11  C12 UNL     1      25.921   0.617  52.710  1.00  0.00     0.045 C 
HETATM   12  C13 UNL     1      24.667   0.367  53.051  1.00  0.00     0.138 C 
HETATM   13  F1  UNL     1      25.187  -0.550  53.959  1.00  0.00    -0.204 F 
HETATM   14  C14 UNL     1      23.237   0.244  53.331  1.00  0.00     0.074 C 
HETATM   15 CL1  UNL     1      22.678  -1.207  54.255  1.00  0.00    -0.081 Cl
HETATM   16  C15 UNL     1      22.289   1.077  52.952  1.00  0.00     0.047 C 
HETATM   17  H8  UNL     1      22.074   4.350  51.889  1.00  0.00     0.262 HD
HETATM   18  H13 UNL     1      27.034   2.542  49.333  1.00  0.00     0.193 HD
ENDROOT
BRANCH   1  19
HETATM   19  C4  UNL     1      19.967   2.100  52.387  1.00  0.00     0.081 C 
BRANCH  19  20
HETATM   20  C3  UNL     1      19.420   1.383  51.249  1.00  0.00     0.003 C 
HETATM   21  C2  UNL     1      18.999   0.155  51.345  1.00  0.00     0.130 C 
BRANCH  21  22
HETATM   22  O1  UNL     1      19.110  -0.414  52.604  1.00  0.00    -0.368 OA
HETATM   23  C1  UNL     1      18.125  -1.184  53.242  1.00  0.00     0.208 C 
ENDBRANCH  21  22
ENDBRANCH  19  20
ENDBRANCH   1  19
BRANCH   5  24
HETATM   24  C8  UNL     1      24.780   7.068  50.795  1.00  0.00     0.175 C 
HETATM   25  O2  UNL     1      24.092   8.132  50.695  1.00  0.00    -0.646 OA
BRANCH  24  26
HETATM   26  O3  UNL     1      26.120   7.359  50.832  1.00  0.00    -0.773 OA
HETATM   27  H10 UNL     1      26.627   7.690  49.997  1.00  0.00     0.167 HD
ENDBRANCH  24  26
ENDBRANCH   5  24
TORSDOF 5
ENDMDL
MODEL 6
REMARK VINA RESULT:      -7.3      3.333      5.958
REMARK  5 active torsions:
REMARK  status: ('A' for Active; 'I' for Inactive)
REMARK    1  A    between atoms: O1_2  and  C2_3 
REMARK    2  A    between atoms: C3_4  and  C4_5 
REMARK    3  A    between atoms: C4_5  and  C5_6 
REMARK    4  A    between atoms: C7_10  and  C8_11 
REMARK    5  A    between atoms: C8_11  and  O3_13 
ROOT
HETATM    1  C5  UNL     1      26.261   1.479  51.811  1.00  0.00     0.007 C 
HETATM    2  N1  UNL     1      25.391   0.763  52.419  1.00  0.00    -0.213 NA
HETATM    3  N2  UNL     1      24.021   0.786  52.361  1.00  0.00    -0.218 NA
HETATM    4  C6  UNL     1      23.100   0.777  53.505  1.00  0.00     0.092 C 
HETATM    5  C7  UNL     1      21.895   0.263  53.194  1.00  0.00     0.053 C 
HETATM    6  C9  UNL     1      21.633  -0.212  51.786  1.00  0.00     0.247 C 
HETATM    7  O4  UNL     1      20.578   0.512  51.242  1.00  0.00    -0.276 OA
HETATM    8  N3  UNL     1      20.695   0.633  49.900  1.00  0.00    -0.278 N 
HETATM    9  C10 UNL     1      21.710   1.602  49.643  1.00  0.00     0.114 C 
HETATM   10  C11 UNL     1      22.303   2.713  49.191  1.00  0.00     0.022 C 
HETATM   11  C12 UNL     1      23.314   3.738  48.902  1.00  0.00     0.045 C 
HETATM   12  C13 UNL     1      24.572   3.648  49.300  1.00  0.00     0.138 C 
HETATM   13  F1  UNL     1      24.772   4.869  48.663  1.00  0.00    -0.204 F 
HETATM   14  C14 UNL     1      25.905   3.409  49.851  1.00  0.00     0.074 C 
HETATM   15 CL1  UNL     1      27.282   4.376  49.185  1.00  0.00    -0.081 Cl
HETATM   16  C15 UNL     1      26.225   2.531  50.779  1.00  0.00     0.047 C 
HETATM   17  H8  UNL     1      24.596   0.735  53.231  1.00  0.00     0.262 HD
HETATM   18  H13 UNL     1      20.705   0.649  48.844  1.00  0.00     0.193 HD
ENDROOT
BRANCH   1  19
HETATM   19  C4  UNL     1      27.578   0.940  52.328  1.00  0.00     0.081 C 
BRANCH  19  20
HETATM   20  C3  UNL     1      27.842   1.268  53.718  1.00  0.00     0.003 C 
HETATM   21  C2  UNL     1      28.325   0.392  54.552  1.00  0.00     0.130 C 
BRANCH  21  22
HETATM   22  O1  UNL     1      28.566  -0.865  54.021  1.00  0.00    -0.368 OA
HETATM   23  C1  UNL     1      29.824  -1.372  53.661  1.00  0.00     0.208 C 
ENDBRANCH  21  22
ENDBRANCH  19  20
ENDBRANCH   1  19
BRANCH   5  24
HETATM   24  C8  UNL     1      20.751   0.103  54.078  1.00  0.00     0.175 C 
HETATM   25  O2  UNL     1      20.551   0.805  55.118  1.00  0.00    -0.646 OA
BRANCH  24  26
HETATM   26  O3  UNL     1      19.745  -0.816  53.914  1.00  0.00    -0.773 OA
HETATM   27  H10 UNL     1      19.586  -1.575  54.594  1.00  0.00     0.167 HD
ENDBRANCH  24  26
ENDBRANCH   5  24
TORSDOF 5
ENDMDL
MODEL 7
REMARK VINA RESULT:      -7.3      3.296      7.697
REMARK  5 active torsions:
REMARK  status: ('A' for Active; 'I' for Inactive)
REMARK    1  A    between atoms: O1_2  and  C2_3 
REMARK    2  A    between atoms: C3_4  and  C4_5 
REMARK    3  A    between atoms: C4_5  and  C5_6 
REMARK    4  A    between atoms: C7_10  and  C8_11 
REMARK    5  A    between atoms: C8_11  and  O3_13 
ROOT
HETATM    1  C5  UNL     1      27.134   5.028  48.976  1.00  0.00     0.007 C 
HETATM    2  N1  UNL     1      28.414   5.067  48.942  1.00  0.00    -0.213 NA
HETATM    3  N2  UNL     1      29.268   6.119  48.732  1.00  0.00    -0.218 NA
HETATM    4  C6  UNL     1      30.418   6.140  47.820  1.00  0.00     0.092 C 
HETATM    5  C7  UNL     1      31.361   7.025  48.197  1.00  0.00     0.053 C 
HETATM    6  C9  UNL     1      31.144   7.855  49.438  1.00  0.00     0.247 C 
HETATM    7  O4  UNL     1      31.148   9.203  49.099  1.00  0.00    -0.276 OA
HETATM    8  N3  UNL     1      30.363   9.928  49.928  1.00  0.00    -0.278 N 
HETATM    9  C10 UNL     1      29.007   9.673  49.569  1.00  0.00     0.114 C 
HETATM   10  C11 UNL     1      27.749   9.890  49.166  1.00  0.00     0.022 C 
HETATM   11  C12 UNL     1      26.347   9.675  48.787  1.00  0.00     0.045 C 
HETATM   12  C13 UNL     1      25.767   8.487  48.798  1.00  0.00     0.138 C 
HETATM   13  F1  UNL     1      24.614   9.139  48.373  1.00  0.00    -0.204 F 
HETATM   14  C14 UNL     1      25.298   7.102  48.827  1.00  0.00     0.074 C 
HETATM   15 CL1  UNL     1      23.512   6.812  48.804  1.00  0.00    -0.081 Cl
HETATM   16  C15 UNL     1      26.048   6.021  48.898  1.00  0.00     0.047 C 
HETATM   17  H8  UNL     1      29.335   5.178  48.285  1.00  0.00     0.262 HD
HETATM   18  H13 UNL     1      29.845  10.532  50.624  1.00  0.00     0.193 HD
ENDROOT
BRANCH   1  19
HETATM   19  C4  UNL     1      26.836   3.568  49.243  1.00  0.00     0.081 C 
BRANCH  19  20
HETATM   20  C3  UNL     1      25.745   3.352  50.177  1.00  0.00     0.003 C 
HETATM   21  C2  UNL     1      25.932   2.793  51.337  1.00  0.00     0.130 C 
BRANCH  21  22
HETATM   22  O1  UNL     1      27.238   2.421  51.615  1.00  0.00    -0.368 OA
HETATM   23  C1  UNL     1      27.743   2.096  52.884  1.00  0.00     0.208 C 
ENDBRANCH  21  22
ENDBRANCH  19  20
ENDBRANCH   1  19
BRANCH   5  24
HETATM   24  C8  UNL     1      32.622   7.305  47.529  1.00  0.00     0.175 C 
HETATM   25  O2  UNL     1      33.244   6.469  46.801  1.00  0.00    -0.646 OA
BRANCH  24  26
HETATM   26  O3  UNL     1      33.305   8.493  47.593  1.00  0.00    -0.773 OA
HETATM   27  H10 UNL     1      34.210   8.574  48.082  1.00  0.00     0.167 HD
ENDBRANCH  24  26
ENDBRANCH   5  24
TORSDOF 5
ENDMDL
MODEL 8
REMARK VINA RESULT:      -7.2      4.421      6.167
REMARK  5 active torsions:
REMARK  status: ('A' for Active; 'I' for Inactive)
REMARK    1  A    between atoms: O1_2  and  C2_3 
REMARK    2  A    between atoms: C3_4  and  C4_5 
REMARK    3  A    between atoms: C4_5  and  C5_6 
REMARK    4  A    between atoms: C7_10  and  C8_11 
REMARK    5  A    between atoms: C8_11  and  O3_13 
ROOT
HETATM    1  C5  UNL     1      22.869   3.433  51.741  1.00  0.00     0.007 C 
HETATM    2  N1  UNL     1      21.789   2.947  52.229  1.00  0.00    -0.213 NA
HETATM    3  N2  UNL     1      21.512   1.689  52.700  1.00  0.00    -0.218 NA
HETATM    4  C6  UNL     1      20.338   0.872  52.368  1.00  0.00     0.092 C 
HETATM    5  C7  UNL     1      20.037  -0.017  53.334  1.00  0.00     0.053 C 
HETATM    6  C9  UNL     1      20.892  -0.080  54.575  1.00  0.00     0.247 C 
HETATM    7  O4  UNL     1      21.450  -1.348  54.688  1.00  0.00    -0.276 OA
HETATM    8  N3  UNL     1      22.648  -1.313  55.315  1.00  0.00    -0.278 N 
HETATM    9  C10 UNL     1      23.603  -0.794  54.392  1.00  0.00     0.114 C 
HETATM   10  C11 UNL     1      24.686  -0.721  53.610  1.00  0.00     0.022 C 
HETATM   11  C12 UNL     1      25.695  -0.229  52.662  1.00  0.00     0.045 C 
HETATM   12  C13 UNL     1      25.630   0.959  52.086  1.00  0.00     0.138 C 
HETATM   13  F1  UNL     1      26.825   0.626  51.458  1.00  0.00    -0.204 F 
HETATM   14  C14 UNL     1      25.380   2.280  51.510  1.00  0.00     0.074 C 
HETATM   15 CL1  UNL     1      26.760   3.123  50.697  1.00  0.00    -0.081 Cl
HETATM   16  C15 UNL     1      24.247   2.949  51.542  1.00  0.00     0.047 C 
HETATM   17  H8  UNL     1      20.910   2.248  52.056  1.00  0.00     0.262 HD
HETATM   18  H13 UNL     1      23.531  -1.326  55.897  1.00  0.00     0.193 HD
ENDROOT
BRANCH   1  19
HETATM   19  C4  UNL     1      22.492   4.863  51.416  1.00  0.00     0.081 C 
BRANCH  19  20
HETATM   20  C3  UNL     1      23.574   5.813  51.604  1.00  0.00     0.003 C 
HETATM   21  C2  UNL     1      23.681   6.888  50.878  1.00  0.00     0.130 C 
BRANCH  21  22
HETATM   22  O1  UNL     1      22.694   7.059  49.919  1.00  0.00    -0.368 OA
HETATM   23  C1  UNL     1      21.914   8.213  49.746  1.00  0.00     0.208 C 
ENDBRANCH  21  22
ENDBRANCH  19  20
ENDBRANCH   1  19
BRANCH   5  24
HETATM   24  C8  UNL     1      18.945  -0.978  53.337  1.00  0.00     0.175 C 
HETATM   25  O2  UNL     1      17.952  -0.929  52.545  1.00  0.00    -0.646 OA
BRANCH  24  26
HETATM   26  O3  UNL     1      18.838  -2.053  54.182  1.00  0.00    -0.773 OA
HETATM   27  H10 UNL     1      19.639  -2.385  54.742  1.00  0.00     0.167 HD
ENDBRANCH  24  26
ENDBRANCH   5  24
TORSDOF 5
ENDMDL
MODEL 9
REMARK VINA RESULT:      -6.9      2.052      2.726
REMARK  5 active torsions:
REMARK  status: ('A' for Active; 'I' for Inactive)
REMARK    1  A    between atoms: O1_2  and  C2_3 
REMARK    2  A    between atoms: C3_4  and  C4_5 
REMARK    3  A    between atoms: C4_5  and  C5_6 
REMARK    4  A    between atoms: C7_10  and  C8_11 
REMARK    5  A    between atoms: C8_11  and  O3_13 
ROOT
HETATM    1  C5  UNL     1      27.157   5.131  49.345  1.00  0.00     0.007 C 
HETATM    2  N1  UNL     1      27.219   3.958  49.857  1.00  0.00    -0.213 NA
HETATM    3  N2  UNL     1      26.452   3.369  50.829  1.00  0.00    -0.218 NA
HETATM    4  C6  UNL     1      26.943   2.621  51.993  1.00  0.00     0.092 C 
HETATM    5  C7  UNL     1      26.047   1.725  52.447  1.00  0.00     0.053 C 
HETATM    6  C9  UNL     1      24.711   1.598  51.757  1.00  0.00     0.247 C 
HETATM    7  O4  UNL     1      23.695   1.880  52.662  1.00  0.00    -0.276 OA
HETATM    8  N3  UNL     1      22.613   2.412  52.049  1.00  0.00    -0.278 N 
HETATM    9  C10 UNL     1      22.925   3.765  51.723  1.00  0.00     0.114 C 
HETATM   10  C11 UNL     1      22.851   5.101  51.691  1.00  0.00     0.022 C 
HETATM   11  C12 UNL     1      23.133   6.509  51.385  1.00  0.00     0.045 C 
HETATM   12  C13 UNL     1      24.132   6.895  50.608  1.00  0.00     0.138 C 
HETATM   13  F1  UNL     1      23.693   8.196  50.836  1.00  0.00    -0.204 F 
HETATM   14  C14 UNL     1      25.300   7.147  49.766  1.00  0.00     0.074 C 
HETATM   15 CL1  UNL     1      25.453   8.779  48.998  1.00  0.00    -0.081 Cl
HETATM   16  C15 UNL     1      26.258   6.291  49.476  1.00  0.00     0.047 C 
HETATM   17  H8  UNL     1      27.494   3.345  50.773  1.00  0.00     0.262 HD
HETATM   18  H13 UNL     1      21.719   2.726  51.582  1.00  0.00     0.193 HD
ENDROOT
BRANCH   1  19
HETATM   19  C4  UNL     1      28.288   5.132  48.338  1.00  0.00     0.081 C 
BRANCH  19  20
HETATM   20  C3  UNL     1      28.855   6.446  48.093  1.00  0.00     0.003 C 
HETATM   21  C2  UNL     1      30.118   6.698  48.283  1.00  0.00     0.130 C 
BRANCH  21  22
HETATM   22  O1  UNL     1      30.876   5.628  48.734  1.00  0.00    -0.368 OA
HETATM   23  C1  UNL     1      32.219   5.384  48.408  1.00  0.00     0.208 C 
ENDBRANCH  21  22
ENDBRANCH  19  20
ENDBRANCH   1  19
BRANCH   5  24
HETATM   24  C8  UNL     1      26.201   0.820  53.576  1.00  0.00     0.175 C 
HETATM   25  O2  UNL     1      27.317   0.539  54.116  1.00  0.00    -0.646 OA
BRANCH  24  26
HETATM   26  O3  UNL     1      25.178   0.154  54.203  1.00  0.00    -0.773 OA
HETATM   27  H10 UNL     1      25.358  -0.552  54.933  1.00  0.00     0.167 HD
ENDBRANCH  24  26
ENDBRANCH   5  24
TORSDOF 5
ENDMDL
