MODEL 1
REMARK VINA RESULT:      -7.7      0.000      0.000
REMARK  6 active torsions:
REMARK  status: ('A' for Active; 'I' for Inactive)
REMARK    1  A    between atoms: C1_2  and  C2_3 
REMARK    2  A    between atoms: C1_2  and  C8_11 
REMARK    3  A    between atoms: C2_3  and  C3_4 
REMARK    4  A    between atoms: C3_4  and  N1_5 
REMARK    5  A    between atoms: C11_14  and  C12_15 
REMARK    6  A    between atoms: C12_15  and  C13_16 
ROOT
HETATM    1  C8  UNL     1      23.600   1.493  52.258  1.00  0.00     0.010 A 
HETATM    2  C9  UNL     1      23.308   1.557  50.911  1.00  0.00     0.015 A 
HETATM    3  C10 UNL     1      23.445   2.693  50.147  1.00  0.00     0.008 A 
HETATM    4  C11 UNL     1      23.898   3.857  50.732  1.00  0.00    -0.054 A 
HETATM    5  C19 UNL     1      24.202   3.837  52.077  1.00  0.00     0.008 A 
HETATM    6  C20 UNL     1      24.052   2.665  52.827  1.00  0.00     0.015 A 
ENDROOT
BRANCH   1   7
HETATM    7  C1  UNL     1      23.468   0.309  53.098  1.00  0.00     0.161 C 
HETATM    8  O1  UNL     1      22.394  -0.340  53.141  1.00  0.00    -0.292 OA
BRANCH   7   9
HETATM    9  C2  UNL     1      24.561  -0.207  53.946  1.00  0.00     0.103 C 
BRANCH   9  10
HETATM   10  C3  UNL     1      25.657  -0.753  53.057  1.00  0.00     0.124 C 
BRANCH  10  11
HETATM   11  N1  UNL     1      26.880  -0.098  53.358  1.00  0.00    -0.408 N 
HETATM   12  C4  UNL     1      27.155   0.164  54.730  1.00  0.00     0.143 C 
HETATM   13  C5  UNL     1      28.661   0.428  54.845  1.00  0.00     0.187 C 
HETATM   14  O2  UNL     1      29.086   1.370  53.939  1.00  0.00    -0.388 OA
HETATM   15  C6  UNL     1      28.077   1.961  53.219  1.00  0.00     0.187 C 
HETATM   16  C7  UNL     1      27.235   0.959  52.459  1.00  0.00     0.143 C 
ENDBRANCH  10  11
ENDBRANCH   9  10
ENDBRANCH   7   9
ENDBRANCH   1   7
BRANCH   4  17
HETATM   17  C12 UNL     1      24.024   5.053  49.862  1.00  0.00     0.077 C 
BRANCH  17  18
HETATM   18  C13 UNL     1      25.366   5.273  49.322  1.00  0.00    -0.054 A 
HETATM   19  C14 UNL     1      25.623   6.523  48.753  1.00  0.00     0.007 A 
HETATM   20  C15 UNL     1      26.846   6.851  48.213  1.00  0.00     0.001 A 
HETATM   21  C16 UNL     1      27.864   5.906  48.233  1.00  0.00     0.000 A 
HETATM   22  C17 UNL     1      27.612   4.673  48.792  1.00  0.00     0.001 A 
HETATM   23  C18 UNL     1      26.389   4.342  49.334  1.00  0.00     0.007 A 
ENDBRANCH  17  18
ENDBRANCH   4  17
TORSDOF 6
ENDMDL
MODEL 2
REMARK VINA RESULT:      -7.3      3.183      7.018
REMARK  6 active torsions:
REMARK  status: ('A' for Active; 'I' for Inactive)
REMARK    1  A    between atoms: C1_2  and  C2_3 
REMARK    2  A    between atoms: C1_2  and  C8_11 
REMARK    3  A    between atoms: C2_3  and  C3_4 
REMARK    4  A    between atoms: C3_4  and  N1_5 
REMARK    5  A    between atoms: C11_14  and  C12_15 
REMARK    6  A    between atoms: C12_15  and  C13_16 
ROOT
HETATM    1  C8  UNL     1      24.943   3.185  50.667  1.00  0.00     0.010 A 
HETATM    2  C9  UNL     1      26.259   2.773  50.667  1.00  0.00     0.015 A 
HETATM    3  C10 UNL     1      26.861   2.120  51.719  1.00  0.00     0.008 A 
HETATM    4  C11 UNL     1      26.133   1.847  52.858  1.00  0.00    -0.054 A 
HETATM    5  C19 UNL     1      24.813   2.242  52.900  1.00  0.00     0.008 A 
HETATM    6  C20 UNL     1      24.229   2.904  51.814  1.00  0.00     0.015 A 
ENDROOT
BRANCH   1   7
HETATM    7  C1  UNL     1      24.272   3.879  49.575  1.00  0.00     0.161 C 
HETATM    8  O1  UNL     1      23.247   3.398  49.032  1.00  0.00    -0.292 OA
BRANCH   7   9
HETATM    9  C2  UNL     1      24.736   5.172  49.032  1.00  0.00     0.103 C 
BRANCH   9  10
HETATM   10  C3  UNL     1      24.826   6.175  50.161  1.00  0.00     0.124 C 
BRANCH  10  11
HETATM   11  N1  UNL     1      25.941   7.028  49.947  1.00  0.00    -0.408 N 
HETATM   12  C4  UNL     1      25.709   8.430  50.023  1.00  0.00     0.143 C 
HETATM   13  C5  UNL     1      27.072   9.102  50.227  1.00  0.00     0.187 C 
HETATM   14  O2  UNL     1      27.995   8.678  49.302  1.00  0.00    -0.388 OA
HETATM   15  C6  UNL     1      27.485   7.855  48.328  1.00  0.00     0.187 C 
HETATM   16  C7  UNL     1      26.821   6.618  48.895  1.00  0.00     0.143 C 
ENDBRANCH  10  11
ENDBRANCH   9  10
ENDBRANCH   7   9
ENDBRANCH   1   7
BRANCH   4  17
HETATM   17  C12 UNL     1      26.833   1.143  53.962  1.00  0.00     0.077 C 
BRANCH  17  18
HETATM   18  C13 UNL     1      27.433  -0.137  53.582  1.00  0.00    -0.054 A 
HETATM   19  C14 UNL     1      28.802  -0.289  53.816  1.00  0.00     0.007 A 
HETATM   20  C15 UNL     1      29.480  -1.445  53.503  1.00  0.00     0.001 A 
HETATM   21  C16 UNL     1      28.781  -2.501  52.933  1.00  0.00     0.000 A 
HETATM   22  C17 UNL     1      27.431  -2.353  52.701  1.00  0.00     0.001 A 
HETATM   23  C18 UNL     1      26.750  -1.197  53.013  1.00  0.00     0.007 A 
ENDBRANCH  17  18
ENDBRANCH   4  17
TORSDOF 6
ENDMDL
MODEL 3
REMARK VINA RESULT:      -7.3      2.222      3.976
REMARK  6 active torsions:
REMARK  status: ('A' for Active; 'I' for Inactive)
REMARK    1  A    between atoms: C1_2  and  C2_3 
REMARK    2  A    between atoms: C1_2  and  C8_11 
REMARK    3  A    between atoms: C2_3  and  C3_4 
REMARK    4  A    between atoms: C3_4  and  N1_5 
REMARK    5  A    between atoms: C11_14  and  C12_15 
REMARK    6  A    between atoms: C12_15  and  C13_16 
ROOT
HETATM    1  C8  UNL     1      25.688   4.139  50.083  1.00  0.00     0.010 A 
HETATM    2  C9  UNL     1      26.829   3.767  49.402  1.00  0.00     0.015 A 
HETATM    3  C10 UNL     1      27.581   4.626  48.633  1.00  0.00     0.008 A 
HETATM    4  C11 UNL     1      27.198   5.946  48.513  1.00  0.00    -0.054 A 
HETATM    5  C19 UNL     1      26.063   6.359  49.177  1.00  0.00     0.008 A 
HETATM    6  C20 UNL     1      25.319   5.462  49.952  1.00  0.00     0.015 A 
ENDROOT
BRANCH   1   7
HETATM    7  C1  UNL     1      24.868   3.258  50.905  1.00  0.00     0.161 C 
HETATM    8  O1  UNL     1      23.635   3.454  51.036  1.00  0.00    -0.292 OA
BRANCH   7   9
HETATM    9  C2  UNL     1      25.410   2.093  51.633  1.00  0.00     0.103 C 
BRANCH   9  10
HETATM   10  C3  UNL     1      25.289   2.342  53.120  1.00  0.00     0.124 C 
BRANCH  10  11
HETATM   11  N1  UNL     1      26.516   2.014  53.756  1.00  0.00    -0.408 N 
HETATM   12  C4  UNL     1      27.708   2.217  53.006  1.00  0.00     0.143 C 
HETATM   13  C5  UNL     1      28.870   2.251  54.007  1.00  0.00     0.187 C 
HETATM   14  O2  UNL     1      28.848   1.168  54.853  1.00  0.00    -0.388 OA
HETATM   15  C6  UNL     1      27.888   0.234  54.553  1.00  0.00     0.187 C 
HETATM   16  C7  UNL     1      26.489   0.814  54.536  1.00  0.00     0.143 C 
ENDBRANCH  10  11
ENDBRANCH   9  10
ENDBRANCH   7   9
ENDBRANCH   1   7
BRANCH   4  17
HETATM   17  C12 UNL     1      28.043   6.826  47.669  1.00  0.00     0.077 C 
BRANCH  17  18
HETATM   18  C13 UNL     1      29.266   7.298  48.319  1.00  0.00    -0.054 A 
HETATM   19  C14 UNL     1      30.302   6.373  48.469  1.00  0.00     0.007 A 
HETATM   20  C15 UNL     1      31.500   6.695  49.063  1.00  0.00     0.001 A 
HETATM   21  C16 UNL     1      31.691   7.988  49.533  1.00  0.00     0.000 A 
HETATM   22  C17 UNL     1      30.671   8.902  49.387  1.00  0.00     0.001 A 
HETATM   23  C18 UNL     1      29.470   8.582  48.793  1.00  0.00     0.007 A 
ENDBRANCH  17  18
ENDBRANCH   4  17
TORSDOF 6
ENDMDL
MODEL 4
REMARK VINA RESULT:      -7.2      2.807      6.575
REMARK  6 active torsions:
REMARK  status: ('A' for Active; 'I' for Inactive)
REMARK    1  A    between atoms: C1_2  and  C2_3 
REMARK    2  A    between atoms: C1_2  and  C8_11 
REMARK    3  A    between atoms: C2_3  and  C3_4 
REMARK    4  A    between atoms: C3_4  and  N1_5 
REMARK    5  A    between atoms: C11_14  and  C12_15 
REMARK    6  A    between atoms: C12_15  and  C13_16 
ROOT
HETATM    1  C8  UNL     1      23.690   2.711  51.165  1.00  0.00     0.010 A 
HETATM    2  C9  UNL     1      22.941   1.956  52.043  1.00  0.00     0.015 A 
HETATM    3  C10 UNL     1      23.445   0.914  52.788  1.00  0.00     0.008 A 
HETATM    4  C11 UNL     1      24.778   0.578  52.673  1.00  0.00    -0.054 A 
HETATM    5  C19 UNL     1      25.564   1.307  51.806  1.00  0.00     0.008 A 
HETATM    6  C20 UNL     1      25.021   2.361  51.062  1.00  0.00     0.015 A 
ENDROOT
BRANCH   1   7
HETATM    7  C1  UNL     1      23.191   3.818  50.360  1.00  0.00     0.161 C 
HETATM    8  O1  UNL     1      22.254   4.547  50.767  1.00  0.00    -0.292 OA
BRANCH   7   9
HETATM    9  C2  UNL     1      23.736   4.162  49.031  1.00  0.00     0.103 C 
BRANCH   9  10
HETATM   10  C3  UNL     1      24.000   5.652  48.978  1.00  0.00     0.124 C 
BRANCH  10  11
HETATM   11  N1  UNL     1      25.361   5.878  48.643  1.00  0.00    -0.408 N 
HETATM   12  C4  UNL     1      26.337   5.116  49.345  1.00  0.00     0.143 C 
HETATM   13  C5  UNL     1      27.631   5.176  48.525  1.00  0.00     0.187 C 
HETATM   14  O2  UNL     1      27.972   6.467  48.199  1.00  0.00    -0.388 OA
HETATM   15  C6  UNL     1      27.172   7.426  48.770  1.00  0.00     0.187 C 
HETATM   16  C7  UNL     1      25.708   7.250  48.425  1.00  0.00     0.143 C 
ENDBRANCH  10  11
ENDBRANCH   9  10
ENDBRANCH   7   9
ENDBRANCH   1   7
BRANCH   4  17
HETATM   17  C12 UNL     1      25.268  -0.555  53.498  1.00  0.00     0.077 C 
BRANCH  17  18
HETATM   18  C13 UNL     1      26.724  -0.616  53.642  1.00  0.00    -0.054 A 
HETATM   19  C14 UNL     1      27.307   0.265  54.557  1.00  0.00     0.007 A 
HETATM   20  C15 UNL     1      28.664   0.303  54.782  1.00  0.00     0.001 A 
HETATM   21  C16 UNL     1      29.487  -0.565  54.076  1.00  0.00     0.000 A 
HETATM   22  C17 UNL     1      28.914  -1.433  53.174  1.00  0.00     0.001 A 
HETATM   23  C18 UNL     1      27.556  -1.474  52.946  1.00  0.00     0.007 A 
ENDBRANCH  17  18
ENDBRANCH   4  17
TORSDOF 6
ENDMDL
MODEL 5
REMARK VINA RESULT:      -7.1      3.136      6.916
REMARK  6 active torsions:
REMARK  status: ('A' for Active; 'I' for Inactive)
REMARK    1  A    between atoms: C1_2  and  C2_3 
REMARK    2  A    between atoms: C1_2  and  C8_11 
REMARK    3  A    between atoms: C2_3  and  C3_4 
REMARK    4  A    between atoms: C3_4  and  N1_5 
REMARK    5  A    between atoms: C11_14  and  C12_15 
REMARK    6  A    between atoms: C12_15  and  C13_16 
ROOT
HETATM    1  C8  UNL     1      24.665   2.970  50.447  1.00  0.00     0.010 A 
HETATM    2  C9  UNL     1      24.113   2.466  51.606  1.00  0.00     0.015 A 
HETATM    3  C10 UNL     1      24.847   1.921  52.635  1.00  0.00     0.008 A 
HETATM    4  C11 UNL     1      26.221   1.860  52.534  1.00  0.00    -0.054 A 
HETATM    5  C19 UNL     1      26.815   2.353  51.392  1.00  0.00     0.008 A 
HETATM    6  C20 UNL     1      26.041   2.901  50.362  1.00  0.00     0.015 A 
ENDROOT
BRANCH   1   7
HETATM    7  C1  UNL     1      23.921   3.553  49.338  1.00  0.00     0.161 C 
HETATM    8  O1  UNL     1      24.073   4.756  49.014  1.00  0.00    -0.292 OA
BRANCH   7   9
HETATM    9  C2  UNL     1      22.952   2.790  48.525  1.00  0.00     0.103 C 
BRANCH   9  10
HETATM   10  C3  UNL     1      21.558   3.303  48.813  1.00  0.00     0.124 C 
BRANCH  10  11
HETATM   11  N1  UNL     1      20.874   2.374  49.640  1.00  0.00    -0.408 N 
HETATM   12  C4  UNL     1      20.523   2.808  50.949  1.00  0.00     0.143 C 
HETATM   13  C5  UNL     1      19.430   1.861  51.460  1.00  0.00     0.187 C 
HETATM   14  O2  UNL     1      19.790   0.542  51.322  1.00  0.00    -0.388 OA
HETATM   15  C6  UNL     1      21.076   0.348  50.883  1.00  0.00     0.187 C 
HETATM   16  C7  UNL     1      21.353   1.027  49.559  1.00  0.00     0.143 C 
ENDBRANCH  10  11
ENDBRANCH   9  10
ENDBRANCH   7   9
ENDBRANCH   1   7
BRANCH   4  17
HETATM   17  C12 UNL     1      26.962   1.260  53.672  1.00  0.00     0.077 C 
BRANCH  17  18
HETATM   18  C13 UNL     1      27.520  -0.066  53.402  1.00  0.00    -0.054 A 
HETATM   19  C14 UNL     1      28.872  -0.256  53.701  1.00  0.00     0.007 A 
HETATM   20  C15 UNL     1      29.511  -1.457  53.493  1.00  0.00     0.001 A 
HETATM   21  C16 UNL     1      28.789  -2.521  52.967  1.00  0.00     0.000 A 
HETATM   22  C17 UNL     1      27.457  -2.334  52.671  1.00  0.00     0.001 A 
HETATM   23  C18 UNL     1      26.814  -1.133  52.878  1.00  0.00     0.007 A 
ENDBRANCH  17  18
ENDBRANCH   4  17
TORSDOF 6
ENDMDL
MODEL 6
REMARK VINA RESULT:      -7.1      3.069      6.479
REMARK  6 active torsions:
REMARK  status: ('A' for Active; 'I' for Inactive)
REMARK    1  A    between atoms: C1_2  and  C2_3 
REMARK    2  A    between atoms: C1_2  and  C8_11 
REMARK    3  A    between atoms: C2_3  and  C3_4 
REMARK    4  A    between atoms: C3_4  and  N1_5 
REMARK    5  A    between atoms: C11_14  and  C12_15 
REMARK    6  A    between atoms: C12_15  and  C13_16 
ROOT
HETATM    1  C8  UNL     1      22.402   1.300  51.059  1.00  0.00     0.010 A 
HETATM    2  C9  UNL     1      21.918   0.328  51.911  1.00  0.00     0.015 A 
HETATM    3  C10 UNL     1      22.657  -0.249  52.919  1.00  0.00     0.008 A 
HETATM    4  C11 UNL     1      23.965   0.144  53.115  1.00  0.00    -0.054 A 
HETATM    5  C19 UNL     1      24.488   1.112  52.286  1.00  0.00     0.008 A 
HETATM    6  C20 UNL     1      23.711   1.681  51.270  1.00  0.00     0.015 A 
ENDROOT
BRANCH   1   7
HETATM    7  C1  UNL     1      21.651   1.933  49.983  1.00  0.00     0.161 C 
HETATM    8  O1  UNL     1      21.672   1.469  48.816  1.00  0.00    -0.292 OA
BRANCH   7   9
HETATM    9  C2  UNL     1      20.824   3.142  50.175  1.00  0.00     0.103 C 
BRANCH   9  10
HETATM   10  C3  UNL     1      21.343   4.241  49.274  1.00  0.00     0.124 C 
BRANCH  10  11
HETATM   11  N1  UNL     1      22.283   5.032  49.986  1.00  0.00    -0.408 N 
HETATM   12  C4  UNL     1      23.647   4.930  49.593  1.00  0.00     0.143 C 
HETATM   13  C5  UNL     1      24.370   6.163  50.147  1.00  0.00     0.187 C 
HETATM   14  O2  UNL     1      24.125   6.341  51.488  1.00  0.00    -0.388 OA
HETATM   15  C6  UNL     1      23.403   5.329  52.071  1.00  0.00     0.187 C 
HETATM   16  C7  UNL     1      22.066   5.099  51.400  1.00  0.00     0.143 C 
ENDBRANCH  10  11
ENDBRANCH   9  10
ENDBRANCH   7   9
ENDBRANCH   1   7
BRANCH   4  17
HETATM   17  C12 UNL     1      24.715  -0.514  54.214  1.00  0.00     0.077 C 
BRANCH  17  18
HETATM   18  C13 UNL     1      26.166  -0.554  54.021  1.00  0.00    -0.054 A 
HETATM   19  C14 UNL     1      26.941   0.229  54.880  1.00  0.00     0.007 A 
HETATM   20  C15 UNL     1      28.314   0.276  54.798  1.00  0.00     0.001 A 
HETATM   21  C16 UNL     1      28.956  -0.481  53.827  1.00  0.00     0.000 A 
HETATM   22  C17 UNL     1      28.193  -1.253  52.979  1.00  0.00     0.001 A 
HETATM   23  C18 UNL     1      26.818  -1.302  53.058  1.00  0.00     0.007 A 
ENDBRANCH  17  18
ENDBRANCH   4  17
TORSDOF 6
ENDMDL
MODEL 7
REMARK VINA RESULT:      -7.0      3.895      7.408
REMARK  6 active torsions:
REMARK  status: ('A' for Active; 'I' for Inactive)
REMARK    1  A    between atoms: C1_2  and  C2_3 
REMARK    2  A    between atoms: C1_2  and  C8_11 
REMARK    3  A    between atoms: C2_3  and  C3_4 
REMARK    4  A    between atoms: C3_4  and  N1_5 
REMARK    5  A    between atoms: C11_14  and  C12_15 
REMARK    6  A    between atoms: C12_15  and  C13_16 
ROOT
HETATM    1  C8  UNL     1      26.545   5.600  48.992  1.00  0.00     0.010 A 
HETATM    2  C9  UNL     1      25.376   5.673  49.721  1.00  0.00     0.015 A 
HETATM    3  C10 UNL     1      24.815   4.607  50.386  1.00  0.00     0.008 A 
HETATM    4  C11 UNL     1      25.433   3.374  50.340  1.00  0.00    -0.054 A 
HETATM    5  C19 UNL     1      26.604   3.256  49.622  1.00  0.00     0.008 A 
HETATM    6  C20 UNL     1      27.149   4.360  48.957  1.00  0.00     0.015 A 
ENDROOT
BRANCH   1   7
HETATM    7  C1  UNL     1      27.168   6.706  48.277  1.00  0.00     0.161 C 
HETATM    8  O1  UNL     1      26.525   7.751  48.010  1.00  0.00    -0.292 OA
BRANCH   7   9
HETATM    9  C2  UNL     1      28.572   6.685  47.819  1.00  0.00     0.103 C 
BRANCH   9  10
HETATM   10  C3  UNL     1      29.343   7.765  48.546  1.00  0.00     0.124 C 
BRANCH  10  11
HETATM   11  N1  UNL     1      30.681   7.336  48.748  1.00  0.00    -0.408 N 
HETATM   12  C4  UNL     1      31.703   8.060  48.072  1.00  0.00     0.143 C 
HETATM   13  C5  UNL     1      33.025   7.740  48.780  1.00  0.00     0.187 C 
HETATM   14  O2  UNL     1      33.216   6.387  48.921  1.00  0.00    -0.388 OA
HETATM   15  C6  UNL     1      32.268   5.612  48.300  1.00  0.00     0.187 C 
HETATM   16  C7  UNL     1      30.862   5.916  48.772  1.00  0.00     0.143 C 
ENDBRANCH  10  11
ENDBRANCH   9  10
ENDBRANCH   7   9
ENDBRANCH   1   7
BRANCH   4  17
HETATM   17  C12 UNL     1      24.782   2.258  51.072  1.00  0.00     0.077 C 
BRANCH  17  18
HETATM   18  C13 UNL     1      25.650   1.576  52.033  1.00  0.00    -0.054 A 
HETATM   19  C14 UNL     1      25.762   2.148  53.303  1.00  0.00     0.007 A 
HETATM   20  C15 UNL     1      26.546   1.600  54.292  1.00  0.00     0.001 A 
HETATM   21  C16 UNL     1      27.253   0.435  54.022  1.00  0.00     0.000 A 
HETATM   22  C17 UNL     1      27.143  -0.130  52.771  1.00  0.00     0.001 A 
HETATM   23  C18 UNL     1      26.360   0.416  51.779  1.00  0.00     0.007 A 
ENDBRANCH  17  18
ENDBRANCH   4  17
TORSDOF 6
ENDMDL
MODEL 8
REMARK VINA RESULT:      -7.0      3.082      6.748
REMARK  6 active torsions:
REMARK  status: ('A' for Active; 'I' for Inactive)
REMARK    1  A    between atoms: C1_2  and  C2_3 
REMARK    2  A    between atoms: C1_2  and  C8_11 
REMARK    3  A    between atoms: C2_3  and  C3_4 
REMARK    4  A    between atoms: C3_4  and  N1_5 
REMARK    5  A    between atoms: C11_14  and  C12_15 
REMARK    6  A    between atoms: C12_15  and  C13_16 
ROOT
HETATM    1  C8  UNL     1      23.810   2.194  51.003  1.00  0.00     0.010 A 
HETATM    2  C9  UNL     1      25.167   2.437  51.066  1.00  0.00     0.015 A 
HETATM    3  C10 UNL     1      25.981   2.002  52.088  1.00  0.00     0.008 A 
HETATM    4  C11 UNL     1      25.438   1.278  53.129  1.00  0.00    -0.054 A 
HETATM    5  C19 UNL     1      24.086   1.013  53.106  1.00  0.00     0.008 A 
HETATM    6  C20 UNL     1      23.285   1.469  52.053  1.00  0.00     0.015 A 
ENDROOT
BRANCH   1   7
HETATM    7  C1  UNL     1      22.919   2.639  49.940  1.00  0.00     0.161 C 
HETATM    8  O1  UNL     1      22.367   1.816  49.169  1.00  0.00    -0.292 OA
BRANCH   7   9
HETATM    9  C2  UNL     1      22.602   4.060  49.691  1.00  0.00     0.103 C 
BRANCH   9  10
HETATM   10  C3  UNL     1      23.665   4.651  48.791  1.00  0.00     0.124 C 
BRANCH  10  11
HETATM   11  N1  UNL     1      24.057   5.919  49.293  1.00  0.00    -0.408 N 
HETATM   12  C4  UNL     1      25.233   5.964  50.094  1.00  0.00     0.143 C 
HETATM   13  C5  UNL     1      25.704   7.424  50.121  1.00  0.00     0.187 C 
HETATM   14  O2  UNL     1      24.689   8.283  50.466  1.00  0.00    -0.388 OA
HETATM   15  C6  UNL     1      23.520   7.662  50.831  1.00  0.00     0.187 C 
HETATM   16  C7  UNL     1      22.982   6.745  49.754  1.00  0.00     0.143 C 
ENDBRANCH  10  11
ENDBRANCH   9  10
ENDBRANCH   7   9
ENDBRANCH   1   7
BRANCH   4  17
HETATM   17  C12 UNL     1      26.361   0.836  54.205  1.00  0.00     0.077 C 
BRANCH  17  18
HETATM   18  C13 UNL     1      27.301  -0.212  53.806  1.00  0.00    -0.054 A 
HETATM   19  C14 UNL     1      28.634  -0.047  54.191  1.00  0.00     0.007 A 
HETATM   20  C15 UNL     1      29.612  -0.963  53.877  1.00  0.00     0.001 A 
HETATM   21  C16 UNL     1      29.264  -2.095  53.151  1.00  0.00     0.000 A 
HETATM   22  C17 UNL     1      27.951  -2.259  52.771  1.00  0.00     0.001 A 
HETATM   23  C18 UNL     1      26.970  -1.344  53.084  1.00  0.00     0.007 A 
ENDBRANCH  17  18
ENDBRANCH   4  17
TORSDOF 6
ENDMDL
MODEL 9
REMARK VINA RESULT:      -6.9      4.239      7.543
REMARK  6 active torsions:
REMARK  status: ('A' for Active; 'I' for Inactive)
REMARK    1  A    between atoms: C1_2  and  C2_3 
REMARK    2  A    between atoms: C1_2  and  C8_11 
REMARK    3  A    between atoms: C2_3  and  C3_4 
REMARK    4  A    between atoms: C3_4  and  N1_5 
REMARK    5  A    between atoms: C11_14  and  C12_15 
REMARK    6  A    between atoms: C12_15  and  C13_16 
ROOT
HETATM    1  C8  UNL     1      22.302   0.382  53.196  1.00  0.00     0.010 A 
HETATM    2  C9  UNL     1      22.839   1.248  52.266  1.00  0.00     0.015 A 
HETATM    3  C10 UNL     1      24.144   1.198  51.831  1.00  0.00     0.008 A 
HETATM    4  C11 UNL     1      24.994   0.235  52.336  1.00  0.00    -0.054 A 
HETATM    5  C19 UNL     1      24.497  -0.651  53.268  1.00  0.00     0.008 A 
HETATM    6  C20 UNL     1      23.165  -0.574  53.691  1.00  0.00     0.015 A 
ENDROOT
BRANCH   1   7
HETATM    7  C1  UNL     1      20.928   0.406  53.680  1.00  0.00     0.161 C 
HETATM    8  O1  UNL     1      20.671   0.537  54.902  1.00  0.00    -0.292 OA
BRANCH   7   9
HETATM    9  C2  UNL     1      19.755   0.279  52.792  1.00  0.00     0.103 C 
BRANCH   9  10
HETATM   10  C3  UNL     1      18.889  -0.863  53.280  1.00  0.00     0.124 C 
BRANCH  10  11
HETATM   11  N1  UNL     1      17.576  -0.716  52.760  1.00  0.00    -0.408 N 
HETATM   12  C4  UNL     1      16.823  -1.906  52.554  1.00  0.00     0.143 C 
HETATM   13  C5  UNL     1      15.349  -1.495  52.450  1.00  0.00     0.187 C 
HETATM   14  O2  UNL     1      15.164  -0.481  51.540  1.00  0.00    -0.388 OA
HETATM   15  C6  UNL     1      16.291  -0.140  50.835  1.00  0.00     0.187 C 
HETATM   16  C7  UNL     1      17.442   0.269  51.729  1.00  0.00     0.143 C 
ENDBRANCH  10  11
ENDBRANCH   9  10
ENDBRANCH   7   9
ENDBRANCH   1   7
BRANCH   4  17
HETATM   17  C12 UNL     1      26.391   0.229  51.834  1.00  0.00     0.077 C 
BRANCH  17  18
HETATM   18  C13 UNL     1      27.393   0.636  52.820  1.00  0.00    -0.054 A 
HETATM   19  C14 UNL     1      27.711   1.995  52.875  1.00  0.00     0.007 A 
HETATM   20  C15 UNL     1      28.636   2.501  53.759  1.00  0.00     0.001 A 
HETATM   21  C16 UNL     1      29.279   1.631  54.630  1.00  0.00     0.000 A 
HETATM   22  C17 UNL     1      28.967   0.291  54.577  1.00  0.00     0.001 A 
HETATM   23  C18 UNL     1      28.041  -0.218  53.693  1.00  0.00     0.007 A 
ENDBRANCH  17  18
ENDBRANCH   4  17
TORSDOF 6
ENDMDL
