MODEL 1
REMARK VINA RESULT:      -8.8      0.000      0.000
REMARK  2 active torsions:
REMARK  status: ('A' for Active; 'I' for Inactive)
REMARK    1  A    between atoms: C6_7  and  N2_8 
REMARK    2  A    between atoms: N2_8  and  C7_9 
ROOT
HETATM    1  C1  UNL     1      24.634  -1.326  55.238  1.00  0.00     0.023 C 
HETATM    2  C2  UNL     1      25.107  -0.281  54.577  1.00  0.00    -0.021 A 
HETATM    3  C3  UNL     1      24.375   0.396  53.521  1.00  0.00    -0.013 A 
HETATM    4  C4  UNL     1      23.209   0.301  52.902  1.00  0.00     0.008 A 
HETATM    5  C5  UNL     1      22.629   1.111  51.817  1.00  0.00     0.179 A 
HETATM    6  N1  UNL     1      23.560   2.152  51.437  1.00  0.00    -0.268 NA
HETATM    7  C6  UNL     1      24.709   2.352  51.950  1.00  0.00     0.133 A 
HETATM    8  C12 UNL     1      25.196   1.493  53.023  1.00  0.00     0.052 A 
HETATM    9  C13 UNL     1      26.348   1.497  53.717  1.00  0.00     0.101 A 
HETATM   10  O1  UNL     1      27.475   2.307  53.663  1.00  0.00    -0.311 OA
HETATM   11  P1  UNL     1      28.977   1.548  54.178  1.00  0.00     0.137 P 
HETATM   12  C14 UNL     1      28.782  -0.048  54.651  1.00  0.00     0.178 C 
HETATM   13  O2  UNL     1      27.481  -0.473  54.551  1.00  0.00    -0.343 OA
HETATM   14  C15 UNL     1      26.393   0.416  54.724  1.00  0.00     0.219 A 
ENDROOT
BRANCH   7  15
HETATM   15  N2  UNL     1      25.555   3.421  51.492  1.00  0.00    -0.363 N 
HETATM   16  H6  UNL     1      26.146   3.917  52.188  1.00  0.00     0.162 HD
BRANCH  15  17
HETATM   17  C7  UNL     1      25.522   3.733  50.076  1.00  0.00     0.134 A 
HETATM   18  C8  UNL     1      26.815   3.520  49.412  1.00  0.00     0.046 A 
HETATM   19  C9  UNL     1      27.261   4.643  48.865  1.00  0.00     0.136 A 
HETATM   20  F1  UNL     1      28.421   4.841  48.165  1.00  0.00    -0.205 F 
HETATM   21  C10 UNL     1      26.274   5.675  49.138  1.00  0.00     0.070 A 
HETATM   22 CL1  UNL     1      26.384   7.359  48.626  1.00  0.00    -0.081 Cl
HETATM   23  C11 UNL     1      25.244   5.193  49.840  1.00  0.00     0.029 A 
ENDBRANCH  15  17
ENDBRANCH   7  15
TORSDOF 2
ENDMDL
MODEL 2
REMARK VINA RESULT:      -8.3      3.716      5.561
REMARK  2 active torsions:
REMARK  status: ('A' for Active; 'I' for Inactive)
REMARK    1  A    between atoms: C6_7  and  N2_8 
REMARK    2  A    between atoms: N2_8  and  C7_9 
ROOT
HETATM    1  C1  UNL     1      19.837   2.503  52.328  1.00  0.00     0.023 C 
HETATM    2  C2  UNL     1      21.100   2.110  52.270  1.00  0.00    -0.021 A 
HETATM    3  C3  UNL     1      21.647   1.048  53.096  1.00  0.00    -0.013 A 
HETATM    4  C4  UNL     1      21.238   0.210  54.035  1.00  0.00     0.008 A 
HETATM    5  C5  UNL     1      21.969  -0.831  54.777  1.00  0.00     0.179 A 
HETATM    6  N1  UNL     1      23.348  -0.864  54.338  1.00  0.00    -0.268 NA
HETATM    7  C6  UNL     1      23.867  -0.115  53.447  1.00  0.00     0.133 A 
HETATM    8  C12 UNL     1      23.057   0.889  52.767  1.00  0.00     0.052 A 
HETATM    9  C13 UNL     1      23.363   1.783  51.810  1.00  0.00     0.101 A 
HETATM   10  O1  UNL     1      24.542   2.071  51.134  1.00  0.00    -0.311 OA
HETATM   11  P1  UNL     1      24.693   3.723  50.547  1.00  0.00     0.137 P 
HETATM   12  C14 UNL     1      23.366   4.678  50.913  1.00  0.00     0.178 C 
HETATM   13  O2  UNL     1      22.398   3.994  51.607  1.00  0.00    -0.343 OA
HETATM   14  C15 UNL     1      22.196   2.605  51.425  1.00  0.00     0.219 A 
ENDROOT
BRANCH   7  15
HETATM   15  N2  UNL     1      25.254  -0.234  53.088  1.00  0.00    -0.363 N 
HETATM   16  H6  UNL     1      25.492  -0.639  52.161  1.00  0.00     0.162 HD
BRANCH  15  17
HETATM   17  C7  UNL     1      26.233   0.225  54.056  1.00  0.00     0.134 A 
HETATM   18  C8  UNL     1      26.629   1.624  53.849  1.00  0.00     0.046 A 
HETATM   19  C9  UNL     1      27.934   1.723  53.633  1.00  0.00     0.136 A 
HETATM   20  F1  UNL     1      28.670   2.854  53.401  1.00  0.00    -0.205 F 
HETATM   21  C10 UNL     1      28.480   0.377  53.685  1.00  0.00     0.070 A 
HETATM   22 CL1  UNL     1      30.178  -0.050  53.462  1.00  0.00    -0.081 Cl
HETATM   23  C11 UNL     1      27.528  -0.529  53.929  1.00  0.00     0.029 A 
ENDBRANCH  15  17
ENDBRANCH   7  15
TORSDOF 2
ENDMDL
MODEL 3
REMARK VINA RESULT:      -8.0      4.645      5.977
REMARK  2 active torsions:
REMARK  status: ('A' for Active; 'I' for Inactive)
REMARK    1  A    between atoms: C6_7  and  N2_8 
REMARK    2  A    between atoms: N2_8  and  C7_9 
ROOT
HETATM    1  C1  UNL     1      19.770  -0.520  53.444  1.00  0.00     0.023 C 
HETATM    2  C2  UNL     1      20.944   0.052  53.229  1.00  0.00    -0.021 A 
HETATM    3  C3  UNL     1      22.165  -0.347  53.907  1.00  0.00    -0.013 A 
HETATM    4  C4  UNL     1      22.556  -1.233  54.809  1.00  0.00     0.008 A 
HETATM    5  C5  UNL     1      23.885  -1.492  55.387  1.00  0.00     0.179 A 
HETATM    6  N1  UNL     1      24.851  -0.579  54.813  1.00  0.00    -0.268 NA
HETATM    7  C6  UNL     1      24.607   0.316  53.940  1.00  0.00     0.133 A 
HETATM    8  C12 UNL     1      23.253   0.496  53.428  1.00  0.00     0.052 A 
HETATM    9  C13 UNL     1      22.747   1.351  52.523  1.00  0.00     0.101 A 
HETATM   10  O1  UNL     1      23.321   2.361  51.760  1.00  0.00    -0.311 OA
HETATM   11  P1  UNL     1      22.237   3.670  51.300  1.00  0.00     0.137 P 
HETATM   12  C14 UNL     1      20.676   3.466  51.873  1.00  0.00     0.178 C 
HETATM   13  O2  UNL     1      20.526   2.311  52.599  1.00  0.00    -0.343 OA
HETATM   14  C15 UNL     1      21.296   1.156  52.324  1.00  0.00     0.219 A 
ENDROOT
BRANCH   7  15
HETATM   15  N2  UNL     1      25.647   1.172  53.437  1.00  0.00    -0.363 N 
HETATM   16  H6  UNL     1      25.655   2.168  53.733  1.00  0.00     0.162 HD
BRANCH  15  17
HETATM   17  C7  UNL     1      26.622   0.577  52.542  1.00  0.00     0.134 A 
HETATM   18  C8  UNL     1      26.378  -0.851  52.298  1.00  0.00     0.046 A 
HETATM   19  C9  UNL     1      27.419  -1.583  52.675  1.00  0.00     0.136 A 
HETATM   20  F1  UNL     1      27.566  -2.942  52.605  1.00  0.00    -0.205 F 
HETATM   21  C10 UNL     1      28.421  -0.668  53.194  1.00  0.00     0.070 A 
HETATM   22 CL1  UNL     1      30.002  -1.130  53.828  1.00  0.00    -0.081 Cl
HETATM   23  C11 UNL     1      28.003   0.601  53.137  1.00  0.00     0.029 A 
ENDBRANCH  15  17
ENDBRANCH   7  15
TORSDOF 2
ENDMDL
MODEL 4
REMARK VINA RESULT:      -7.7      4.076      6.002
REMARK  2 active torsions:
REMARK  status: ('A' for Active; 'I' for Inactive)
REMARK    1  A    between atoms: C6_7  and  N2_8 
REMARK    2  A    between atoms: N2_8  and  C7_9 
ROOT
HETATM    1  C1  UNL     1      20.833   1.941  48.983  1.00  0.00     0.023 C 
HETATM    2  C2  UNL     1      21.963   2.005  49.670  1.00  0.00    -0.021 A 
HETATM    3  C3  UNL     1      22.223   1.213  50.859  1.00  0.00    -0.013 A 
HETATM    4  C4  UNL     1      21.610   0.305  51.601  1.00  0.00     0.008 A 
HETATM    5  C5  UNL     1      22.055  -0.405  52.812  1.00  0.00     0.179 A 
HETATM    6  N1  UNL     1      23.390   0.029  53.167  1.00  0.00    -0.268 NA
HETATM    7  C6  UNL     1      24.087   0.892  52.540  1.00  0.00     0.133 A 
HETATM    8  C12 UNL     1      23.556   1.542  51.348  1.00  0.00     0.052 A 
HETATM    9  C13 UNL     1      24.083   2.467  50.526  1.00  0.00     0.101 A 
HETATM   10  O1  UNL     1      25.304   3.129  50.515  1.00  0.00    -0.311 OA
HETATM   11  P1  UNL     1      25.295   4.720  49.762  1.00  0.00     0.137 P 
HETATM   12  C14 UNL     1      23.788   5.167  49.182  1.00  0.00     0.178 C 
HETATM   13  O2  UNL     1      22.832   4.206  49.399  1.00  0.00    -0.343 OA
HETATM   14  C15 UNL     1      23.157   2.829  49.432  1.00  0.00     0.219 A 
ENDROOT
BRANCH   7  15
HETATM   15  N2  UNL     1      25.407   1.250  52.984  1.00  0.00    -0.363 N 
HETATM   16  H6  UNL     1      25.499   1.912  53.779  1.00  0.00     0.162 HD
BRANCH  15  17
HETATM   17  C7  UNL     1      26.528   0.654  52.281  1.00  0.00     0.134 A 
HETATM   18  C8  UNL     1      26.398  -0.800  52.124  1.00  0.00     0.046 A 
HETATM   19  C9  UNL     1      27.412  -1.434  52.697  1.00  0.00     0.136 A 
HETATM   20  F1  UNL     1      27.640  -2.783  52.760  1.00  0.00    -0.205 F 
HETATM   21  C10 UNL     1      28.281  -0.422  53.272  1.00  0.00     0.070 A 
HETATM   22 CL1  UNL     1      29.779  -0.735  54.151  1.00  0.00    -0.081 Cl
HETATM   23  C11 UNL     1      27.808   0.810  53.056  1.00  0.00     0.029 A 
ENDBRANCH  15  17
ENDBRANCH   7  15
TORSDOF 2
ENDMDL
MODEL 5
REMARK VINA RESULT:      -7.6      3.318      4.177
REMARK  2 active torsions:
REMARK  status: ('A' for Active; 'I' for Inactive)
REMARK    1  A    between atoms: C6_7  and  N2_8 
REMARK    2  A    between atoms: N2_8  and  C7_9 
ROOT
HETATM    1  C1  UNL     1      26.700  -1.188  52.947  1.00  0.00     0.023 C 
HETATM    2  C2  UNL     1      25.612  -0.448  52.806  1.00  0.00    -0.021 A 
HETATM    3  C3  UNL     1      25.601   0.842  52.138  1.00  0.00    -0.013 A 
HETATM    4  C4  UNL     1      26.451   1.650  51.526  1.00  0.00     0.008 A 
HETATM    5  C5  UNL     1      26.241   2.962  50.890  1.00  0.00     0.179 A 
HETATM    6  N1  UNL     1      24.849   3.341  51.008  1.00  0.00    -0.268 NA
HETATM    7  C6  UNL     1      23.933   2.658  51.570  1.00  0.00     0.133 A 
HETATM    8  C12 UNL     1      24.242   1.366  52.172  1.00  0.00     0.052 A 
HETATM    9  C13 UNL     1      23.468   0.472  52.812  1.00  0.00     0.101 A 
HETATM   10  O1  UNL     1      22.115   0.454  53.128  1.00  0.00    -0.311 OA
HETATM   11  P1  UNL     1      21.684  -0.484  54.553  1.00  0.00     0.137 P 
HETATM   12  C14 UNL     1      23.003  -1.203  55.295  1.00  0.00     0.178 C 
HETATM   13  O2  UNL     1      24.185  -0.929  54.652  1.00  0.00    -0.343 OA
HETATM   14  C15 UNL     1      24.236  -0.711  53.254  1.00  0.00     0.219 A 
ENDROOT
BRANCH   7  15
HETATM   15  N2  UNL     1      22.577   3.133  51.629  1.00  0.00    -0.363 N 
HETATM   16  H6  UNL     1      22.253   3.598  52.500  1.00  0.00     0.162 HD
BRANCH  15  17
HETATM   17  C7  UNL     1      21.749   2.927  50.455  1.00  0.00     0.134 A 
HETATM   18  C8  UNL     1      22.259   1.869  49.573  1.00  0.00     0.046 A 
HETATM   19  C9  UNL     1      22.516   2.342  48.361  1.00  0.00     0.136 A 
HETATM   20  F1  UNL     1      23.000   1.665  47.274  1.00  0.00    -0.205 F 
HETATM   21  C10 UNL     1      22.186   3.757  48.374  1.00  0.00     0.070 A 
HETATM   22 CL1  UNL     1      22.344   4.860  47.005  1.00  0.00    -0.081 Cl
HETATM   23  C11 UNL     1      21.734   4.144  49.572  1.00  0.00     0.029 A 
ENDBRANCH  15  17
ENDBRANCH   7  15
TORSDOF 2
ENDMDL
MODEL 6
REMARK VINA RESULT:      -7.5      4.484      6.321
REMARK  2 active torsions:
REMARK  status: ('A' for Active; 'I' for Inactive)
REMARK    1  A    between atoms: C6_7  and  N2_8 
REMARK    2  A    between atoms: N2_8  and  C7_9 
ROOT
HETATM    1  C1  UNL     1      18.127  -0.516  52.425  1.00  0.00     0.023 C 
HETATM    2  C2  UNL     1      19.306   0.088  52.447  1.00  0.00    -0.021 A 
HETATM    3  C3  UNL     1      20.445  -0.407  53.200  1.00  0.00    -0.013 A 
HETATM    4  C4  UNL     1      20.744  -1.420  53.996  1.00  0.00     0.008 A 
HETATM    5  C5  UNL     1      22.000  -1.760  54.686  1.00  0.00     0.179 A 
HETATM    6  N1  UNL     1      23.007  -0.765  54.382  1.00  0.00    -0.268 NA
HETATM    7  C6  UNL     1      22.849   0.254  53.634  1.00  0.00     0.133 A 
HETATM    8  C12 UNL     1      21.563   0.505  52.993  1.00  0.00     0.052 A 
HETATM    9  C13 UNL     1      21.151   1.489  52.175  1.00  0.00     0.101 A 
HETATM   10  O1  UNL     1      21.788   2.607  51.653  1.00  0.00    -0.311 OA
HETATM   11  P1  UNL     1      20.738   3.967  51.270  1.00  0.00     0.137 P 
HETATM   12  C14 UNL     1      19.124   3.671  51.609  1.00  0.00     0.178 C 
HETATM   13  O2  UNL     1      18.915   2.416  52.125  1.00  0.00    -0.343 OA
HETATM   14  C15 UNL     1      19.739   1.320  51.772  1.00  0.00     0.219 A 
ENDROOT
BRANCH   7  15
HETATM   15  N2  UNL     1      23.922   1.182  53.400  1.00  0.00    -0.363 N 
HETATM   16  H6  UNL     1      23.738   2.195  53.537  1.00  0.00     0.162 HD
BRANCH  15  17
HETATM   17  C7  UNL     1      25.198   0.630  52.985  1.00  0.00     0.134 A 
HETATM   18  C8  UNL     1      25.858  -0.146  54.044  1.00  0.00     0.046 A 
HETATM   19  C9  UNL     1      27.046   0.364  54.339  1.00  0.00     0.136 A 
HETATM   20  F1  UNL     1      27.951  -0.079  55.266  1.00  0.00    -0.205 F 
HETATM   21  C10 UNL     1      27.242   1.521  53.480  1.00  0.00     0.070 A 
HETATM   22 CL1  UNL     1      28.666   2.561  53.470  1.00  0.00    -0.081 Cl
HETATM   23  C11 UNL     1      26.192   1.715  52.674  1.00  0.00     0.029 A 
ENDBRANCH  15  17
ENDBRANCH   7  15
TORSDOF 2
ENDMDL
MODEL 7
REMARK VINA RESULT:      -7.4      2.084      2.655
REMARK  2 active torsions:
REMARK  status: ('A' for Active; 'I' for Inactive)
REMARK    1  A    between atoms: C6_7  and  N2_8 
REMARK    2  A    between atoms: N2_8  and  C7_9 
ROOT
HETATM    1  C1  UNL     1      22.251  -1.031  54.492  1.00  0.00     0.023 C 
HETATM    2  C2  UNL     1      22.853  -0.269  53.591  1.00  0.00    -0.021 A 
HETATM    3  C3  UNL     1      22.171   0.303  52.443  1.00  0.00    -0.013 A 
HETATM    4  C4  UNL     1      20.958   0.318  51.915  1.00  0.00     0.008 A 
HETATM    5  C5  UNL     1      20.448   0.980  50.702  1.00  0.00     0.179 A 
HETATM    6  N1  UNL     1      21.522   1.703  50.054  1.00  0.00    -0.268 NA
HETATM    7  C6  UNL     1      22.728   1.768  50.457  1.00  0.00     0.133 A 
HETATM    8  C12 UNL     1      23.137   1.076  51.674  1.00  0.00     0.052 A 
HETATM    9  C13 UNL     1      24.326   0.992  52.296  1.00  0.00     0.101 A 
HETATM   10  O1  UNL     1      25.577   1.523  52.010  1.00  0.00    -0.311 OA
HETATM   11  P1  UNL     1      26.948   0.600  52.615  1.00  0.00     0.137 P 
HETATM   12  C14 UNL     1      26.497  -0.783  53.446  1.00  0.00     0.178 C 
HETATM   13  O2  UNL     1      25.135  -0.945  53.502  1.00  0.00    -0.343 OA
HETATM   14  C15 UNL     1      24.255   0.164  53.518  1.00  0.00     0.219 A 
ENDROOT
BRANCH   7  15
HETATM   15  N2  UNL     1      23.718   2.519  49.732  1.00  0.00    -0.363 N 
HETATM   16  H6  UNL     1      24.269   2.031  48.998  1.00  0.00     0.162 HD
BRANCH  15  17
HETATM   17  C7  UNL     1      23.877   3.918  50.080  1.00  0.00     0.134 A 
HETATM   18  C8  UNL     1      23.188   4.822  49.150  1.00  0.00     0.046 A 
HETATM   19  C9  UNL     1      24.042   5.662  48.580  1.00  0.00     0.136 A 
HETATM   20  F1  UNL     1      23.779   6.645  47.665  1.00  0.00    -0.205 F 
HETATM   21  C10 UNL     1      25.361   5.357  49.109  1.00  0.00     0.070 A 
HETATM   22 CL1  UNL     1      26.857   6.186  48.677  1.00  0.00    -0.081 Cl
HETATM   23  C11 UNL     1      25.315   4.348  49.987  1.00  0.00     0.029 A 
ENDBRANCH  15  17
ENDBRANCH   7  15
TORSDOF 2
ENDMDL
MODEL 8
REMARK VINA RESULT:      -7.4      2.327      2.637
REMARK  2 active torsions:
REMARK  status: ('A' for Active; 'I' for Inactive)
REMARK    1  A    between atoms: C6_7  and  N2_8 
REMARK    2  A    between atoms: N2_8  and  C7_9 
ROOT
HETATM    1  C1  UNL     1      24.511  -1.296  55.557  1.00  0.00     0.023 C 
HETATM    2  C2  UNL     1      24.921  -0.408  54.665  1.00  0.00    -0.021 A 
HETATM    3  C3  UNL     1      24.110   0.030  53.542  1.00  0.00    -0.013 A 
HETATM    4  C4  UNL     1      22.910  -0.199  53.034  1.00  0.00     0.008 A 
HETATM    5  C5  UNL     1      22.247   0.365  51.845  1.00  0.00     0.179 A 
HETATM    6  N1  UNL     1      23.132   1.309  51.197  1.00  0.00    -0.268 NA
HETATM    7  C6  UNL     1      24.307   1.619  51.581  1.00  0.00     0.133 A 
HETATM    8  C12 UNL     1      24.877   1.004  52.775  1.00  0.00     0.052 A 
HETATM    9  C13 UNL     1      26.070   1.159  53.375  1.00  0.00     0.101 A 
HETATM   10  O1  UNL     1      27.176   1.947  53.081  1.00  0.00    -0.311 OA
HETATM   11  P1  UNL     1      28.721   1.320  53.643  1.00  0.00     0.137 P 
HETATM   12  C14 UNL     1      28.588  -0.143  54.448  1.00  0.00     0.178 C 
HETATM   13  O2  UNL     1      27.291  -0.588  54.523  1.00  0.00    -0.343 OA
HETATM   14  C15 UNL     1      26.200   0.311  54.579  1.00  0.00     0.219 A 
ENDROOT
BRANCH   7  15
HETATM   15  N2  UNL     1      25.102   2.574  50.858  1.00  0.00    -0.363 N 
HETATM   16  H6  UNL     1      25.860   2.221  50.242  1.00  0.00     0.162 HD
BRANCH  15  17
HETATM   17  C7  UNL     1      24.784   3.978  51.043  1.00  0.00     0.134 A 
HETATM   18  C8  UNL     1      23.756   4.202  52.068  1.00  0.00     0.046 A 
HETATM   19  C9  UNL     1      22.701   4.823  51.557  1.00  0.00     0.136 A 
HETATM   20  F1  UNL     1      21.551   5.201  52.196  1.00  0.00    -0.205 F 
HETATM   21  C10 UNL     1      22.976   5.047  50.147  1.00  0.00     0.070 A 
HETATM   22 CL1  UNL     1      21.891   5.841  49.005  1.00  0.00    -0.081 Cl
HETATM   23  C11 UNL     1      24.177   4.572  49.801  1.00  0.00     0.029 A 
ENDBRANCH  15  17
ENDBRANCH   7  15
TORSDOF 2
ENDMDL
MODEL 9
REMARK VINA RESULT:      -7.4      3.844      6.094
REMARK  2 active torsions:
REMARK  status: ('A' for Active; 'I' for Inactive)
REMARK    1  A    between atoms: C6_7  and  N2_8 
REMARK    2  A    between atoms: N2_8  and  C7_9 
ROOT
HETATM    1  C1  UNL     1      21.939   4.308  48.728  1.00  0.00     0.023 C 
HETATM    2  C2  UNL     1      23.098   3.880  49.205  1.00  0.00    -0.021 A 
HETATM    3  C3  UNL     1      23.213   2.892  50.262  1.00  0.00    -0.013 A 
HETATM    4  C4  UNL     1      22.420   2.161  51.029  1.00  0.00     0.008 A 
HETATM    5  C5  UNL     1      22.738   1.181  52.081  1.00  0.00     0.179 A 
HETATM    6  N1  UNL     1      24.175   1.071  52.224  1.00  0.00    -0.268 NA
HETATM    7  C6  UNL     1      25.045   1.714  51.552  1.00  0.00     0.133 A 
HETATM    8  C12 UNL     1      24.628   2.666  50.528  1.00  0.00     0.052 A 
HETATM    9  C13 UNL     1      25.337   3.453  49.700  1.00  0.00     0.101 A 
HETATM   10  O1  UNL     1      26.701   3.644  49.522  1.00  0.00    -0.311 OA
HETATM   11  P1  UNL     1      27.170   5.226  48.910  1.00  0.00     0.137 P 
HETATM   12  C14 UNL     1      25.867   6.244  48.645  1.00  0.00     0.178 C 
HETATM   13  O2  UNL     1      24.666   5.656  48.955  1.00  0.00    -0.343 OA
HETATM   14  C15 UNL     1      24.465   4.261  48.822  1.00  0.00     0.219 A 
ENDROOT
BRANCH   7  15
HETATM   15  N2  UNL     1      26.452   1.526  51.779  1.00  0.00    -0.363 N 
HETATM   16  H6  UNL     1      27.108   1.705  50.992  1.00  0.00     0.162 HD
BRANCH  15  17
HETATM   17  C7  UNL     1      26.860   1.096  53.103  1.00  0.00     0.134 A 
HETATM   18  C8  UNL     1      27.715   2.075  53.785  1.00  0.00     0.046 A 
HETATM   19  C9  UNL     1      28.893   1.549  54.091  1.00  0.00     0.136 A 
HETATM   20  F1  UNL     1      29.948   2.147  54.728  1.00  0.00    -0.205 F 
HETATM   21  C10 UNL     1      28.883   0.173  53.622  1.00  0.00     0.070 A 
HETATM   22 CL1  UNL     1      30.214  -0.974  53.782  1.00  0.00    -0.081 Cl
HETATM   23  C11 UNL     1      27.720  -0.137  53.040  1.00  0.00     0.029 A 
ENDBRANCH  15  17
ENDBRANCH   7  15
TORSDOF 2
ENDMDL
