MODEL 1
REMARK VINA RESULT:      -6.6      0.000      0.000
REMARK  8 active torsions:
REMARK  status: ('A' for Active; 'I' for Inactive)
REMARK    1  A    between atoms: N1_2  and  C2_3 
REMARK    2  A    between atoms: N1_2  and  C4_6 
REMARK    3  A    between atoms: C2_3  and  C3_4 
REMARK    4  A    between atoms: C3_4  and  O1_5 
REMARK    5  A    between atoms: C4_6  and  C5_7 
REMARK    6  A    between atoms: C5_7  and  C6_8 
REMARK    7  A    between atoms: C11_16  and  C12_17 
REMARK    8  A    between atoms: C16_21  and  P1_22 
ROOT
HETATM    1  C6  UNL     1      24.531   2.958  50.111  1.00  0.00    -0.043 C 
HETATM    2  C7  UNL     1      23.503   3.121  49.157  1.00  0.00     0.018 C 
HETATM    3  C8  UNL     1      22.017   2.826  49.585  1.00  0.00    -0.020 C 
HETATM    4  C9  UNL     1      21.272   3.932  50.122  1.00  0.00     0.101 C 
HETATM    5  N2  UNL     1      21.603   4.125  51.603  1.00  0.00    -0.348 N 
HETATM    6  C10 UNL     1      22.804   3.522  52.308  1.00  0.00     0.157 C 
HETATM    7  N3  UNL     1      23.730   3.894  53.197  1.00  0.00    -0.159 NA
HETATM    8  N4  UNL     1      24.984   3.518  52.554  1.00  0.00    -0.292 N 
HETATM    9  C11 UNL     1      24.711   2.550  51.551  1.00  0.00     0.106 C 
HETATM   10  C15 UNL     1      23.310   2.073  51.998  1.00  0.00     0.034 C 
HETATM   11  C16 UNL     1      22.571   0.890  52.061  1.00  0.00    -0.024 C 
HETATM   12  C17 UNL     1      21.781   0.720  50.756  1.00  0.00     0.013 C 
HETATM   13  C18 UNL     1      21.422   1.387  49.567  1.00  0.00     0.013 C 
HETATM   14  H15 UNL     1      20.962   4.725  52.171  1.00  0.00     0.167 HD
HETATM   15  H16 UNL     1      25.647   4.146  53.124  1.00  0.00     0.184 HD
ENDROOT
BRANCH   1  16
HETATM   16  C5  UNL     1      25.819   3.293  49.429  1.00  0.00     0.067 C 
BRANCH  16  17
HETATM   17  C4  UNL     1      26.349   4.575  49.974  1.00  0.00     0.276 C 
BRANCH  17  18
HETATM   18  N1  UNL     1      25.896   5.736  49.209  1.00  0.00     0.086 N 
HETATM   19  C1  UNL     1      27.083   6.124  48.428  1.00  0.00     0.310 C 
BRANCH  18  20
HETATM   20  C2  UNL     1      25.588   6.846  50.073  1.00  0.00     0.297 C 
BRANCH  20  21
HETATM   21  C3  UNL     1      24.254   6.568  50.736  1.00  0.00     0.194 C 
BRANCH  21  22
HETATM   22  O1  UNL     1      24.450   6.676  52.116  1.00  0.00    -0.399 OA
HETATM   23  H8  UNL     1      23.623   7.058  52.527  1.00  0.00     0.209 HD
ENDBRANCH  21  22
ENDBRANCH  20  21
ENDBRANCH  18  20
ENDBRANCH  17  18
ENDBRANCH  16  17
ENDBRANCH   1  16
BRANCH   9  24
HETATM   24  C12 UNL     1      25.808   1.561  51.584  1.00  0.00     0.025 A 
HETATM   25  C13 UNL     1      27.058   1.536  52.317  1.00  0.00     0.008 A 
HETATM   26  C14 UNL     1      25.918   1.022  53.069  1.00  0.00     0.008 A 
ENDBRANCH   9  24
BRANCH  11  27
HETATM   27  P1  UNL     1      22.149  -0.556  53.105  1.00  0.00    -0.106 P 
HETATM   28  H22 UNL     1      23.096  -0.711  54.194  1.00  0.00     0.059 HD
HETATM   29  H23 UNL     1      22.401  -1.720  52.234  1.00  0.00     0.059 HD
ENDBRANCH  11  27
TORSDOF 8
ENDMDL
MODEL 2
REMARK VINA RESULT:      -6.6      2.810      4.609
REMARK  8 active torsions:
REMARK  status: ('A' for Active; 'I' for Inactive)
REMARK    1  A    between atoms: N1_2  and  C2_3 
REMARK    2  A    between atoms: N1_2  and  C4_6 
REMARK    3  A    between atoms: C2_3  and  C3_4 
REMARK    4  A    between atoms: C3_4  and  O1_5 
REMARK    5  A    between atoms: C4_6  and  C5_7 
REMARK    6  A    between atoms: C5_7  and  C6_8 
REMARK    7  A    between atoms: C11_16  and  C12_17 
REMARK    8  A    between atoms: C16_21  and  P1_22 
ROOT
HETATM    1  C6  UNL     1      25.496   2.434  51.204  1.00  0.00    -0.043 C 
HETATM    2  C7  UNL     1      25.878   3.177  50.065  1.00  0.00     0.018 C 
HETATM    3  C8  UNL     1      24.894   4.273  49.510  1.00  0.00    -0.020 C 
HETATM    4  C9  UNL     1      25.044   5.600  50.045  1.00  0.00     0.101 C 
HETATM    5  N2  UNL     1      24.324   5.713  51.390  1.00  0.00    -0.348 N 
HETATM    6  C10 UNL     1      23.865   4.535  52.229  1.00  0.00     0.157 C 
HETATM    7  N3  UNL     1      23.854   4.169  53.514  1.00  0.00    -0.159 NA
HETATM    8  N4  UNL     1      24.443   2.834  53.487  1.00  0.00    -0.292 N 
HETATM    9  C11 UNL     1      24.344   2.317  52.169  1.00  0.00     0.106 C 
HETATM   10  C15 UNL     1      23.252   3.245  51.586  1.00  0.00     0.034 C 
HETATM   11  C16 UNL     1      22.157   3.170  50.725  1.00  0.00    -0.024 C 
HETATM   12  C17 UNL     1      22.621   3.467  49.292  1.00  0.00     0.013 C 
HETATM   13  C18 UNL     1      23.725   3.922  48.542  1.00  0.00     0.013 C 
HETATM   14  H15 UNL     1      24.145   6.672  51.767  1.00  0.00     0.167 HD
HETATM   15  H16 UNL     1      24.724   2.767  54.525  1.00  0.00     0.184 HD
ENDROOT
BRANCH   1  16
HETATM   16  C5  UNL     1      26.605   1.473  51.492  1.00  0.00     0.067 C 
BRANCH  16  17
HETATM   17  C4  UNL     1      27.483   2.035  52.557  1.00  0.00     0.276 C 
BRANCH  17  18
HETATM   18  N1  UNL     1      27.693   1.097  53.658  1.00  0.00     0.086 N 
HETATM   19  C1  UNL     1      29.054   1.410  54.128  1.00  0.00     0.310 C 
BRANCH  18  20
HETATM   20  C2  UNL     1      27.719  -0.264  53.191  1.00  0.00     0.297 C 
BRANCH  20  21
HETATM   21  C3  UNL     1      29.057  -0.865  53.572  1.00  0.00     0.194 C 
BRANCH  21  22
HETATM   22  O1  UNL     1      28.930  -2.254  53.463  1.00  0.00    -0.399 OA
HETATM   23  H8  UNL     1      28.309  -2.574  54.177  1.00  0.00     0.209 HD
ENDBRANCH  21  22
ENDBRANCH  20  21
ENDBRANCH  18  20
ENDBRANCH  17  18
ENDBRANCH  16  17
ENDBRANCH   1  16
BRANCH   9  24
HETATM   24  C12 UNL     1      24.023   0.880  52.283  1.00  0.00     0.025 A 
HETATM   25  C13 UNL     1      23.960  -0.004  53.431  1.00  0.00     0.008 A 
HETATM   26  C14 UNL     1      22.734   0.751  53.193  1.00  0.00     0.008 A 
ENDBRANCH   9  24
BRANCH  11  27
HETATM   27  P1  UNL     1      20.352   2.867  50.624  1.00  0.00    -0.106 P 
HETATM   28  H22 UNL     1      19.989   2.281  49.347  1.00  0.00     0.059 HD
HETATM   29  H23 UNL     1      19.757   4.217  50.588  1.00  0.00     0.059 HD
ENDBRANCH  11  27
TORSDOF 8
ENDMDL
MODEL 3
REMARK VINA RESULT:      -6.5      3.070      5.946
REMARK  8 active torsions:
REMARK  status: ('A' for Active; 'I' for Inactive)
REMARK    1  A    between atoms: N1_2  and  C2_3 
REMARK    2  A    between atoms: N1_2  and  C4_6 
REMARK    3  A    between atoms: C2_3  and  C3_4 
REMARK    4  A    between atoms: C3_4  and  O1_5 
REMARK    5  A    between atoms: C4_6  and  C5_7 
REMARK    6  A    between atoms: C5_7  and  C6_8 
REMARK    7  A    between atoms: C11_16  and  C12_17 
REMARK    8  A    between atoms: C16_21  and  P1_22 
ROOT
HETATM    1  C6  UNL     1      23.017   1.858  50.922  1.00  0.00    -0.043 C 
HETATM    2  C7  UNL     1      23.812   1.109  51.817  1.00  0.00     0.018 C 
HETATM    3  C8  UNL     1      25.130   1.754  52.384  1.00  0.00    -0.020 C 
HETATM    4  C9  UNL     1      25.006   2.501  53.606  1.00  0.00     0.101 C 
HETATM    5  N2  UNL     1      24.504   3.917  53.313  1.00  0.00    -0.348 N 
HETATM    6  C10 UNL     1      23.861   4.355  52.010  1.00  0.00     0.157 C 
HETATM    7  N3  UNL     1      22.829   5.105  51.610  1.00  0.00    -0.159 NA
HETATM    8  N4  UNL     1      22.118   4.229  50.684  1.00  0.00    -0.292 N 
HETATM    9  C11 UNL     1      23.003   3.207  50.249  1.00  0.00     0.106 C 
HETATM   10  C15 UNL     1      24.364   3.842  50.619  1.00  0.00     0.034 C 
HETATM   11  C16 UNL     1      25.660   3.927  50.107  1.00  0.00    -0.024 C 
HETATM   12  C17 UNL     1      26.496   2.763  50.658  1.00  0.00     0.013 C 
HETATM   13  C18 UNL     1      26.475   1.713  51.598  1.00  0.00     0.013 C 
HETATM   14  H15 UNL     1      24.602   4.634  54.067  1.00  0.00     0.167 HD
HETATM   15  H16 UNL     1      21.165   4.732  50.695  1.00  0.00     0.184 HD
ENDROOT
BRANCH   1  16
HETATM   16  C5  UNL     1      21.852   1.001  50.546  1.00  0.00     0.067 C 
BRANCH  16  17
HETATM   17  C4  UNL     1      21.458   0.162  51.713  1.00  0.00     0.276 C 
BRANCH  17  18
HETATM   18  N1  UNL     1      20.024   0.228  51.989  1.00  0.00     0.086 N 
HETATM   19  C1  UNL     1      19.769   1.668  52.169  1.00  0.00     0.310 C 
BRANCH  18  20
HETATM   20  C2  UNL     1      19.700  -0.408  53.239  1.00  0.00     0.297 C 
BRANCH  20  21
HETATM   21  C3  UNL     1      20.896  -0.269  54.160  1.00  0.00     0.194 C 
BRANCH  21  22
HETATM   22  O1  UNL     1      20.946  -1.425  54.945  1.00  0.00    -0.399 OA
HETATM   23  H8  UNL     1      21.856  -1.494  55.354  1.00  0.00     0.209 HD
ENDBRANCH  21  22
ENDBRANCH  20  21
ENDBRANCH  18  20
ENDBRANCH  17  18
ENDBRANCH  16  17
ENDBRANCH   1  16
BRANCH   9  24
HETATM   24  C12 UNL     1      22.731   2.971  48.817  1.00  0.00     0.025 A 
HETATM   25  C13 UNL     1      21.678   3.454  47.945  1.00  0.00     0.008 A 
HETATM   26  C14 UNL     1      22.805   4.371  48.080  1.00  0.00     0.008 A 
ENDBRANCH   9  24
BRANCH  11  27
HETATM   27  P1  UNL     1      26.783   4.899  49.033  1.00  0.00    -0.106 P 
HETATM   28  H22 UNL     1      27.277   4.097  47.930  1.00  0.00     0.059 HD
HETATM   29  H23 UNL     1      27.973   5.138  49.872  1.00  0.00     0.059 HD
ENDBRANCH  11  27
TORSDOF 8
ENDMDL
MODEL 4
REMARK VINA RESULT:      -6.4      2.632      4.694
REMARK  8 active torsions:
REMARK  status: ('A' for Active; 'I' for Inactive)
REMARK    1  A    between atoms: N1_2  and  C2_3 
REMARK    2  A    between atoms: N1_2  and  C4_6 
REMARK    3  A    between atoms: C2_3  and  C3_4 
REMARK    4  A    between atoms: C3_4  and  O1_5 
REMARK    5  A    between atoms: C4_6  and  C5_7 
REMARK    6  A    between atoms: C5_7  and  C6_8 
REMARK    7  A    between atoms: C11_16  and  C12_17 
REMARK    8  A    between atoms: C16_21  and  P1_22 
ROOT
HETATM    1  C6  UNL     1      25.164   3.643  50.459  1.00  0.00    -0.043 C 
HETATM    2  C7  UNL     1      25.920   4.620  49.774  1.00  0.00     0.018 C 
HETATM    3  C8  UNL     1      25.273   6.028  49.502  1.00  0.00    -0.020 C 
HETATM    4  C9  UNL     1      25.468   7.031  50.514  1.00  0.00     0.101 C 
HETATM    5  N2  UNL     1      24.456   6.845  51.647  1.00  0.00    -0.348 N 
HETATM    6  C10 UNL     1      23.639   5.588  51.881  1.00  0.00     0.157 C 
HETATM    7  N3  UNL     1      23.253   4.825  52.909  1.00  0.00    -0.159 NA
HETATM    8  N4  UNL     1      23.636   3.481  52.490  1.00  0.00    -0.292 N 
HETATM    9  C11 UNL     1      23.801   3.470  51.080  1.00  0.00     0.106 C 
HETATM   10  C15 UNL     1      23.033   4.757  50.699  1.00  0.00     0.034 C 
HETATM   11  C16 UNL     1      22.191   5.220  49.688  1.00  0.00    -0.024 C 
HETATM   12  C17 UNL     1      23.038   5.868  48.584  1.00  0.00     0.013 C 
HETATM   13  C18 UNL     1      24.348   6.289  48.276  1.00  0.00     0.013 C 
HETATM   14  H15 UNL     1      24.324   7.637  52.316  1.00  0.00     0.167 HD
HETATM   15  H16 UNL     1      23.635   3.010  53.459  1.00  0.00     0.184 HD
ENDROOT
BRANCH   1  16
HETATM   16  C5  UNL     1      26.018   2.420  50.563  1.00  0.00     0.067 C 
BRANCH  16  17
HETATM   17  C4  UNL     1      26.700   2.404  51.888  1.00  0.00     0.276 C 
BRANCH  17  18
HETATM   18  N1  UNL     1      27.139   1.064  52.272  1.00  0.00     0.086 N 
HETATM   19  C1  UNL     1      25.892   0.389  52.673  1.00  0.00     0.310 C 
BRANCH  18  20
HETATM   20  C2  UNL     1      27.983   1.102  53.439  1.00  0.00     0.297 C 
BRANCH  20  21
HETATM   21  C3  UNL     1      28.605   2.481  53.522  1.00  0.00     0.194 C 
BRANCH  21  22
HETATM   22  O1  UNL     1      29.564   2.438  54.540  1.00  0.00    -0.399 OA
HETATM   23  H8  UNL     1      29.635   1.498  54.871  1.00  0.00     0.209 HD
ENDBRANCH  21  22
ENDBRANCH  20  21
ENDBRANCH  18  20
ENDBRANCH  17  18
ENDBRANCH  16  17
ENDBRANCH   1  16
BRANCH   9  24
HETATM   24  C12 UNL     1      23.263   2.187  50.585  1.00  0.00     0.025 A 
HETATM   25  C13 UNL     1      22.643   1.073  51.275  1.00  0.00     0.008 A 
HETATM   26  C14 UNL     1      21.719   2.151  50.935  1.00  0.00     0.008 A 
ENDBRANCH   9  24
BRANCH  11  27
HETATM   27  P1  UNL     1      20.445   5.378  49.150  1.00  0.00    -0.106 P 
HETATM   28  H22 UNL     1      19.623   5.948  50.201  1.00  0.00     0.059 HD
HETATM   29  H23 UNL     1      19.973   3.986  49.032  1.00  0.00     0.059 HD
ENDBRANCH  11  27
TORSDOF 8
ENDMDL
MODEL 5
REMARK VINA RESULT:      -6.3      2.597      4.911
REMARK  8 active torsions:
REMARK  status: ('A' for Active; 'I' for Inactive)
REMARK    1  A    between atoms: N1_2  and  C2_3 
REMARK    2  A    between atoms: N1_2  and  C4_6 
REMARK    3  A    between atoms: C2_3  and  C3_4 
REMARK    4  A    between atoms: C3_4  and  O1_5 
REMARK    5  A    between atoms: C4_6  and  C5_7 
REMARK    6  A    between atoms: C5_7  and  C6_8 
REMARK    7  A    between atoms: C11_16  and  C12_17 
REMARK    8  A    between atoms: C16_21  and  P1_22 
ROOT
HETATM    1  C6  UNL     1      23.339   2.192  52.062  1.00  0.00    -0.043 C 
HETATM    2  C7  UNL     1      24.429   3.041  51.771  1.00  0.00     0.018 C 
HETATM    3  C8  UNL     1      24.190   4.296  50.852  1.00  0.00    -0.020 C 
HETATM    4  C9  UNL     1      23.816   5.515  51.514  1.00  0.00     0.101 C 
HETATM    5  N2  UNL     1      22.315   5.517  51.815  1.00  0.00    -0.348 N 
HETATM    6  C10 UNL     1      21.426   4.288  51.788  1.00  0.00     0.157 C 
HETATM    7  N3  UNL     1      20.440   3.754  52.517  1.00  0.00    -0.159 NA
HETATM    8  N4  UNL     1      20.890   2.383  52.734  1.00  0.00    -0.292 N 
HETATM    9  C11 UNL     1      21.869   2.062  51.757  1.00  0.00     0.106 C 
HETATM   10  C15 UNL     1      21.589   3.165  50.709  1.00  0.00     0.034 C 
HETATM   11  C16 UNL     1      21.565   3.318  49.322  1.00  0.00    -0.024 C 
HETATM   12  C17 UNL     1      22.954   3.759  48.840  1.00  0.00     0.013 C 
HETATM   13  C18 UNL     1      24.213   4.198  49.297  1.00  0.00     0.013 C 
HETATM   14  H15 UNL     1      21.870   6.429  52.067  1.00  0.00     0.167 HD
HETATM   15  H16 UNL     1      20.269   2.148  53.582  1.00  0.00     0.184 HD
ENDROOT
BRANCH   1  16
HETATM   16  C5  UNL     1      23.858   1.095  52.935  1.00  0.00     0.067 C 
BRANCH  16  17
HETATM   17  C4  UNL     1      25.206   0.677  52.456  1.00  0.00     0.276 C 
BRANCH  17  18
HETATM   18  N1  UNL     1      25.942  -0.088  53.460  1.00  0.00     0.086 N 
HETATM   19  C1  UNL     1      24.884  -0.643  54.321  1.00  0.00     0.310 C 
BRANCH  18  20
HETATM   20  C2  UNL     1      26.744   0.772  54.292  1.00  0.00     0.297 C 
BRANCH  20  21
HETATM   21  C3  UNL     1      27.512   1.715  53.388  1.00  0.00     0.194 C 
BRANCH  21  22
HETATM   22  O1  UNL     1      27.782   2.868  54.132  1.00  0.00    -0.399 OA
HETATM   23  H8  UNL     1      27.006   3.492  54.046  1.00  0.00     0.209 HD
ENDBRANCH  21  22
ENDBRANCH  20  21
ENDBRANCH  18  20
ENDBRANCH  17  18
ENDBRANCH  16  17
ENDBRANCH   1  16
BRANCH   9  24
HETATM   24  C12 UNL     1      21.637   0.662  51.346  1.00  0.00     0.025 A 
HETATM   25  C13 UNL     1      20.774  -0.369  51.888  1.00  0.00     0.008 A 
HETATM   26  C14 UNL     1      20.110   0.528  50.949  1.00  0.00     0.008 A 
ENDBRANCH   9  24
BRANCH  11  27
HETATM   27  P1  UNL     1      20.513   3.215  47.824  1.00  0.00    -0.106 P 
HETATM   28  H22 UNL     1      19.621   2.073  47.888  1.00  0.00     0.059 HD
HETATM   29  H23 UNL     1      21.456   2.882  46.740  1.00  0.00     0.059 HD
ENDBRANCH  11  27
TORSDOF 8
ENDMDL
MODEL 6
REMARK VINA RESULT:      -6.3      2.676      5.567
REMARK  8 active torsions:
REMARK  status: ('A' for Active; 'I' for Inactive)
REMARK    1  A    between atoms: N1_2  and  C2_3 
REMARK    2  A    between atoms: N1_2  and  C4_6 
REMARK    3  A    between atoms: C2_3  and  C3_4 
REMARK    4  A    between atoms: C3_4  and  O1_5 
REMARK    5  A    between atoms: C4_6  and  C5_7 
REMARK    6  A    between atoms: C5_7  and  C6_8 
REMARK    7  A    between atoms: C11_16  and  C12_17 
REMARK    8  A    between atoms: C16_21  and  P1_22 
ROOT
HETATM    1  C6  UNL     1      22.971   2.159  50.394  1.00  0.00    -0.043 C 
HETATM    2  C7  UNL     1      23.805   1.449  51.286  1.00  0.00     0.018 C 
HETATM    3  C8  UNL     1      24.999   2.208  51.975  1.00  0.00    -0.020 C 
HETATM    4  C9  UNL     1      24.715   2.844  53.233  1.00  0.00     0.101 C 
HETATM    5  N2  UNL     1      24.055   4.205  53.002  1.00  0.00    -0.348 N 
HETATM    6  C10 UNL     1      23.432   4.654  51.693  1.00  0.00     0.157 C 
HETATM    7  N3  UNL     1      22.336   5.299  51.279  1.00  0.00    -0.159 NA
HETATM    8  N4  UNL     1      21.792   4.412  50.256  1.00  0.00    -0.292 N 
HETATM    9  C11 UNL     1      22.822   3.541  49.811  1.00  0.00     0.106 C 
HETATM   10  C15 UNL     1      24.070   4.309  50.305  1.00  0.00     0.034 C 
HETATM   11  C16 UNL     1      25.370   4.589  49.882  1.00  0.00    -0.024 C 
HETATM   12  C17 UNL     1      26.316   3.499  50.406  1.00  0.00     0.013 C 
HETATM   13  C18 UNL     1      26.378   2.389  51.273  1.00  0.00     0.013 C 
HETATM   14  H15 UNL     1      24.021   4.872  53.806  1.00  0.00     0.167 HD
HETATM   15  H16 UNL     1      20.785   4.792  50.240  1.00  0.00     0.184 HD
ENDROOT
BRANCH   1  16
HETATM   16  C5  UNL     1      21.945   1.194  49.892  1.00  0.00     0.067 C 
BRANCH  16  17
HETATM   17  C4  UNL     1      21.212   0.605  51.048  1.00  0.00     0.276 C 
BRANCH  17  18
HETATM   18  N1  UNL     1      19.761   0.691  50.891  1.00  0.00     0.086 N 
HETATM   19  C1  UNL     1      19.590   1.448  49.638  1.00  0.00     0.310 C 
BRANCH  18  20
HETATM   20  C2  UNL     1      19.166   1.481  51.937  1.00  0.00     0.297 C 
BRANCH  20  21
HETATM   21  C3  UNL     1      20.282   2.026  52.805  1.00  0.00     0.194 C 
BRANCH  21  22
HETATM   22  O1  UNL     1      20.251   3.419  52.687  1.00  0.00    -0.399 OA
HETATM   23  H8  UNL     1      20.770   3.681  51.874  1.00  0.00     0.209 HD
ENDBRANCH  21  22
ENDBRANCH  20  21
ENDBRANCH  18  20
ENDBRANCH  17  18
ENDBRANCH  16  17
ENDBRANCH   1  16
BRANCH   9  24
HETATM   24  C12 UNL     1      22.659   3.377  48.353  1.00  0.00     0.025 A 
HETATM   25  C13 UNL     1      21.631   3.842  47.441  1.00  0.00     0.008 A 
HETATM   26  C14 UNL     1      22.680   4.823  47.706  1.00  0.00     0.008 A 
ENDBRANCH   9  24
BRANCH  11  27
HETATM   27  P1  UNL     1      26.417   5.767  48.945  1.00  0.00    -0.106 P 
HETATM   28  H22 UNL     1      26.545   5.365  47.557  1.00  0.00     0.059 HD
HETATM   29  H23 UNL     1      27.768   5.579  49.506  1.00  0.00     0.059 HD
ENDBRANCH  11  27
TORSDOF 8
ENDMDL
MODEL 7
REMARK VINA RESULT:      -5.9      6.839      9.658
REMARK  8 active torsions:
REMARK  status: ('A' for Active; 'I' for Inactive)
REMARK    1  A    between atoms: N1_2  and  C2_3 
REMARK    2  A    between atoms: N1_2  and  C4_6 
REMARK    3  A    between atoms: C2_3  and  C3_4 
REMARK    4  A    between atoms: C3_4  and  O1_5 
REMARK    5  A    between atoms: C4_6  and  C5_7 
REMARK    6  A    between atoms: C5_7  and  C6_8 
REMARK    7  A    between atoms: C11_16  and  C12_17 
REMARK    8  A    between atoms: C16_21  and  P1_22 
ROOT
HETATM    1  C6  UNL     1      30.377   8.726  48.740  1.00  0.00    -0.043 C 
HETATM    2  C7  UNL     1      31.316   9.751  48.489  1.00  0.00     0.018 C 
HETATM    3  C8  UNL     1      30.803  11.127  47.922  1.00  0.00    -0.020 C 
HETATM    4  C9  UNL     1      30.436  12.124  48.890  1.00  0.00     0.101 C 
HETATM    5  N2  UNL     1      29.016  11.869  49.401  1.00  0.00    -0.348 N 
HETATM    6  C10 UNL     1      28.256  10.567  49.231  1.00  0.00     0.157 C 
HETATM    7  N3  UNL     1      27.466   9.769  49.958  1.00  0.00    -0.159 NA
HETATM    8  N4  UNL     1      28.074   8.454  49.792  1.00  0.00    -0.292 N 
HETATM    9  C11 UNL     1      28.895   8.472  48.633  1.00  0.00     0.106 C 
HETATM   10  C15 UNL     1      28.336   9.722  47.914  1.00  0.00     0.034 C 
HETATM   11  C16 UNL     1      28.058  10.154  46.617  1.00  0.00    -0.024 C 
HETATM   12  C17 UNL     1      29.295  10.862  46.046  1.00  0.00     0.013 C 
HETATM   13  C18 UNL     1      30.567  11.356  46.399  1.00  0.00     0.013 C 
HETATM   14  H15 UNL     1      28.537  12.643  49.915  1.00  0.00     0.167 HD
HETATM   15  H16 UNL     1      27.633   7.970  50.647  1.00  0.00     0.184 HD
ENDROOT
BRANCH   1  16
HETATM   16  C5  UNL     1      31.140   7.549  49.256  1.00  0.00     0.067 C 
BRANCH  16  17
HETATM   17  C4  UNL     1      32.519   7.567  48.691  1.00  0.00     0.276 C 
BRANCH  17  18
HETATM   18  N1  UNL     1      33.035   6.223  48.437  1.00  0.00     0.086 N 
HETATM   19  C1  UNL     1      33.744   6.359  47.152  1.00  0.00     0.310 C 
BRANCH  18  20
HETATM   20  C2  UNL     1      31.967   5.282  48.223  1.00  0.00     0.297 C 
BRANCH  20  21
HETATM   21  C3  UNL     1      32.543   4.072  47.517  1.00  0.00     0.194 C 
BRANCH  21  22
HETATM   22  O1  UNL     1      32.837   3.123  48.502  1.00  0.00    -0.399 OA
HETATM   23  H8  UNL     1      33.577   2.539  48.171  1.00  0.00     0.209 HD
ENDBRANCH  21  22
ENDBRANCH  20  21
ENDBRANCH  18  20
ENDBRANCH  17  18
ENDBRANCH  16  17
ENDBRANCH   1  16
BRANCH   9  24
HETATM   24  C12 UNL     1      28.729   7.169  47.957  1.00  0.00     0.025 A 
HETATM   25  C13 UNL     1      28.120   5.928  48.395  1.00  0.00     0.008 A 
HETATM   26  C14 UNL     1      27.175   6.890  47.835  1.00  0.00     0.008 A 
ENDBRANCH   9  24
BRANCH  11  27
HETATM   27  P1  UNL     1      26.778  10.227  45.306  1.00  0.00    -0.106 P 
HETATM   28  H22 UNL     1      26.572   8.924  44.703  1.00  0.00     0.059 HD
HETATM   29  H23 UNL     1      27.398  11.031  44.236  1.00  0.00     0.059 HD
ENDBRANCH  11  27
TORSDOF 8
ENDMDL
MODEL 8
REMARK VINA RESULT:      -5.9      4.922      7.674
REMARK  8 active torsions:
REMARK  status: ('A' for Active; 'I' for Inactive)
REMARK    1  A    between atoms: N1_2  and  C2_3 
REMARK    2  A    between atoms: N1_2  and  C4_6 
REMARK    3  A    between atoms: C2_3  and  C3_4 
REMARK    4  A    between atoms: C3_4  and  O1_5 
REMARK    5  A    between atoms: C4_6  and  C5_7 
REMARK    6  A    between atoms: C5_7  and  C6_8 
REMARK    7  A    between atoms: C11_16  and  C12_17 
REMARK    8  A    between atoms: C16_21  and  P1_22 
ROOT
HETATM    1  C6  UNL     1      28.243   6.850  47.857  1.00  0.00    -0.043 C 
HETATM    2  C7  UNL     1      28.908   7.567  46.836  1.00  0.00     0.018 C 
HETATM    3  C8  UNL     1      28.194   8.815  46.198  1.00  0.00    -0.020 C 
HETATM    4  C9  UNL     1      28.441  10.086  46.824  1.00  0.00     0.101 C 
HETATM    5  N2  UNL     1      27.534  10.260  48.044  1.00  0.00    -0.348 N 
HETATM    6  C10 UNL     1      26.781   9.136  48.731  1.00  0.00     0.157 C 
HETATM    7  N3  UNL     1      26.507   8.732  49.976  1.00  0.00    -0.159 NA
HETATM    8  N4  UNL     1      26.897   7.327  49.965  1.00  0.00    -0.292 N 
HETATM    9  C11 UNL     1      26.944   6.875  48.620  1.00  0.00     0.106 C 
HETATM   10  C15 UNL     1      26.105   7.974  47.927  1.00  0.00     0.034 C 
HETATM   11  C16 UNL     1      25.167   8.092  46.901  1.00  0.00    -0.024 C 
HETATM   12  C17 UNL     1      25.897   8.365  45.579  1.00  0.00     0.013 C 
HETATM   13  C18 UNL     1      27.162   8.675  45.039  1.00  0.00     0.013 C 
HETATM   14  H15 UNL     1      27.433  11.222  48.442  1.00  0.00     0.167 HD
HETATM   15  H16 UNL     1      26.992   7.183  51.028  1.00  0.00     0.184 HD
ENDROOT
BRANCH   1  16
HETATM   16  C5  UNL     1      29.142   5.726  48.260  1.00  0.00     0.067 C 
BRANCH  16  17
HETATM   17  C4  UNL     1      30.547   6.058  47.889  1.00  0.00     0.276 C 
BRANCH  17  18
HETATM   18  N1  UNL     1      31.480   5.846  48.994  1.00  0.00     0.086 N 
HETATM   19  C1  UNL     1      31.747   7.208  49.491  1.00  0.00     0.310 C 
BRANCH  18  20
HETATM   20  C2  UNL     1      32.737   5.323  48.527  1.00  0.00     0.297 C 
BRANCH  20  21
HETATM   21  C3  UNL     1      32.465   4.011  47.820  1.00  0.00     0.194 C 
BRANCH  21  22
HETATM   22  O1  UNL     1      33.392   3.082  48.305  1.00  0.00    -0.399 OA
HETATM   23  H8  UNL     1      34.157   3.579  48.713  1.00  0.00     0.209 HD
ENDBRANCH  21  22
ENDBRANCH  20  21
ENDBRANCH  18  20
ENDBRANCH  17  18
ENDBRANCH  16  17
ENDBRANCH   1  16
BRANCH   9  24
HETATM   24  C12 UNL     1      26.408   5.499  48.600  1.00  0.00     0.025 A 
HETATM   25  C13 UNL     1      25.973   4.620  49.668  1.00  0.00     0.008 A 
HETATM   26  C14 UNL     1      24.946   5.548  49.206  1.00  0.00     0.008 A 
ENDBRANCH   9  24
BRANCH  11  27
HETATM   27  P1  UNL     1      23.378   8.066  46.500  1.00  0.00    -0.106 P 
HETATM   28  H22 UNL     1      23.066   8.999  45.434  1.00  0.00     0.059 HD
HETATM   29  H23 UNL     1      22.729   8.643  47.693  1.00  0.00     0.059 HD
ENDBRANCH  11  27
TORSDOF 8
ENDMDL
MODEL 9
REMARK VINA RESULT:      -5.8      2.670      4.705
REMARK  8 active torsions:
REMARK  status: ('A' for Active; 'I' for Inactive)
REMARK    1  A    between atoms: N1_2  and  C2_3 
REMARK    2  A    between atoms: N1_2  and  C4_6 
REMARK    3  A    between atoms: C2_3  and  C3_4 
REMARK    4  A    between atoms: C3_4  and  O1_5 
REMARK    5  A    between atoms: C4_6  and  C5_7 
REMARK    6  A    between atoms: C5_7  and  C6_8 
REMARK    7  A    between atoms: C11_16  and  C12_17 
REMARK    8  A    between atoms: C16_21  and  P1_22 
ROOT
HETATM    1  C6  UNL     1      23.804   2.436  51.579  1.00  0.00    -0.043 C 
HETATM    2  C7  UNL     1      23.043   1.554  52.378  1.00  0.00     0.018 C 
HETATM    3  C8  UNL     1      21.516   1.359  52.050  1.00  0.00    -0.020 C 
HETATM    4  C9  UNL     1      21.188   0.310  51.123  1.00  0.00     0.101 C 
HETATM    5  N2  UNL     1      21.378   0.795  49.685  1.00  0.00    -0.348 N 
HETATM    6  C10 UNL     1      22.161   2.032  49.284  1.00  0.00     0.157 C 
HETATM    7  N3  UNL     1      23.040   2.396  48.345  1.00  0.00    -0.159 NA
HETATM    8  N4  UNL     1      24.126   2.992  49.114  1.00  0.00    -0.292 N 
HETATM    9  C11 UNL     1      23.633   3.355  50.396  1.00  0.00     0.106 C 
HETATM   10  C15 UNL     1      22.111   3.355  50.120  1.00  0.00     0.034 C 
HETATM   11  C16 UNL     1      20.977   4.084  50.479  1.00  0.00    -0.024 C 
HETATM   12  C17 UNL     1      20.352   3.458  51.734  1.00  0.00     0.013 C 
HETATM   13  C18 UNL     1      20.425   2.335  52.583  1.00  0.00     0.013 C 
HETATM   14  H15 UNL     1      20.948   0.228  48.919  1.00  0.00     0.167 HD
HETATM   15  H16 UNL     1      24.901   2.924  48.370  1.00  0.00     0.184 HD
ENDROOT
BRANCH   1  16
HETATM   16  C5  UNL     1      25.197   2.429  52.122  1.00  0.00     0.067 C 
BRANCH  16  17
HETATM   17  C4  UNL     1      25.812   1.091  51.891  1.00  0.00     0.276 C 
BRANCH  17  18
HETATM   18  N1  UNL     1      26.834   0.768  52.884  1.00  0.00     0.086 N 
HETATM   19  C1  UNL     1      26.162  -0.192  53.778  1.00  0.00     0.310 C 
BRANCH  18  20
HETATM   20  C2  UNL     1      27.168   1.916  53.686  1.00  0.00     0.297 C 
BRANCH  20  21
HETATM   21  C3  UNL     1      28.678   2.044  53.716  1.00  0.00     0.194 C 
BRANCH  21  22
HETATM   22  O1  UNL     1      29.017   3.106  52.872  1.00  0.00    -0.399 OA
HETATM   23  H8  UNL     1      29.627   3.724  53.367  1.00  0.00     0.209 HD
ENDBRANCH  21  22
ENDBRANCH  20  21
ENDBRANCH  18  20
ENDBRANCH  17  18
ENDBRANCH  16  17
ENDBRANCH   1  16
BRANCH   9  24
HETATM   24  C12 UNL     1      24.257   4.643  50.759  1.00  0.00     0.025 A 
HETATM   25  C13 UNL     1      25.288   5.430  50.109  1.00  0.00     0.008 A 
HETATM   26  C14 UNL     1      23.943   5.670  49.595  1.00  0.00     0.008 A 
ENDBRANCH   9  24
BRANCH  11  27
HETATM   27  P1  UNL     1      19.909   5.506  50.032  1.00  0.00    -0.106 P 
HETATM   28  H22 UNL     1      20.174   5.956  48.679  1.00  0.00     0.059 HD
HETATM   29  H23 UNL     1      20.393   6.607  50.885  1.00  0.00     0.059 HD
ENDBRANCH  11  27
TORSDOF 8
ENDMDL
