MODEL 1
REMARK VINA RESULT:      -7.7      0.000      0.000
REMARK  6 active torsions:
REMARK  status: ('A' for Active; 'I' for Inactive)
REMARK    1  A    between atoms: C2_2  and  O1_3 
REMARK    2  A    between atoms: O1_3  and  C3_4 
REMARK    3  A    between atoms: C3_4  and  C4_5 
REMARK    4  A    between atoms: C4_5  and  C5_6 
REMARK    5  A    between atoms: C9_12  and  N2_13 
REMARK    6  A    between atoms: N2_13  and  C10_14 
ROOT
HETATM    1  C5  UNL     1      24.787  -0.865  53.956  1.00  0.00     0.067 C 
HETATM    2  C6  UNL     1      24.424  -0.977  55.397  1.00  0.00     0.214 C 
HETATM    3  O2  UNL     1      23.250  -1.780  55.600  1.00  0.00    -0.256 OA
HETATM    4  N1  UNL     1      21.925  -1.451  55.307  1.00  0.00    -0.145 NA
HETATM    5  C7  UNL     1      21.568  -0.610  54.376  1.00  0.00     0.163 C 
HETATM    6  C8  UNL     1      22.485   0.132  53.482  1.00  0.00     0.055 A 
HETATM    7  C9  UNL     1      21.716   1.052  52.763  1.00  0.00     0.143 A 
HETATM    8  N3  UNL     1      22.373   1.826  51.889  1.00  0.00    -0.223 NA
HETATM    9  C16 UNL     1      23.702   1.724  51.712  1.00  0.00     0.235 A 
HETATM   10  N4  UNL     1      24.443   0.840  52.403  1.00  0.00    -0.245 NA
HETATM   11  C17 UNL     1      23.846   0.047  53.282  1.00  0.00     0.057 A 
ENDROOT
BRANCH   7  12
HETATM   12  N2  UNL     1      20.324   1.217  52.893  1.00  0.00    -0.340 N 
HETATM   13  H12 UNL     1      20.157   1.723  53.791  1.00  0.00     0.167 HD
BRANCH  12  14
HETATM   14  C10 UNL     1      19.316   0.786  51.989  1.00  0.00     0.033 A 
HETATM   15  C11 UNL     1      19.217   1.432  50.790  1.00  0.00     0.032 A 
HETATM   16  C12 UNL     1      18.205   0.954  49.956  1.00  0.00     0.044 A 
HETATM   17  C13 UNL     1      17.371  -0.079  50.302  1.00  0.00     0.116 A 
HETATM   18  F1  UNL     1      16.398  -0.512  49.457  1.00  0.00    -0.206 F 
HETATM   19  C14 UNL     1      17.542  -0.677  51.537  1.00  0.00     0.044 A 
HETATM   20  C15 UNL     1      18.529  -0.264  52.434  1.00  0.00     0.032 A 
ENDBRANCH  12  14
ENDBRANCH   7  12
BRANCH   1  21
HETATM   21  C4  UNL     1      26.225  -0.580  53.697  1.00  0.00     0.040 C 
BRANCH  21  22
HETATM   22  C3  UNL     1      26.950   0.114  54.810  1.00  0.00     0.175 C 
BRANCH  22  23
HETATM   23  O1  UNL     1      28.317  -0.319  54.883  1.00  0.00    -0.364 OA
BRANCH  23  24
HETATM   24  C2  UNL     1      29.300   0.273  54.073  1.00  0.00     0.124 C 
HETATM   25  C1  UNL     1      29.799  -0.894  53.695  1.00  0.00     0.037 C 
ENDBRANCH  23  24
ENDBRANCH  22  23
ENDBRANCH  21  22
ENDBRANCH   1  21
TORSDOF 6
ENDMDL
MODEL 2
REMARK VINA RESULT:      -7.7      3.784      7.521
REMARK  6 active torsions:
REMARK  status: ('A' for Active; 'I' for Inactive)
REMARK    1  A    between atoms: C2_2  and  O1_3 
REMARK    2  A    between atoms: O1_3  and  C3_4 
REMARK    3  A    between atoms: C3_4  and  C4_5 
REMARK    4  A    between atoms: C4_5  and  C5_6 
REMARK    5  A    between atoms: C9_12  and  N2_13 
REMARK    6  A    between atoms: N2_13  and  C10_14 
ROOT
HETATM    1  C5  UNL     1      20.450   1.388  52.743  1.00  0.00     0.067 C 
HETATM    2  C6  UNL     1      19.881   0.023  52.553  1.00  0.00     0.214 C 
HETATM    3  O2  UNL     1      19.956  -0.767  53.750  1.00  0.00    -0.256 OA
HETATM    4  N1  UNL     1      21.091  -1.337  54.331  1.00  0.00    -0.145 NA
HETATM    5  C7  UNL     1      22.299  -0.865  54.194  1.00  0.00     0.163 C 
HETATM    6  C8  UNL     1      22.676   0.335  53.416  1.00  0.00     0.055 A 
HETATM    7  C9  UNL     1      24.073   0.389  53.377  1.00  0.00     0.143 A 
HETATM    8  N3  UNL     1      24.614   1.418  52.711  1.00  0.00    -0.223 NA
HETATM    9  C16 UNL     1      23.854   2.350  52.110  1.00  0.00     0.235 A 
HETATM   10  N4  UNL     1      22.511   2.300  52.146  1.00  0.00    -0.245 NA
HETATM   11  C17 UNL     1      21.920   1.304  52.791  1.00  0.00     0.057 A 
ENDROOT
BRANCH   7  12
HETATM   12  N2  UNL     1      24.933  -0.548  53.980  1.00  0.00    -0.340 N 
HETATM   13  H12 UNL     1      24.332  -1.251  54.464  1.00  0.00     0.167 HD
BRANCH  12  14
HETATM   14  C10 UNL     1      26.354  -0.558  53.951  1.00  0.00     0.033 A 
HETATM   15  C11 UNL     1      27.015   0.202  54.874  1.00  0.00     0.032 A 
HETATM   16  C12 UNL     1      28.407   0.143  54.783  1.00  0.00     0.044 A 
HETATM   17  C13 UNL     1      29.068  -0.614  53.848  1.00  0.00     0.116 A 
HETATM   18  F1  UNL     1      30.426  -0.641  53.797  1.00  0.00    -0.206 F 
HETATM   19  C14 UNL     1      28.319  -1.353  52.952  1.00  0.00     0.044 A 
HETATM   20  C15 UNL     1      26.922  -1.353  52.971  1.00  0.00     0.032 A 
ENDBRANCH  12  14
ENDBRANCH   7  12
BRANCH   1  21
HETATM   21  C4  UNL     1      19.914   2.420  51.813  1.00  0.00     0.040 C 
BRANCH  21  22
HETATM   22  C3  UNL     1      19.342   1.892  50.533  1.00  0.00     0.175 C 
BRANCH  22  23
HETATM   23  O1  UNL     1      20.265   2.061  49.446  1.00  0.00    -0.364 OA
BRANCH  23  24
HETATM   24  C2  UNL     1      21.191   1.053  49.129  1.00  0.00     0.124 C 
HETATM   25  C1  UNL     1      22.036   1.901  48.565  1.00  0.00     0.037 C 
ENDBRANCH  23  24
ENDBRANCH  22  23
ENDBRANCH  21  22
ENDBRANCH   1  21
TORSDOF 6
ENDMDL
MODEL 3
REMARK VINA RESULT:      -7.6      3.844      8.211
REMARK  6 active torsions:
REMARK  status: ('A' for Active; 'I' for Inactive)
REMARK    1  A    between atoms: C2_2  and  O1_3 
REMARK    2  A    between atoms: O1_3  and  C3_4 
REMARK    3  A    between atoms: C3_4  and  C4_5 
REMARK    4  A    between atoms: C4_5  and  C5_6 
REMARK    5  A    between atoms: C9_12  and  N2_13 
REMARK    6  A    between atoms: N2_13  and  C10_14 
ROOT
HETATM    1  C5  UNL     1      20.743   1.264  52.838  1.00  0.00     0.067 C 
HETATM    2  C6  UNL     1      20.082  -0.070  52.922  1.00  0.00     0.214 C 
HETATM    3  O2  UNL     1      20.273  -0.691  54.204  1.00  0.00    -0.256 OA
HETATM    4  N1  UNL     1      21.445  -1.254  54.716  1.00  0.00    -0.145 NA
HETATM    5  C7  UNL     1      22.646  -0.893  54.363  1.00  0.00     0.163 C 
HETATM    6  C8  UNL     1      22.979   0.158  53.376  1.00  0.00     0.055 A 
HETATM    7  C9  UNL     1      24.359   0.107  53.157  1.00  0.00     0.143 A 
HETATM    8  N3  UNL     1      24.860   0.992  52.285  1.00  0.00    -0.223 NA
HETATM    9  C16 UNL     1      24.078   1.884  51.653  1.00  0.00     0.235 A 
HETATM   10  N4  UNL     1      22.751   1.935  51.863  1.00  0.00    -0.245 NA
HETATM   11  C17 UNL     1      22.199   1.083  52.715  1.00  0.00     0.057 A 
ENDROOT
BRANCH   7  12
HETATM   12  N2  UNL     1      25.242  -0.797  53.779  1.00  0.00    -0.340 N 
HETATM   13  H12 UNL     1      24.657  -1.525  54.248  1.00  0.00     0.167 HD
BRANCH  12  14
HETATM   14  C10 UNL     1      26.662  -0.751  53.784  1.00  0.00     0.033 A 
HETATM   15  C11 UNL     1      27.329  -1.566  52.914  1.00  0.00     0.032 A 
HETATM   16  C12 UNL     1      28.720  -1.466  52.977  1.00  0.00     0.044 A 
HETATM   17  C13 UNL     1      29.375  -0.622  53.838  1.00  0.00     0.116 A 
HETATM   18  F1  UNL     1      30.732  -0.558  53.864  1.00  0.00    -0.206 F 
HETATM   19  C14 UNL     1      28.620   0.168  54.685  1.00  0.00     0.044 A 
HETATM   20  C15 UNL     1      27.224   0.133  54.690  1.00  0.00     0.032 A 
ENDBRANCH  12  14
ENDBRANCH   7  12
BRANCH   1  21
HETATM   21  C4  UNL     1      20.143   2.193  51.841  1.00  0.00     0.040 C 
BRANCH  21  22
HETATM   22  C3  UNL     1      18.658   2.082  51.676  1.00  0.00     0.175 C 
BRANCH  22  23
HETATM   23  O1  UNL     1      18.014   3.337  51.945  1.00  0.00    -0.364 OA
BRANCH  23  24
HETATM   24  C2  UNL     1      17.081   3.872  51.042  1.00  0.00     0.124 C 
HETATM   25  C1  UNL     1      16.263   4.268  52.004  1.00  0.00     0.037 C 
ENDBRANCH  23  24
ENDBRANCH  22  23
ENDBRANCH  21  22
ENDBRANCH   1  21
TORSDOF 6
ENDMDL
MODEL 4
REMARK VINA RESULT:      -7.1      4.305      7.838
REMARK  6 active torsions:
REMARK  status: ('A' for Active; 'I' for Inactive)
REMARK    1  A    between atoms: C2_2  and  O1_3 
REMARK    2  A    between atoms: O1_3  and  C3_4 
REMARK    3  A    between atoms: C3_4  and  C4_5 
REMARK    4  A    between atoms: C4_5  and  C5_6 
REMARK    5  A    between atoms: C9_12  and  N2_13 
REMARK    6  A    between atoms: N2_13  and  C10_14 
ROOT
HETATM    1  C5  UNL     1      21.446   2.704  51.397  1.00  0.00     0.067 C 
HETATM    2  C6  UNL     1      20.572   1.496  51.401  1.00  0.00     0.214 C 
HETATM    3  O2  UNL     1      20.373   0.975  52.725  1.00  0.00    -0.256 OA
HETATM    4  N1  UNL     1      21.293   0.295  53.527  1.00  0.00    -0.145 NA
HETATM    5  C7  UNL     1      22.586   0.441  53.441  1.00  0.00     0.163 C 
HETATM    6  C8  UNL     1      23.296   1.335  52.501  1.00  0.00     0.055 A 
HETATM    7  C9  UNL     1      24.663   1.061  52.611  1.00  0.00     0.143 A 
HETATM    8  N3  UNL     1      25.482   1.778  51.830  1.00  0.00    -0.223 NA
HETATM    9  C16 UNL     1      25.016   2.713  50.985  1.00  0.00     0.235 A 
HETATM   10  N4  UNL     1      23.702   2.979  50.877  1.00  0.00    -0.245 NA
HETATM   11  C17 UNL     1      22.844   2.300  51.626  1.00  0.00     0.057 A 
ENDROOT
BRANCH   7  12
HETATM   12  N2  UNL     1      25.225   0.098  53.471  1.00  0.00    -0.340 N 
HETATM   13  H12 UNL     1      24.441  -0.322  54.018  1.00  0.00     0.167 HD
BRANCH  12  14
HETATM   14  C10 UNL     1      26.597  -0.254  53.592  1.00  0.00     0.033 A 
HETATM   15  C11 UNL     1      27.072  -1.252  52.790  1.00  0.00     0.032 A 
HETATM   16  C12 UNL     1      28.426  -1.542  52.967  1.00  0.00     0.044 A 
HETATM   17  C13 UNL     1      29.224  -0.884  53.868  1.00  0.00     0.116 A 
HETATM   18  F1  UNL     1      30.539  -1.201  54.006  1.00  0.00    -0.206 F 
HETATM   19  C14 UNL     1      28.660   0.114  54.641  1.00  0.00     0.044 A 
HETATM   20  C15 UNL     1      27.314   0.470  54.530  1.00  0.00     0.032 A 
ENDBRANCH  12  14
ENDBRANCH   7  12
BRANCH   1  21
HETATM   21  C4  UNL     1      21.242   3.615  50.237  1.00  0.00     0.040 C 
BRANCH  21  22
HETATM   22  C3  UNL     1      20.626   4.941  50.566  1.00  0.00     0.175 C 
BRANCH  22  23
HETATM   23  O1  UNL     1      21.577   5.807  51.205  1.00  0.00    -0.364 OA
BRANCH  23  24
HETATM   24  C2  UNL     1      21.697   7.151  50.815  1.00  0.00     0.124 C 
HETATM   25  C1  UNL     1      23.015   7.081  50.708  1.00  0.00     0.037 C 
ENDBRANCH  23  24
ENDBRANCH  22  23
ENDBRANCH  21  22
ENDBRANCH   1  21
TORSDOF 6
ENDMDL
MODEL 5
REMARK VINA RESULT:      -7.1      3.495      4.911
REMARK  6 active torsions:
REMARK  status: ('A' for Active; 'I' for Inactive)
REMARK    1  A    between atoms: C2_2  and  O1_3 
REMARK    2  A    between atoms: O1_3  and  C3_4 
REMARK    3  A    between atoms: C3_4  and  C4_5 
REMARK    4  A    between atoms: C4_5  and  C5_6 
REMARK    5  A    between atoms: C9_12  and  N2_13 
REMARK    6  A    between atoms: N2_13  and  C10_14 
ROOT
HETATM    1  C5  UNL     1      25.701   1.332  52.929  1.00  0.00     0.067 C 
HETATM    2  C6  UNL     1      26.627   1.184  51.770  1.00  0.00     0.214 C 
HETATM    3  O2  UNL     1      27.122   2.449  51.305  1.00  0.00    -0.256 OA
HETATM    4  N1  UNL     1      26.425   3.436  50.604  1.00  0.00    -0.145 NA
HETATM    5  C7  UNL     1      25.135   3.614  50.677  1.00  0.00     0.163 C 
HETATM    6  C8  UNL     1      24.197   2.820  51.501  1.00  0.00     0.055 A 
HETATM    7  C9  UNL     1      22.900   3.213  51.157  1.00  0.00     0.143 A 
HETATM    8  N3  UNL     1      21.898   2.601  51.803  1.00  0.00    -0.223 NA
HETATM    9  C16 UNL     1      22.127   1.658  52.734  1.00  0.00     0.235 A 
HETATM   10  N4  UNL     1      23.374   1.279  53.065  1.00  0.00    -0.245 NA
HETATM   11  C17 UNL     1      24.405   1.850  52.458  1.00  0.00     0.057 A 
ENDROOT
BRANCH   7  12
HETATM   12  N2  UNL     1      22.582   4.191  50.195  1.00  0.00    -0.340 N 
HETATM   13  H12 UNL     1      22.523   5.106  50.694  1.00  0.00     0.167 HD
BRANCH  12  14
HETATM   14  C10 UNL     1      22.374   3.995  48.803  1.00  0.00     0.033 A 
HETATM   15  C11 UNL     1      22.380   2.713  48.332  1.00  0.00     0.032 A 
HETATM   16  C12 UNL     1      22.171   2.600  46.956  1.00  0.00     0.044 A 
HETATM   17  C13 UNL     1      21.975   3.681  46.134  1.00  0.00     0.116 A 
HETATM   18  F1  UNL     1      21.774   3.523  44.799  1.00  0.00    -0.206 F 
HETATM   19  C14 UNL     1      21.984   4.944  46.696  1.00  0.00     0.044 A 
HETATM   20  C15 UNL     1      22.186   5.150  48.062  1.00  0.00     0.032 A 
ENDBRANCH  12  14
ENDBRANCH   7  12
BRANCH   1  21
HETATM   21  C4  UNL     1      25.611   0.135  53.811  1.00  0.00     0.040 C 
BRANCH  21  22
HETATM   22  C3  UNL     1      26.493   0.167  55.022  1.00  0.00     0.175 C 
BRANCH  22  23
HETATM   23  O1  UNL     1      27.749  -0.480  54.761  1.00  0.00    -0.364 OA
BRANCH  23  24
HETATM   24  C2  UNL     1      28.927   0.273  54.622  1.00  0.00     0.124 C 
HETATM   25  C1  UNL     1      29.477  -0.601  53.793  1.00  0.00     0.037 C 
ENDBRANCH  23  24
ENDBRANCH  22  23
ENDBRANCH  21  22
ENDBRANCH   1  21
TORSDOF 6
ENDMDL
MODEL 6
REMARK VINA RESULT:      -7.1      1.906      2.893
REMARK  6 active torsions:
REMARK  status: ('A' for Active; 'I' for Inactive)
REMARK    1  A    between atoms: C2_2  and  O1_3 
REMARK    2  A    between atoms: O1_3  and  C3_4 
REMARK    3  A    between atoms: C3_4  and  C4_5 
REMARK    4  A    between atoms: C4_5  and  C5_6 
REMARK    5  A    between atoms: C9_12  and  N2_13 
REMARK    6  A    between atoms: N2_13  and  C10_14 
ROOT
HETATM    1  C5  UNL     1      25.453   0.914  53.543  1.00  0.00     0.067 C 
HETATM    2  C6  UNL     1      26.211   1.115  52.276  1.00  0.00     0.214 C 
HETATM    3  O2  UNL     1      25.784   2.290  51.568  1.00  0.00    -0.256 OA
HETATM    4  N1  UNL     1      24.591   2.482  50.867  1.00  0.00    -0.145 NA
HETATM    5  C7  UNL     1      23.478   1.857  51.133  1.00  0.00     0.163 C 
HETATM    6  C8  UNL     1      23.282   0.853  52.201  1.00  0.00     0.055 A 
HETATM    7  C9  UNL     1      22.009   0.301  52.031  1.00  0.00     0.143 A 
HETATM    8  N3  UNL     1      21.641  -0.638  52.913  1.00  0.00    -0.223 NA
HETATM    9  C16 UNL     1      22.453  -1.030  53.910  1.00  0.00     0.235 A 
HETATM   10  N4  UNL     1      23.678  -0.501  54.075  1.00  0.00    -0.245 NA
HETATM   11  C17 UNL     1      24.095   0.433  53.232  1.00  0.00     0.057 A 
ENDROOT
BRANCH   7  12
HETATM   12  N2  UNL     1      21.104   0.660  51.014  1.00  0.00    -0.340 N 
HETATM   13  H12 UNL     1      21.569   0.455  50.102  1.00  0.00     0.167 HD
BRANCH  12  14
HETATM   14  C10 UNL     1      19.799   1.200  51.171  1.00  0.00     0.033 A 
HETATM   15  C11 UNL     1      19.691   2.528  51.473  1.00  0.00     0.032 A 
HETATM   16  C12 UNL     1      18.380   2.986  51.613  1.00  0.00     0.044 A 
HETATM   17  C13 UNL     1      17.281   2.178  51.462  1.00  0.00     0.116 A 
HETATM   18  F1  UNL     1      16.022   2.668  51.608  1.00  0.00    -0.206 F 
HETATM   19  C14 UNL     1      17.482   0.845  51.157  1.00  0.00     0.044 A 
HETATM   20  C15 UNL     1      18.759   0.301  50.999  1.00  0.00     0.032 A 
ENDBRANCH  12  14
ENDBRANCH   7  12
BRANCH   1  21
HETATM   21  C4  UNL     1      26.172   0.124  54.580  1.00  0.00     0.040 C 
BRANCH  21  22
HETATM   22  C3  UNL     1      27.667   0.196  54.515  1.00  0.00     0.175 C 
BRANCH  22  23
HETATM   23  O1  UNL     1      28.231  -1.086  54.197  1.00  0.00    -0.364 OA
BRANCH  23  24
HETATM   24  C2  UNL     1      29.382  -1.184  53.397  1.00  0.00     0.124 C 
HETATM   25  C1  UNL     1      29.736   0.072  53.619  1.00  0.00     0.037 C 
ENDBRANCH  23  24
ENDBRANCH  22  23
ENDBRANCH  21  22
ENDBRANCH   1  21
TORSDOF 6
ENDMDL
MODEL 7
REMARK VINA RESULT:      -7.1      4.521      8.539
REMARK  6 active torsions:
REMARK  status: ('A' for Active; 'I' for Inactive)
REMARK    1  A    between atoms: C2_2  and  O1_3 
REMARK    2  A    between atoms: O1_3  and  C3_4 
REMARK    3  A    between atoms: C3_4  and  C4_5 
REMARK    4  A    between atoms: C4_5  and  C5_6 
REMARK    5  A    between atoms: C9_12  and  N2_13 
REMARK    6  A    between atoms: N2_13  and  C10_14 
ROOT
HETATM    1  C5  UNL     1      22.861   3.112  49.751  1.00  0.00     0.067 C 
HETATM    2  C6  UNL     1      22.144   1.896  50.228  1.00  0.00     0.214 C 
HETATM    3  O2  UNL     1      21.860   1.950  51.635  1.00  0.00    -0.256 OA
HETATM    4  N1  UNL     1      22.759   1.820  52.697  1.00  0.00    -0.145 NA
HETATM    5  C7  UNL     1      24.026   2.118  52.624  1.00  0.00     0.163 C 
HETATM    6  C8  UNL     1      24.726   2.638  51.428  1.00  0.00     0.055 A 
HETATM    7  C9  UNL     1      26.094   2.652  51.715  1.00  0.00     0.143 A 
HETATM    8  N3  UNL     1      26.904   3.097  50.745  1.00  0.00    -0.223 NA
HETATM    9  C16 UNL     1      26.428   3.508  49.558  1.00  0.00     0.235 A 
HETATM   10  N4  UNL     1      25.112   3.495  49.279  1.00  0.00    -0.245 NA
HETATM   11  C17 UNL     1      24.263   3.065  50.202  1.00  0.00     0.057 A 
ENDROOT
BRANCH   7  12
HETATM   12  N2  UNL     1      26.667   2.238  52.933  1.00  0.00    -0.340 N 
HETATM   13  H12 UNL     1      26.318   2.885  53.674  1.00  0.00     0.167 HD
BRANCH  12  14
HETATM   14  C10 UNL     1      27.556   1.148  53.141  1.00  0.00     0.033 A 
HETATM   15  C11 UNL     1      28.821   1.432  53.571  1.00  0.00     0.032 A 
HETATM   16  C12 UNL     1      29.635   0.312  53.752  1.00  0.00     0.044 A 
HETATM   17  C13 UNL     1      29.211  -0.972  53.520  1.00  0.00     0.116 A 
HETATM   18  F1  UNL     1      30.040  -2.032  53.710  1.00  0.00    -0.206 F 
HETATM   19  C14 UNL     1      27.913  -1.167  53.086  1.00  0.00     0.044 A 
HETATM   20  C15 UNL     1      27.030  -0.106  52.879  1.00  0.00     0.032 A 
ENDBRANCH  12  14
ENDBRANCH   7  12
BRANCH   1  21
HETATM   21  C4  UNL     1      22.682   3.412  48.303  1.00  0.00     0.040 C 
BRANCH  21  22
HETATM   22  C3  UNL     1      21.458   4.207  47.962  1.00  0.00     0.175 C 
BRANCH  22  23
HETATM   23  O1  UNL     1      20.455   3.376  47.359  1.00  0.00    -0.364 OA
BRANCH  23  24
HETATM   24  C2  UNL     1      19.268   3.072  48.046  1.00  0.00     0.124 C 
HETATM   25  C1  UNL     1      19.119   4.310  48.492  1.00  0.00     0.037 C 
ENDBRANCH  23  24
ENDBRANCH  22  23
ENDBRANCH  21  22
ENDBRANCH   1  21
TORSDOF 6
ENDMDL
MODEL 8
REMARK VINA RESULT:      -7.0      4.006      6.819
REMARK  6 active torsions:
REMARK  status: ('A' for Active; 'I' for Inactive)
REMARK    1  A    between atoms: C2_2  and  O1_3 
REMARK    2  A    between atoms: O1_3  and  C3_4 
REMARK    3  A    between atoms: C3_4  and  C4_5 
REMARK    4  A    between atoms: C4_5  and  C5_6 
REMARK    5  A    between atoms: C9_12  and  N2_13 
REMARK    6  A    between atoms: N2_13  and  C10_14 
ROOT
HETATM    1  C5  UNL     1      23.622   0.014  53.481  1.00  0.00     0.067 C 
HETATM    2  C6  UNL     1      25.027  -0.406  53.746  1.00  0.00     0.214 C 
HETATM    3  O2  UNL     1      25.757   0.580  54.493  1.00  0.00    -0.256 OA
HETATM    4  N1  UNL     1      26.226   1.818  54.047  1.00  0.00    -0.145 NA
HETATM    5  C7  UNL     1      25.684   2.500  53.078  1.00  0.00     0.163 C 
HETATM    6  C8  UNL     1      24.498   2.095  52.291  1.00  0.00     0.055 A 
HETATM    7  C9  UNL     1      24.356   3.010  51.243  1.00  0.00     0.143 A 
HETATM    8  N3  UNL     1      23.326   2.811  50.411  1.00  0.00    -0.223 NA
HETATM    9  C16 UNL     1      22.472   1.785  50.573  1.00  0.00     0.235 A 
HETATM   10  N4  UNL     1      22.607   0.904  51.581  1.00  0.00    -0.245 NA
HETATM   11  C17 UNL     1      23.609   1.052  52.436  1.00  0.00     0.057 A 
ENDROOT
BRANCH   7  12
HETATM   12  N2  UNL     1      25.209   4.106  51.008  1.00  0.00    -0.340 N 
HETATM   13  H12 UNL     1      26.178   3.798  51.245  1.00  0.00     0.167 HD
BRANCH  12  14
HETATM   14  C10 UNL     1      24.844   5.396  50.539  1.00  0.00     0.033 A 
HETATM   15  C11 UNL     1      24.048   6.164  51.340  1.00  0.00     0.032 A 
HETATM   16  C12 UNL     1      23.732   7.417  50.812  1.00  0.00     0.044 A 
HETATM   17  C13 UNL     1      24.178   7.853  49.590  1.00  0.00     0.116 A 
HETATM   18  F1  UNL     1      23.844   9.082  49.116  1.00  0.00    -0.206 F 
HETATM   19  C14 UNL     1      24.980   7.010  48.844  1.00  0.00     0.044 A 
HETATM   20  C15 UNL     1      25.347   5.739  49.294  1.00  0.00     0.032 A 
ENDBRANCH  12  14
ENDBRANCH   7  12
BRANCH   1  21
HETATM   21  C4  UNL     1      22.669  -1.108  53.257  1.00  0.00     0.040 C 
BRANCH  21  22
HETATM   22  C3  UNL     1      21.801  -1.453  54.430  1.00  0.00     0.175 C 
BRANCH  22  23
HETATM   23  O1  UNL     1      20.419  -1.516  54.047  1.00  0.00    -0.364 OA
BRANCH  23  24
HETATM   24  C2  UNL     1      19.794  -0.418  53.434  1.00  0.00     0.124 C 
HETATM   25  C1  UNL     1      18.646  -1.060  53.281  1.00  0.00     0.037 C 
ENDBRANCH  23  24
ENDBRANCH  22  23
ENDBRANCH  21  22
ENDBRANCH   1  21
TORSDOF 6
ENDMDL
MODEL 9
REMARK VINA RESULT:      -6.9      4.714      8.565
REMARK  6 active torsions:
REMARK  status: ('A' for Active; 'I' for Inactive)
REMARK    1  A    between atoms: C2_2  and  O1_3 
REMARK    2  A    between atoms: O1_3  and  C3_4 
REMARK    3  A    between atoms: C3_4  and  C4_5 
REMARK    4  A    between atoms: C4_5  and  C5_6 
REMARK    5  A    between atoms: C9_12  and  N2_13 
REMARK    6  A    between atoms: N2_13  and  C10_14 
ROOT
HETATM    1  C5  UNL     1      23.686   3.037  49.351  1.00  0.00     0.067 C 
HETATM    2  C6  UNL     1      24.571   4.236  49.332  1.00  0.00     0.214 C 
HETATM    3  O2  UNL     1      25.961   3.883  49.241  1.00  0.00    -0.256 OA
HETATM    4  N1  UNL     1      26.768   3.320  50.232  1.00  0.00    -0.145 NA
HETATM    5  C7  UNL     1      26.321   2.576  51.205  1.00  0.00     0.163 C 
HETATM    6  C8  UNL     1      24.907   2.202  51.430  1.00  0.00     0.055 A 
HETATM    7  C9  UNL     1      24.835   1.556  52.668  1.00  0.00     0.143 A 
HETATM    8  N3  UNL     1      23.623   1.135  53.054  1.00  0.00    -0.223 NA
HETATM    9  C16 UNL     1      22.532   1.323  52.292  1.00  0.00     0.235 A 
HETATM   10  N4  UNL     1      22.600   1.944  51.100  1.00  0.00    -0.245 NA
HETATM   11  C17 UNL     1      23.773   2.382  50.667  1.00  0.00     0.057 A 
ENDROOT
BRANCH   7  12
HETATM   12  N2  UNL     1      25.931   1.323  53.521  1.00  0.00    -0.340 N 
HETATM   13  H12 UNL     1      25.930   2.083  54.238  1.00  0.00     0.167 HD
BRANCH  12  14
HETATM   14  C10 UNL     1      26.875   0.263  53.444  1.00  0.00     0.033 A 
HETATM   15  C11 UNL     1      26.480  -0.898  52.844  1.00  0.00     0.032 A 
HETATM   16  C12 UNL     1      27.459  -1.893  52.806  1.00  0.00     0.044 A 
HETATM   17  C13 UNL     1      28.718  -1.728  53.325  1.00  0.00     0.116 A 
HETATM   18  F1  UNL     1      29.640  -2.725  53.265  1.00  0.00    -0.206 F 
HETATM   19  C14 UNL     1      29.033  -0.518  53.915  1.00  0.00     0.044 A 
HETATM   20  C15 UNL     1      28.116   0.532  53.997  1.00  0.00     0.032 A 
ENDBRANCH  12  14
ENDBRANCH   7  12
BRANCH   1  21
HETATM   21  C4  UNL     1      22.298   3.280  48.866  1.00  0.00     0.040 C 
BRANCH  21  22
HETATM   22  C3  UNL     1      22.091   3.083  47.395  1.00  0.00     0.175 C 
BRANCH  22  23
HETATM   23  O1  UNL     1      20.767   3.478  47.004  1.00  0.00    -0.364 OA
BRANCH  23  24
HETATM   24  C2  UNL     1      20.502   3.887  45.686  1.00  0.00     0.124 C 
HETATM   25  C1  UNL     1      21.784   3.915  45.356  1.00  0.00     0.037 C 
ENDBRANCH  23  24
ENDBRANCH  22  23
ENDBRANCH  21  22
ENDBRANCH   1  21
TORSDOF 6
ENDMDL
