MODEL 1
REMARK VINA RESULT:      -9.2      0.000      0.000
REMARK  7 active torsions:
REMARK  status: ('A' for Active; 'I' for Inactive)
REMARK    1  A    between atoms: C1_2  and  C2_3 
REMARK       I    between atoms: C1_2  and  N2_12 
REMARK    2  A    between atoms: C3_4  and  C4_5 
REMARK    3  A    between atoms: C4_5  and  C5_6 
REMARK    4  A    between atoms: C5_6  and  N1_7 
REMARK    5  A    between atoms: N2_12  and  C9_13 
REMARK    6  A    between atoms: C14_20  and  N5_21 
REMARK    7  A    between atoms: N5_21  and  C15_22 
ROOT
HETATM    1  C9  UNL     1      24.636   3.517  50.212  1.00  0.00     0.036 A 
HETATM    2  C10 UNL     1      23.512   3.208  49.480  1.00  0.00     0.032 A 
HETATM    3  C11 UNL     1      22.684   2.212  49.951  1.00  0.00     0.035 A 
HETATM    4  C12 UNL     1      23.026   1.584  51.121  1.00  0.00     0.072 A 
HETATM    5  N3  UNL     1      22.171   0.617  51.525  1.00  0.00    -0.241 NA
HETATM    6  C13 UNL     1      22.416  -0.075  52.678  1.00  0.00     0.236 A 
HETATM    7  N4  UNL     1      23.504   0.215  53.396  1.00  0.00    -0.224 NA
HETATM    8  C14 UNL     1      24.382   1.153  53.054  1.00  0.00     0.142 A 
HETATM    9  C21 UNL     1      24.129   1.846  51.892  1.00  0.00     0.041 A 
HETATM   10  C22 UNL     1      24.918   2.849  51.371  1.00  0.00     0.047 A 
ENDROOT
BRANCH   1  11
HETATM   11  N2  UNL     1      25.450   4.553  49.675  1.00  0.00    -0.316 N 
HETATM   12  C1  UNL     1      26.759   4.159  49.217  1.00  0.00     0.300 C 
HETATM   13  O1  UNL     1      27.117   2.957  49.308  1.00  0.00    -0.258 OA
HETATM   14  H11 UNL     1      25.260   5.591  49.547  1.00  0.00     0.170 HD
BRANCH  12  15
HETATM   15  C2  UNL     1      27.687   5.098  48.655  1.00  0.00    -0.005 C 
HETATM   16  C3  UNL     1      28.483   5.897  48.196  1.00  0.00    -0.095 C 
BRANCH  16  17
HETATM   17  C4  UNL     1      29.465   6.858  47.645  1.00  0.00     0.124 C 
BRANCH  17  18
HETATM   18  C5  UNL     1      30.547   7.080  48.692  1.00  0.00     0.287 C 
BRANCH  18  19
HETATM   19  N1  UNL     1      31.874   6.841  48.192  1.00  0.00     0.114 N 
HETATM   20  C6  UNL     1      32.324   5.565  48.760  1.00  0.00     0.301 C 
HETATM   21  C7  UNL     1      33.823   5.711  48.545  1.00  0.00     0.200 C 
HETATM   22  O2  UNL     1      34.092   7.071  48.672  1.00  0.00    -0.361 OA
HETATM   23  C8  UNL     1      32.873   7.731  48.755  1.00  0.00     0.440 C 
ENDBRANCH  18  19
ENDBRANCH  17  18
ENDBRANCH  16  17
ENDBRANCH  12  15
ENDBRANCH   1  11
BRANCH   8  24
HETATM   24  N5  UNL     1      25.541   1.482  53.793  1.00  0.00    -0.340 N 
HETATM   25  H15 UNL     1      25.567   2.253  54.473  1.00  0.00     0.167 HD
BRANCH  24  26
HETATM   26  C15 UNL     1      26.811   0.855  53.742  1.00  0.00     0.035 A 
HETATM   27  C16 UNL     1      27.987   1.504  54.024  1.00  0.00     0.032 A 
HETATM   28  C17 UNL     1      29.226   0.944  53.980  1.00  0.00     0.046 A 
HETATM   29  C18 UNL     1      29.371  -0.382  53.628  1.00  0.00     0.138 A 
HETATM   30  F1  UNL     1      30.559  -1.025  53.558  1.00  0.00    -0.204 F 
HETATM   31  C19 UNL     1      28.229  -1.090  53.335  1.00  0.00     0.074 A 
HETATM   32 CL1  UNL     1      28.322  -2.774  52.882  1.00  0.00    -0.081 Cl
HETATM   33  C20 UNL     1      27.014  -0.461  53.399  1.00  0.00     0.056 A 
ENDBRANCH  24  26
ENDBRANCH   8  24
TORSDOF 7
ENDMDL
MODEL 2
REMARK VINA RESULT:      -9.2      2.136      2.806
REMARK  7 active torsions:
REMARK  status: ('A' for Active; 'I' for Inactive)
REMARK    1  A    between atoms: C1_2  and  C2_3 
REMARK       I    between atoms: C1_2  and  N2_12 
REMARK    2  A    between atoms: C3_4  and  C4_5 
REMARK    3  A    between atoms: C4_5  and  C5_6 
REMARK    4  A    between atoms: C5_6  and  N1_7 
REMARK    5  A    between atoms: N2_12  and  C9_13 
REMARK    6  A    between atoms: C14_20  and  N5_21 
REMARK    7  A    between atoms: N5_21  and  C15_22 
ROOT
HETATM    1  C9  UNL     1      24.531   3.506  50.261  1.00  0.00     0.036 A 
HETATM    2  C10 UNL     1      23.423   3.191  49.507  1.00  0.00     0.032 A 
HETATM    3  C11 UNL     1      22.611   2.168  49.944  1.00  0.00     0.035 A 
HETATM    4  C12 UNL     1      22.950   1.520  51.103  1.00  0.00     0.072 A 
HETATM    5  N3  UNL     1      22.110   0.527  51.474  1.00  0.00    -0.241 NA
HETATM    6  C13 UNL     1      22.354  -0.187  52.614  1.00  0.00     0.236 A 
HETATM    7  N4  UNL     1      23.426   0.109  53.353  1.00  0.00    -0.224 NA
HETATM    8  C14 UNL     1      24.289   1.072  53.045  1.00  0.00     0.142 A 
HETATM    9  C21 UNL     1      24.037   1.787  51.895  1.00  0.00     0.041 A 
HETATM   10  C22 UNL     1      24.812   2.818  51.409  1.00  0.00     0.047 A 
ENDROOT
BRANCH   1  11
HETATM   11  N2  UNL     1      25.331   4.570  49.759  1.00  0.00    -0.316 N 
HETATM   12  C1  UNL     1      26.624   4.203  49.240  1.00  0.00     0.300 C 
HETATM   13  O1  UNL     1      26.983   2.997  49.251  1.00  0.00    -0.258 OA
HETATM   14  H11 UNL     1      25.139   5.614  49.697  1.00  0.00     0.170 HD
BRANCH  12  15
HETATM   15  C2  UNL     1      27.536   5.172  48.703  1.00  0.00    -0.005 C 
HETATM   16  C3  UNL     1      28.309   5.985  48.229  1.00  0.00    -0.095 C 
BRANCH  16  17
HETATM   17  C4  UNL     1      29.235   6.978  47.640  1.00  0.00     0.124 C 
BRANCH  17  18
HETATM   18  C5  UNL     1      29.151   8.252  48.469  1.00  0.00     0.287 C 
BRANCH  18  19
HETATM   19  N1  UNL     1      27.799   8.676  48.718  1.00  0.00     0.114 N 
HETATM   20  C6  UNL     1      27.569   9.876  47.904  1.00  0.00     0.301 C 
HETATM   21  C7  UNL     1      26.352  10.436  48.623  1.00  0.00     0.200 C 
HETATM   22  O2  UNL     1      26.512  10.089  49.962  1.00  0.00    -0.361 OA
HETATM   23  C8  UNL     1      27.603   9.233  50.043  1.00  0.00     0.440 C 
ENDBRANCH  18  19
ENDBRANCH  17  18
ENDBRANCH  16  17
ENDBRANCH  12  15
ENDBRANCH   1  11
BRANCH   8  24
HETATM   24  N5  UNL     1      25.432   1.408  53.806  1.00  0.00    -0.340 N 
HETATM   25  H15 UNL     1      25.425   2.145  54.523  1.00  0.00     0.167 HD
BRANCH  24  26
HETATM   26  C15 UNL     1      26.724   0.832  53.735  1.00  0.00     0.035 A 
HETATM   27  C16 UNL     1      27.879   1.534  53.969  1.00  0.00     0.032 A 
HETATM   28  C17 UNL     1      29.139   1.023  53.903  1.00  0.00     0.046 A 
HETATM   29  C18 UNL     1      29.328  -0.304  53.578  1.00  0.00     0.138 A 
HETATM   30  F1  UNL     1      30.539  -0.901  53.490  1.00  0.00    -0.204 F 
HETATM   31  C19 UNL     1      28.209  -1.064  53.333  1.00  0.00     0.074 A 
HETATM   32 CL1  UNL     1      28.358  -2.754  52.916  1.00  0.00    -0.081 Cl
HETATM   33  C20 UNL     1      26.971  -0.483  53.416  1.00  0.00     0.056 A 
ENDBRANCH  24  26
ENDBRANCH   8  24
TORSDOF 7
ENDMDL
MODEL 3
REMARK VINA RESULT:      -9.0      1.573      1.898
REMARK  7 active torsions:
REMARK  status: ('A' for Active; 'I' for Inactive)
REMARK    1  A    between atoms: C1_2  and  C2_3 
REMARK       I    between atoms: C1_2  and  N2_12 
REMARK    2  A    between atoms: C3_4  and  C4_5 
REMARK    3  A    between atoms: C4_5  and  C5_6 
REMARK    4  A    between atoms: C5_6  and  N1_7 
REMARK    5  A    between atoms: N2_12  and  C9_13 
REMARK    6  A    between atoms: C14_20  and  N5_21 
REMARK    7  A    between atoms: N5_21  and  C15_22 
ROOT
HETATM    1  C9  UNL     1      24.128   3.249  49.689  1.00  0.00     0.036 A 
HETATM    2  C10 UNL     1      23.069   2.975  48.853  1.00  0.00     0.032 A 
HETATM    3  C11 UNL     1      22.138   2.048  49.267  1.00  0.00     0.035 A 
HETATM    4  C12 UNL     1      22.316   1.450  50.488  1.00  0.00     0.072 A 
HETATM    5  N3  UNL     1      21.367   0.552  50.832  1.00  0.00    -0.241 NA
HETATM    6  C13 UNL     1      21.447  -0.105  52.029  1.00  0.00     0.236 A 
HETATM    7  N4  UNL     1      22.469   0.152  52.848  1.00  0.00    -0.224 NA
HETATM    8  C14 UNL     1      23.433   1.024  52.569  1.00  0.00     0.142 A 
HETATM    9  C21 UNL     1      23.346   1.681  51.363  1.00  0.00     0.041 A 
HETATM   10  C22 UNL     1      24.245   2.616  50.895  1.00  0.00     0.047 A 
ENDROOT
BRANCH   1  11
HETATM   11  N2  UNL     1      25.055   4.214  49.206  1.00  0.00    -0.316 N 
HETATM   12  C1  UNL     1      26.444   3.830  49.235  1.00  0.00     0.300 C 
HETATM   13  O1  UNL     1      26.770   2.696  49.672  1.00  0.00    -0.258 OA
HETATM   14  H11 UNL     1      24.902   5.191  48.818  1.00  0.00     0.170 HD
BRANCH  12  15
HETATM   15  C2  UNL     1      27.489   4.702  48.781  1.00  0.00    -0.005 C 
HETATM   16  C3  UNL     1      28.384   5.427  48.386  1.00  0.00    -0.095 C 
BRANCH  16  17
HETATM   17  C4  UNL     1      29.469   6.302  47.889  1.00  0.00     0.124 C 
BRANCH  17  18
HETATM   18  C5  UNL     1      30.712   6.037  48.726  1.00  0.00     0.287 C 
BRANCH  18  19
HETATM   19  N1  UNL     1      31.863   5.691  47.936  1.00  0.00     0.114 N 
HETATM   20  C6  UNL     1      31.843   6.553  46.748  1.00  0.00     0.301 C 
HETATM   21  C7  UNL     1      32.779   5.760  45.848  1.00  0.00     0.200 C 
HETATM   22  O2  UNL     1      32.580   4.423  46.181  1.00  0.00    -0.361 OA
HETATM   23  C8  UNL     1      31.760   4.390  47.302  1.00  0.00     0.440 C 
ENDBRANCH  18  19
ENDBRANCH  17  18
ENDBRANCH  16  17
ENDBRANCH  12  15
ENDBRANCH   1  11
BRANCH   8  24
HETATM   24  N5  UNL     1      24.527   1.316  53.416  1.00  0.00    -0.340 N 
HETATM   25  H15 UNL     1      24.479   2.023  54.161  1.00  0.00     0.167 HD
BRANCH  24  26
HETATM   26  C15 UNL     1      25.818   0.732  53.402  1.00  0.00     0.035 A 
HETATM   27  C16 UNL     1      26.079  -0.514  52.889  1.00  0.00     0.032 A 
HETATM   28  C17 UNL     1      27.300  -1.115  52.865  1.00  0.00     0.046 A 
HETATM   29  C18 UNL     1      28.399  -0.464  53.384  1.00  0.00     0.138 A 
HETATM   30  F1  UNL     1      29.649  -0.980  53.402  1.00  0.00    -0.204 F 
HETATM   31  C19 UNL     1      28.204   0.789  53.912  1.00  0.00     0.074 A 
HETATM   32 CL1  UNL     1      29.543   1.684  54.590  1.00  0.00    -0.081 Cl
HETATM   33  C20 UNL     1      26.947   1.334  53.906  1.00  0.00     0.056 A 
ENDBRANCH  24  26
ENDBRANCH   8  24
TORSDOF 7
ENDMDL
MODEL 4
REMARK VINA RESULT:      -8.8      2.404      3.081
REMARK  7 active torsions:
REMARK  status: ('A' for Active; 'I' for Inactive)
REMARK    1  A    between atoms: C1_2  and  C2_3 
REMARK       I    between atoms: C1_2  and  N2_12 
REMARK    2  A    between atoms: C3_4  and  C4_5 
REMARK    3  A    between atoms: C4_5  and  C5_6 
REMARK    4  A    between atoms: C5_6  and  N1_7 
REMARK    5  A    between atoms: N2_12  and  C9_13 
REMARK    6  A    between atoms: C14_20  and  N5_21 
REMARK    7  A    between atoms: N5_21  and  C15_22 
ROOT
HETATM    1  C9  UNL     1      23.747   2.669  49.845  1.00  0.00     0.036 A 
HETATM    2  C10 UNL     1      22.600   2.372  49.144  1.00  0.00     0.032 A 
HETATM    3  C11 UNL     1      21.689   1.517  49.723  1.00  0.00     0.035 A 
HETATM    4  C12 UNL     1      21.973   1.009  50.965  1.00  0.00     0.072 A 
HETATM    5  N3  UNL     1      21.037   0.177  51.474  1.00  0.00    -0.241 NA
HETATM    6  C13 UNL     1      21.220  -0.387  52.706  1.00  0.00     0.236 A 
HETATM    7  N4  UNL     1      22.328  -0.107  53.396  1.00  0.00    -0.224 NA
HETATM    8  C14 UNL     1      23.285   0.703  52.952  1.00  0.00     0.142 A 
HETATM    9  C21 UNL     1      23.094   1.268  51.710  1.00  0.00     0.041 A 
HETATM   10  C22 UNL     1      23.968   2.127  51.081  1.00  0.00     0.047 A 
ENDROOT
BRANCH   1  11
HETATM   11  N2  UNL     1      24.648   3.558  49.196  1.00  0.00    -0.316 N 
HETATM   12  C1  UNL     1      26.018   3.511  49.642  1.00  0.00     0.300 C 
HETATM   13  O1  UNL     1      26.350   2.714  50.557  1.00  0.00    -0.258 OA
HETATM   14  H11 UNL     1      24.488   4.266  48.420  1.00  0.00     0.170 HD
BRANCH  12  15
HETATM   15  C2  UNL     1      27.036   4.350  49.078  1.00  0.00    -0.005 C 
HETATM   16  C3  UNL     1      27.885   5.077  48.597  1.00  0.00    -0.095 C 
BRANCH  16  17
HETATM   17  C4  UNL     1      28.914   5.975  48.025  1.00  0.00     0.124 C 
BRANCH  17  18
HETATM   18  C5  UNL     1      28.297   7.356  47.860  1.00  0.00     0.287 C 
BRANCH  18  19
HETATM   19  N1  UNL     1      27.749   7.880  49.082  1.00  0.00     0.114 N 
HETATM   20  C6  UNL     1      26.408   8.388  48.769  1.00  0.00     0.301 C 
HETATM   21  C7  UNL     1      26.195   9.292  49.973  1.00  0.00     0.200 C 
HETATM   22  O2  UNL     1      27.455   9.785  50.301  1.00  0.00    -0.361 OA
HETATM   23  C8  UNL     1      28.384   9.108  49.521  1.00  0.00     0.440 C 
ENDBRANCH  18  19
ENDBRANCH  17  18
ENDBRANCH  16  17
ENDBRANCH  12  15
ENDBRANCH   1  11
BRANCH   8  24
HETATM   24  N5  UNL     1      24.468   1.018  53.658  1.00  0.00    -0.340 N 
HETATM   25  H15 UNL     1      24.505   1.746  54.383  1.00  0.00     0.167 HD
BRANCH  24  26
HETATM   26  C15 UNL     1      25.750   0.431  53.513  1.00  0.00     0.035 A 
HETATM   27  C16 UNL     1      25.961  -0.790  52.922  1.00  0.00     0.032 A 
HETATM   28  C17 UNL     1      27.172  -1.392  52.770  1.00  0.00     0.046 A 
HETATM   29  C18 UNL     1      28.313  -0.769  53.229  1.00  0.00     0.138 A 
HETATM   30  F1  UNL     1      29.558  -1.289  53.122  1.00  0.00    -0.204 F 
HETATM   31  C19 UNL     1      28.170   0.458  53.830  1.00  0.00     0.074 A 
HETATM   32 CL1  UNL     1      29.565   1.316  54.438  1.00  0.00    -0.081 Cl
HETATM   33  C20 UNL     1      26.920   1.006  53.950  1.00  0.00     0.056 A 
ENDBRANCH  24  26
ENDBRANCH   8  24
TORSDOF 7
ENDMDL
MODEL 5
REMARK VINA RESULT:      -8.7      5.256     11.229
REMARK  7 active torsions:
REMARK  status: ('A' for Active; 'I' for Inactive)
REMARK    1  A    between atoms: C1_2  and  C2_3 
REMARK       I    between atoms: C1_2  and  N2_12 
REMARK    2  A    between atoms: C3_4  and  C4_5 
REMARK    3  A    between atoms: C4_5  and  C5_6 
REMARK    4  A    between atoms: C5_6  and  N1_7 
REMARK    5  A    between atoms: N2_12  and  C9_13 
REMARK    6  A    between atoms: C14_20  and  N5_21 
REMARK    7  A    between atoms: N5_21  and  C15_22 
ROOT
HETATM    1  C9  UNL     1      24.200  -0.330  53.524  1.00  0.00     0.036 A 
HETATM    2  C10 UNL     1      24.774  -0.611  54.742  1.00  0.00     0.032 A 
HETATM    3  C11 UNL     1      26.001  -0.053  55.026  1.00  0.00     0.035 A 
HETATM    4  C12 UNL     1      26.582   0.753  54.080  1.00  0.00     0.072 A 
HETATM    5  N3  UNL     1      27.784   1.268  54.423  1.00  0.00    -0.241 NA
HETATM    6  C13 UNL     1      28.452   2.083  53.554  1.00  0.00     0.236 A 
HETATM    7  N4  UNL     1      27.905   2.364  52.368  1.00  0.00    -0.224 NA
HETATM    8  C14 UNL     1      26.728   1.890  51.972  1.00  0.00     0.142 A 
HETATM    9  C21 UNL     1      26.060   1.069  52.852  1.00  0.00     0.041 A 
HETATM   10  C22 UNL     1      24.834   0.482  52.625  1.00  0.00     0.047 A 
ENDROOT
BRANCH   1  11
HETATM   11  N2  UNL     1      22.934  -0.936  53.289  1.00  0.00    -0.316 N 
HETATM   12  C1  UNL     1      21.778  -0.115  53.551  1.00  0.00     0.300 C 
HETATM   13  O1  UNL     1      21.930   1.064  53.963  1.00  0.00    -0.258 OA
HETATM   14  H11 UNL     1      22.682  -1.910  52.946  1.00  0.00     0.170 HD
BRANCH  12  15
HETATM   15  C2  UNL     1      20.440  -0.594  53.361  1.00  0.00    -0.005 C 
HETATM   16  C3  UNL     1      19.306  -1.013  53.216  1.00  0.00    -0.095 C 
BRANCH  16  17
HETATM   17  C4  UNL     1      17.923  -1.517  53.058  1.00  0.00     0.124 C 
BRANCH  17  18
HETATM   18  C5  UNL     1      17.811  -2.833  53.813  1.00  0.00     0.287 C 
BRANCH  18  19
HETATM   19  N1  UNL     1      17.037  -3.823  53.112  1.00  0.00     0.114 N 
HETATM   20  C6  UNL     1      15.804  -3.166  52.663  1.00  0.00     0.301 C 
HETATM   21  C7  UNL     1      14.946  -4.395  52.402  1.00  0.00     0.200 C 
HETATM   22  O2  UNL     1      15.351  -5.343  53.338  1.00  0.00    -0.361 OA
HETATM   23  C8  UNL     1      16.475  -4.840  53.981  1.00  0.00     0.440 C 
ENDBRANCH  18  19
ENDBRANCH  17  18
ENDBRANCH  16  17
ENDBRANCH  12  15
ENDBRANCH   1  11
BRANCH   8  24
HETATM   24  N5  UNL     1      26.124   2.168  50.724  1.00  0.00    -0.340 N 
HETATM   25  H15 UNL     1      25.721   1.435  50.126  1.00  0.00     0.167 HD
BRANCH  24  26
HETATM   26  C15 UNL     1      25.968   3.428  50.095  1.00  0.00     0.035 A 
HETATM   27  C16 UNL     1      24.781   4.116  50.062  1.00  0.00     0.032 A 
HETATM   28  C17 UNL     1      24.586   5.322  49.463  1.00  0.00     0.046 A 
HETATM   29  C18 UNL     1      25.633   5.949  48.821  1.00  0.00     0.138 A 
HETATM   30  F1  UNL     1      25.535   7.147  48.199  1.00  0.00    -0.204 F 
HETATM   31  C19 UNL     1      26.850   5.312  48.818  1.00  0.00     0.074 A 
HETATM   32 CL1  UNL     1      28.229   6.038  48.029  1.00  0.00    -0.081 Cl
HETATM   33  C20 UNL     1      26.975   4.099  49.441  1.00  0.00     0.056 A 
ENDBRANCH  24  26
ENDBRANCH   8  24
TORSDOF 7
ENDMDL
MODEL 6
REMARK VINA RESULT:      -8.6      4.879     10.493
REMARK  7 active torsions:
REMARK  status: ('A' for Active; 'I' for Inactive)
REMARK    1  A    between atoms: C1_2  and  C2_3 
REMARK       I    between atoms: C1_2  and  N2_12 
REMARK    2  A    between atoms: C3_4  and  C4_5 
REMARK    3  A    between atoms: C4_5  and  C5_6 
REMARK    4  A    between atoms: C5_6  and  N1_7 
REMARK    5  A    between atoms: N2_12  and  C9_13 
REMARK    6  A    between atoms: C14_20  and  N5_21 
REMARK    7  A    between atoms: N5_21  and  C15_22 
ROOT
HETATM    1  C9  UNL     1      24.176  -0.256  53.580  1.00  0.00     0.036 A 
HETATM    2  C10 UNL     1      24.752  -0.564  54.792  1.00  0.00     0.032 A 
HETATM    3  C11 UNL     1      26.001  -0.053  55.065  1.00  0.00     0.035 A 
HETATM    4  C12 UNL     1      26.602   0.734  54.117  1.00  0.00     0.072 A 
HETATM    5  N3  UNL     1      27.826   1.202  54.449  1.00  0.00    -0.241 NA
HETATM    6  C13 UNL     1      28.516   1.996  53.576  1.00  0.00     0.236 A 
HETATM    7  N4  UNL     1      27.968   2.302  52.398  1.00  0.00    -0.224 NA
HETATM    8  C14 UNL     1      26.769   1.875  52.011  1.00  0.00     0.142 A 
HETATM    9  C21 UNL     1      26.080   1.076  52.896  1.00  0.00     0.041 A 
HETATM   10  C22 UNL     1      24.831   0.536  52.678  1.00  0.00     0.047 A 
ENDROOT
BRANCH   1  11
HETATM   11  N2  UNL     1      22.886  -0.813  53.357  1.00  0.00    -0.316 N 
HETATM   12  C1  UNL     1      21.791   0.123  53.300  1.00  0.00     0.300 C 
HETATM   13  O1  UNL     1      22.012   1.353  53.446  1.00  0.00    -0.258 OA
HETATM   14  H11 UNL     1      22.578  -1.821  53.220  1.00  0.00     0.170 HD
BRANCH  12  15
HETATM   15  C2  UNL     1      20.436  -0.296  53.082  1.00  0.00    -0.005 C 
HETATM   16  C3  UNL     1      19.285  -0.656  52.918  1.00  0.00    -0.095 C 
BRANCH  16  17
HETATM   17  C4  UNL     1      17.880  -1.082  52.731  1.00  0.00     0.124 C 
BRANCH  17  18
HETATM   18  C5  UNL     1      17.383  -0.506  51.413  1.00  0.00     0.287 C 
BRANCH  18  19
HETATM   19  N1  UNL     1      16.118   0.169  51.533  1.00  0.00     0.114 N 
HETATM   20  C6  UNL     1      16.403   1.607  51.608  1.00  0.00     0.301 C 
HETATM   21  C7  UNL     1      15.087   2.093  52.197  1.00  0.00     0.200 C 
HETATM   22  O2  UNL     1      14.642   1.065  53.023  1.00  0.00    -0.361 OA
HETATM   23  C8  UNL     1      15.478  -0.025  52.821  1.00  0.00     0.440 C 
ENDBRANCH  18  19
ENDBRANCH  17  18
ENDBRANCH  16  17
ENDBRANCH  12  15
ENDBRANCH   1  11
BRANCH   8  24
HETATM   24  N5  UNL     1      26.164   2.181  50.771  1.00  0.00    -0.340 N 
HETATM   25  H15 UNL     1      25.726   1.466  50.175  1.00  0.00     0.167 HD
BRANCH  24  26
HETATM   26  C15 UNL     1      26.050   3.448  50.148  1.00  0.00     0.035 A 
HETATM   27  C16 UNL     1      24.899   4.196  50.158  1.00  0.00     0.032 A 
HETATM   28  C17 UNL     1      24.745   5.412  49.566  1.00  0.00     0.046 A 
HETATM   29  C18 UNL     1      25.799   5.986  48.887  1.00  0.00     0.138 A 
HETATM   30  F1  UNL     1      25.740   7.188  48.270  1.00  0.00    -0.204 F 
HETATM   31  C19 UNL     1      26.982   5.288  48.841  1.00  0.00     0.074 A 
HETATM   32 CL1  UNL     1      28.367   5.943  48.003  1.00  0.00    -0.081 Cl
HETATM   33  C20 UNL     1      27.066   4.068  49.458  1.00  0.00     0.056 A 
ENDBRANCH  24  26
ENDBRANCH   8  24
TORSDOF 7
ENDMDL
MODEL 7
REMARK VINA RESULT:      -8.4      2.274      2.842
REMARK  7 active torsions:
REMARK  status: ('A' for Active; 'I' for Inactive)
REMARK    1  A    between atoms: C1_2  and  C2_3 
REMARK       I    between atoms: C1_2  and  N2_12 
REMARK    2  A    between atoms: C3_4  and  C4_5 
REMARK    3  A    between atoms: C4_5  and  C5_6 
REMARK    4  A    between atoms: C5_6  and  N1_7 
REMARK    5  A    between atoms: N2_12  and  C9_13 
REMARK    6  A    between atoms: C14_20  and  N5_21 
REMARK    7  A    between atoms: N5_21  and  C15_22 
ROOT
HETATM    1  C9  UNL     1      25.283   5.399  49.493  1.00  0.00     0.036 A 
HETATM    2  C10 UNL     1      24.233   5.622  48.631  1.00  0.00     0.032 A 
HETATM    3  C11 UNL     1      23.007   5.082  48.948  1.00  0.00     0.035 A 
HETATM    4  C12 UNL     1      22.898   4.352  50.104  1.00  0.00     0.072 A 
HETATM    5  N3  UNL     1      21.668   3.850  50.354  1.00  0.00    -0.241 NA
HETATM    6  C13 UNL     1      21.448   3.106  51.479  1.00  0.00     0.236 A 
HETATM    7  N4  UNL     1      22.458   2.882  52.323  1.00  0.00    -0.224 NA
HETATM    8  C14 UNL     1      23.690   3.347  52.135  1.00  0.00     0.142 A 
HETATM    9  C21 UNL     1      23.904   4.096  51.000  1.00  0.00     0.041 A 
HETATM   10  C22 UNL     1      25.106   4.661  50.630  1.00  0.00     0.047 A 
ENDROOT
BRANCH   1  11
HETATM   11  N2  UNL     1      26.523   5.983  49.112  1.00  0.00    -0.316 N 
HETATM   12  C1  UNL     1      27.578   5.064  48.766  1.00  0.00     0.300 C 
HETATM   13  O1  UNL     1      27.367   3.825  48.815  1.00  0.00    -0.258 OA
HETATM   14  H11 UNL     1      26.817   7.002  49.033  1.00  0.00     0.170 HD
BRANCH  12  15
HETATM   15  C2  UNL     1      28.881   5.510  48.364  1.00  0.00    -0.005 C 
HETATM   16  C3  UNL     1      29.994   5.883  48.041  1.00  0.00    -0.095 C 
BRANCH  16  17
HETATM   17  C4  UNL     1      31.354   6.318  47.652  1.00  0.00     0.124 C 
BRANCH  17  18
HETATM   18  C5  UNL     1      32.288   5.124  47.785  1.00  0.00     0.287 C 
BRANCH  18  19
HETATM   19  N1  UNL     1      33.196   4.990  46.677  1.00  0.00     0.114 N 
HETATM   20  C6  UNL     1      33.117   6.236  45.904  1.00  0.00     0.301 C 
HETATM   21  C7  UNL     1      33.716   5.754  44.591  1.00  0.00     0.200 C 
HETATM   22  O2  UNL     1      33.340   4.419  44.473  1.00  0.00    -0.361 OA
HETATM   23  C8  UNL     1      32.745   4.046  45.672  1.00  0.00     0.440 C 
ENDBRANCH  18  19
ENDBRANCH  17  18
ENDBRANCH  16  17
ENDBRANCH  12  15
ENDBRANCH   1  11
BRANCH   8  24
HETATM   24  N5  UNL     1      24.779   3.127  53.009  1.00  0.00    -0.340 N 
HETATM   25  H15 UNL     1      24.998   3.756  53.793  1.00  0.00     0.167 HD
BRANCH  24  26
HETATM   26  C15 UNL     1      25.719   2.068  52.978  1.00  0.00     0.035 A 
HETATM   27  C16 UNL     1      25.526   0.906  52.273  1.00  0.00     0.032 A 
HETATM   28  C17 UNL     1      26.398  -0.138  52.222  1.00  0.00     0.046 A 
HETATM   29  C18 UNL     1      27.588  -0.077  52.918  1.00  0.00     0.138 A 
HETATM   30  F1  UNL     1      28.515  -1.062  52.926  1.00  0.00    -0.204 F 
HETATM   31  C19 UNL     1      27.841   1.062  53.643  1.00  0.00     0.074 A 
HETATM   32 CL1  UNL     1      29.325   1.223  54.552  1.00  0.00    -0.081 Cl
HETATM   33  C20 UNL     1      26.918   2.074  53.650  1.00  0.00     0.056 A 
ENDBRANCH  24  26
ENDBRANCH   8  24
TORSDOF 7
ENDMDL
MODEL 8
REMARK VINA RESULT:      -8.4      3.866      8.614
REMARK  7 active torsions:
REMARK  status: ('A' for Active; 'I' for Inactive)
REMARK    1  A    between atoms: C1_2  and  C2_3 
REMARK       I    between atoms: C1_2  and  N2_12 
REMARK    2  A    between atoms: C3_4  and  C4_5 
REMARK    3  A    between atoms: C4_5  and  C5_6 
REMARK    4  A    between atoms: C5_6  and  N1_7 
REMARK    5  A    between atoms: N2_12  and  C9_13 
REMARK    6  A    between atoms: C14_20  and  N5_21 
REMARK    7  A    between atoms: N5_21  and  C15_22 
ROOT
HETATM    1  C9  UNL     1      25.986   6.108  49.278  1.00  0.00     0.036 A 
HETATM    2  C10 UNL     1      24.915   6.419  48.470  1.00  0.00     0.032 A 
HETATM    3  C11 UNL     1      25.064   7.444  47.562  1.00  0.00     0.035 A 
HETATM    4  C12 UNL     1      26.268   8.097  47.512  1.00  0.00     0.072 A 
HETATM    5  N3  UNL     1      26.345   9.092  46.599  1.00  0.00    -0.241 NA
HETATM    6  C13 UNL     1      27.500   9.810  46.465  1.00  0.00     0.236 A 
HETATM    7  N4  UNL     1      28.546   9.518  47.243  1.00  0.00    -0.224 NA
HETATM    8  C14 UNL     1      28.534   8.553  48.158  1.00  0.00     0.142 A 
HETATM    9  C21 UNL     1      27.367   7.834  48.287  1.00  0.00     0.041 A 
HETATM   10  C22 UNL     1      27.160   6.801  49.176  1.00  0.00     0.047 A 
ENDROOT
BRANCH   1  11
HETATM   11  N2  UNL     1      25.771   5.041  50.194  1.00  0.00    -0.316 N 
HETATM   12  C1  UNL     1      26.520   3.834  49.950  1.00  0.00     0.300 C 
HETATM   13  O1  UNL     1      27.306   3.774  48.970  1.00  0.00    -0.258 OA
HETATM   14  H11 UNL     1      25.142   4.974  51.048  1.00  0.00     0.170 HD
BRANCH  12  15
HETATM   15  C2  UNL     1      26.403   2.678  50.791  1.00  0.00    -0.005 C 
HETATM   16  C3  UNL     1      26.301   1.685  51.489  1.00  0.00    -0.095 C 
BRANCH  16  17
HETATM   17  C4  UNL     1      26.191   0.469  52.326  1.00  0.00     0.124 C 
BRANCH  17  18
HETATM   18  C5  UNL     1      26.856   0.756  53.664  1.00  0.00     0.287 C 
BRANCH  18  19
HETATM   19  N1  UNL     1      27.795  -0.261  54.058  1.00  0.00     0.114 N 
HETATM   20  C6  UNL     1      29.136   0.248  53.748  1.00  0.00     0.301 C 
HETATM   21  C7  UNL     1      29.910  -1.061  53.760  1.00  0.00     0.200 C 
HETATM   22  O2  UNL     1      29.021  -2.029  53.301  1.00  0.00    -0.361 OA
HETATM   23  C8  UNL     1      27.770  -1.433  53.204  1.00  0.00     0.440 C 
ENDBRANCH  18  19
ENDBRANCH  17  18
ENDBRANCH  16  17
ENDBRANCH  12  15
ENDBRANCH   1  11
BRANCH   8  24
HETATM   24  N5  UNL     1      29.624   8.221  48.995  1.00  0.00    -0.340 N 
HETATM   25  H15 UNL     1      29.706   8.564  49.961  1.00  0.00     0.167 HD
BRANCH  24  26
HETATM   26  C15 UNL     1      30.741   7.407  48.687  1.00  0.00     0.035 A 
HETATM   27  C16 UNL     1      30.637   6.091  48.311  1.00  0.00     0.032 A 
HETATM   28  C17 UNL     1      31.683   5.271  48.016  1.00  0.00     0.046 A 
HETATM   29  C18 UNL     1      32.974   5.751  48.083  1.00  0.00     0.138 A 
HETATM   30  F1  UNL     1      34.074   5.014  47.806  1.00  0.00    -0.204 F 
HETATM   31  C19 UNL     1      33.146   7.063  48.452  1.00  0.00     0.074 A 
HETATM   32 CL1  UNL     1      34.748   7.751  48.561  1.00  0.00    -0.081 Cl
HETATM   33  C20 UNL     1      32.048   7.831  48.737  1.00  0.00     0.056 A 
ENDBRANCH  24  26
ENDBRANCH   8  24
TORSDOF 7
ENDMDL
MODEL 9
REMARK VINA RESULT:      -8.3      4.969      9.680
REMARK  7 active torsions:
REMARK  status: ('A' for Active; 'I' for Inactive)
REMARK    1  A    between atoms: C1_2  and  C2_3 
REMARK       I    between atoms: C1_2  and  N2_12 
REMARK    2  A    between atoms: C3_4  and  C4_5 
REMARK    3  A    between atoms: C4_5  and  C5_6 
REMARK    4  A    between atoms: C5_6  and  N1_7 
REMARK    5  A    between atoms: N2_12  and  C9_13 
REMARK    6  A    between atoms: C14_20  and  N5_21 
REMARK    7  A    between atoms: N5_21  and  C15_22 
ROOT
HETATM    1  C9  UNL     1      24.099  -0.376  53.496  1.00  0.00     0.036 A 
HETATM    2  C10 UNL     1      24.495  -0.752  54.759  1.00  0.00     0.032 A 
HETATM    3  C11 UNL     1      25.753  -0.384  55.182  1.00  0.00     0.035 A 
HETATM    4  C12 UNL     1      26.542   0.336  54.322  1.00  0.00     0.072 A 
HETATM    5  N3  UNL     1      27.763   0.664  54.800  1.00  0.00    -0.241 NA
HETATM    6  C13 UNL     1      28.632   1.381  54.025  1.00  0.00     0.236 A 
HETATM    7  N4  UNL     1      28.260   1.752  52.798  1.00  0.00    -0.224 NA
HETATM    8  C14 UNL     1      27.074   1.462  52.270  1.00  0.00     0.142 A 
HETATM    9  C21 UNL     1      26.204   0.740  53.056  1.00  0.00     0.041 A 
HETATM   10  C22 UNL     1      24.937   0.343  52.688  1.00  0.00     0.047 A 
ENDROOT
BRANCH   1  11
HETATM   11  N2  UNL     1      22.790  -0.785  53.117  1.00  0.00    -0.316 N 
HETATM   12  C1  UNL     1      21.795   0.255  53.047  1.00  0.00     0.300 C 
HETATM   13  O1  UNL     1      22.112   1.442  53.316  1.00  0.00    -0.258 OA
HETATM   14  H11 UNL     1      22.407  -1.745  52.869  1.00  0.00     0.170 HD
BRANCH  12  15
HETATM   15  C2  UNL     1      20.434  -0.012  52.681  1.00  0.00    -0.005 C 
HETATM   16  C3  UNL     1      19.273  -0.232  52.388  1.00  0.00    -0.095 C 
BRANCH  16  17
HETATM   17  C4  UNL     1      17.856  -0.481  52.036  1.00  0.00     0.124 C 
BRANCH  17  18
HETATM   18  C5  UNL     1      17.452   0.524  50.968  1.00  0.00     0.287 C 
BRANCH  18  19
HETATM   19  N1  UNL     1      17.597   1.891  51.393  1.00  0.00     0.114 N 
HETATM   20  C6  UNL     1      16.246   2.413  51.631  1.00  0.00     0.301 C 
HETATM   21  C7  UNL     1      16.543   3.904  51.588  1.00  0.00     0.200 C 
HETATM   22  O2  UNL     1      17.582   4.055  50.674  1.00  0.00    -0.361 OA
HETATM   23  C8  UNL     1      18.026   2.784  50.333  1.00  0.00     0.440 C 
ENDBRANCH  18  19
ENDBRANCH  17  18
ENDBRANCH  16  17
ENDBRANCH  12  15
ENDBRANCH   1  11
BRANCH   8  24
HETATM   24  N5  UNL     1      26.653   1.840  50.975  1.00  0.00    -0.340 N 
HETATM   25  H15 UNL     1      26.664   1.192  50.176  1.00  0.00     0.167 HD
BRANCH  24  26
HETATM   26  C15 UNL     1      26.165   3.101  50.552  1.00  0.00     0.035 A 
HETATM   27  C16 UNL     1      26.729   3.828  49.534  1.00  0.00     0.032 A 
HETATM   28  C17 UNL     1      26.298   5.045  49.103  1.00  0.00     0.046 A 
HETATM   29  C18 UNL     1      25.209   5.642  49.702  1.00  0.00     0.138 A 
HETATM   30  F1  UNL     1      24.709   6.846  49.341  1.00  0.00    -0.204 F 
HETATM   31  C19 UNL     1      24.597   4.964  50.728  1.00  0.00     0.074 A 
HETATM   32 CL1  UNL     1      23.210   5.648  51.541  1.00  0.00    -0.081 Cl
HETATM   33  C20 UNL     1      25.085   3.743  51.112  1.00  0.00     0.056 A 
ENDBRANCH  24  26
ENDBRANCH   8  24
TORSDOF 7
ENDMDL
