MODEL 1
REMARK VINA RESULT:      -8.5      0.000      0.000
REMARK  6 active torsions:
REMARK  status: ('A' for Active; 'I' for Inactive)
REMARK    1  A    between atoms: C2_2  and  C18_25 
REMARK    2  A    between atoms: C3_3  and  C4_4 
REMARK    3  A    between atoms: C5_5  and  N1_6 
REMARK    4  A    between atoms: N1_6  and  C6_7 
REMARK    5  A    between atoms: C13_17  and  C14_18 
REMARK    6  A    between atoms: C14_18  and  O2_20 
ROOT
HETATM    1  C6  UNL     1      25.607   2.206  51.918  1.00  0.00     0.159 A 
HETATM    2  N2  UNL     1      26.826   2.037  52.459  1.00  0.00    -0.222 NA
HETATM    3  C7  UNL     1      27.039   0.982  53.300  1.00  0.00     0.238 A 
HETATM    4  N3  UNL     1      26.017   0.147  53.559  1.00  0.00    -0.215 NA
HETATM    5  C8  UNL     1      24.805   0.333  53.009  1.00  0.00     0.202 A 
HETATM    6  C9  UNL     1      24.535   1.384  52.151  1.00  0.00     0.129 A 
HETATM    7  N4  UNL     1      23.368   1.798  51.452  1.00  0.00    -0.379 N 
HETATM    8  C10 UNL     1      22.291   0.909  51.057  1.00  0.00     0.161 C 
HETATM    9  C11 UNL     1      21.866   0.063  52.193  1.00  0.00    -0.006 A 
HETATM   10  C12 UNL     1      20.472  -0.064  52.217  1.00  0.00     0.029 A 
HETATM   11  C13 UNL     1      19.742  -0.779  53.136  1.00  0.00     0.038 A 
HETATM   12  C15 UNL     1      20.426  -1.430  54.123  1.00  0.00     0.021 A 
HETATM   13  C16 UNL     1      21.782  -1.350  54.159  1.00  0.00     0.039 A 
HETATM   14  C17 UNL     1      22.493  -0.617  53.212  1.00  0.00     0.086 A 
HETATM   15  O3  UNL     1      23.877  -0.647  53.407  1.00  0.00    -0.289 OA
HETATM   16  H9  UNL     1      23.421   2.825  51.279  1.00  0.00     0.160 HD
ENDROOT
BRANCH   1  17
HETATM   17  N1  UNL     1      25.530   3.335  51.068  1.00  0.00    -0.349 N 
HETATM   18  H7  UNL     1      24.930   4.108  50.718  1.00  0.00     0.167 HD
BRANCH  17  19
HETATM   19  C5  UNL     1      26.630   3.758  50.269  1.00  0.00     0.090 C 
HETATM   20  C4  UNL     1      26.570   4.617  49.268  1.00  0.00     0.017 C 
BRANCH  20  21
HETATM   21  C3  UNL     1      27.766   4.977  48.518  1.00  0.00     0.005 C 
HETATM   22  C2  UNL     1      28.066   6.227  48.306  1.00  0.00    -0.070 C 
HETATM   23  C1  UNL     1      27.249   7.361  48.791  1.00  0.00     0.044 C 
BRANCH  22  24
HETATM   24  C18 UNL     1      29.279   6.613  47.545  1.00  0.00     0.148 C 
HETATM   25 CL1  UNL     1      30.483   5.308  47.763  1.00  0.00    -0.126 Cl
ENDBRANCH  22  24
ENDBRANCH  20  21
ENDBRANCH  17  19
ENDBRANCH   1  17
BRANCH  11  26
HETATM   26  C14 UNL     1      18.297  -0.824  53.040  1.00  0.00     0.176 C 
HETATM   27  O1  UNL     1      17.704  -0.475  51.998  1.00  0.00    -0.646 OA
BRANCH  26  28
HETATM   28  O2  UNL     1      17.510  -1.246  54.074  1.00  0.00    -0.773 OA
HETATM   29  H13 UNL     1      17.604  -0.941  55.036  1.00  0.00     0.167 HD
ENDBRANCH  26  28
ENDBRANCH  11  26
TORSDOF 6
ENDMDL
MODEL 2
REMARK VINA RESULT:      -8.1      3.549      5.246
REMARK  6 active torsions:
REMARK  status: ('A' for Active; 'I' for Inactive)
REMARK    1  A    between atoms: C2_2  and  C18_25 
REMARK    2  A    between atoms: C3_3  and  C4_4 
REMARK    3  A    between atoms: C5_5  and  N1_6 
REMARK    4  A    between atoms: N1_6  and  C6_7 
REMARK    5  A    between atoms: C13_17  and  C14_18 
REMARK    6  A    between atoms: C14_18  and  O2_20 
ROOT
HETATM    1  C6  UNL     1      23.856   4.471  50.118  1.00  0.00     0.159 A 
HETATM    2  N2  UNL     1      22.683   5.087  50.348  1.00  0.00    -0.222 NA
HETATM    3  C7  UNL     1      21.973   4.763  51.468  1.00  0.00     0.238 A 
HETATM    4  N3  UNL     1      22.473   3.836  52.304  1.00  0.00    -0.215 NA
HETATM    5  C8  UNL     1      23.647   3.231  52.056  1.00  0.00     0.202 A 
HETATM    6  C9  UNL     1      24.407   3.522  50.937  1.00  0.00     0.129 A 
HETATM    7  N4  UNL     1      25.653   3.037  50.452  1.00  0.00    -0.379 N 
HETATM    8  C10 UNL     1      26.699   2.479  51.290  1.00  0.00     0.161 C 
HETATM    9  C11 UNL     1      26.145   1.467  52.215  1.00  0.00    -0.006 A 
HETATM   10  C12 UNL     1      27.011   0.373  52.322  1.00  0.00     0.029 A 
HETATM   11  C13 UNL     1      26.808  -0.746  53.094  1.00  0.00     0.038 A 
HETATM   12  C15 UNL     1      25.659  -0.809  53.831  1.00  0.00     0.021 A 
HETATM   13  C16 UNL     1      24.774   0.220  53.776  1.00  0.00     0.039 A 
HETATM   14  C17 UNL     1      25.009   1.341  52.982  1.00  0.00     0.086 A 
HETATM   15  O3  UNL     1      23.991   2.296  53.050  1.00  0.00    -0.289 OA
HETATM   16  H9  UNL     1      25.681   3.150  49.415  1.00  0.00     0.160 HD
ENDROOT
BRANCH   1  17
HETATM   17  N1  UNL     1      24.484   4.904  48.925  1.00  0.00    -0.349 N 
HETATM   18  H7  UNL     1      24.575   4.758  47.900  1.00  0.00     0.167 HD
BRANCH  17  19
HETATM   19  C5  UNL     1      25.419   5.979  48.908  1.00  0.00     0.090 C 
HETATM   20  C4  UNL     1      26.685   5.892  48.546  1.00  0.00     0.017 C 
BRANCH  20  21
HETATM   21  C3  UNL     1      27.552   7.063  48.568  1.00  0.00     0.005 C 
HETATM   22  C2  UNL     1      28.832   6.946  48.349  1.00  0.00    -0.070 C 
HETATM   23  C1  UNL     1      29.502   5.658  48.067  1.00  0.00     0.044 C 
BRANCH  22  24
HETATM   24  C18 UNL     1      29.730   8.126  48.368  1.00  0.00     0.148 C 
HETATM   25 CL1  UNL     1      29.043   9.301  49.530  1.00  0.00    -0.126 Cl
ENDBRANCH  22  24
ENDBRANCH  20  21
ENDBRANCH  17  19
ENDBRANCH   1  17
BRANCH  11  26
HETATM   26  C14 UNL     1      27.794  -1.808  53.108  1.00  0.00     0.176 C 
HETATM   27  O1  UNL     1      28.922  -1.641  53.616  1.00  0.00    -0.646 OA
BRANCH  26  28
HETATM   28  O2  UNL     1      27.546  -3.040  52.571  1.00  0.00    -0.773 OA
HETATM   29  H13 UNL     1      27.649  -3.276  51.591  1.00  0.00     0.167 HD
ENDBRANCH  26  28
ENDBRANCH  11  26
TORSDOF 6
ENDMDL
MODEL 3
REMARK VINA RESULT:      -8.0      2.986      5.748
REMARK  6 active torsions:
REMARK  status: ('A' for Active; 'I' for Inactive)
REMARK    1  A    between atoms: C2_2  and  C18_25 
REMARK    2  A    between atoms: C3_3  and  C4_4 
REMARK    3  A    between atoms: C5_5  and  N1_6 
REMARK    4  A    between atoms: N1_6  and  C6_7 
REMARK    5  A    between atoms: C13_17  and  C14_18 
REMARK    6  A    between atoms: C14_18  and  O2_20 
ROOT
HETATM    1  C6  UNL     1      22.972   3.804  52.323  1.00  0.00     0.159 A 
HETATM    2  N2  UNL     1      21.737   3.648  51.815  1.00  0.00    -0.222 NA
HETATM    3  C7  UNL     1      21.272   2.386  51.575  1.00  0.00     0.238 A 
HETATM    4  N3  UNL     1      22.070   1.341  51.856  1.00  0.00    -0.215 NA
HETATM    5  C8  UNL     1      23.302   1.517  52.362  1.00  0.00     0.202 A 
HETATM    6  C9  UNL     1      23.822   2.773  52.624  1.00  0.00     0.129 A 
HETATM    7  N4  UNL     1      25.065   3.224  53.146  1.00  0.00    -0.379 N 
HETATM    8  C10 UNL     1      25.917   2.445  54.027  1.00  0.00     0.161 C 
HETATM    9  C11 UNL     1      26.115   1.081  53.492  1.00  0.00    -0.006 A 
HETATM   10  C12 UNL     1      27.442   0.672  53.670  1.00  0.00     0.029 A 
HETATM   11  C13 UNL     1      27.971  -0.539  53.290  1.00  0.00     0.038 A 
HETATM   12  C15 UNL     1      27.138  -1.434  52.681  1.00  0.00     0.021 A 
HETATM   13  C16 UNL     1      25.836  -1.102  52.477  1.00  0.00     0.039 A 
HETATM   14  C17 UNL     1      25.330   0.134  52.875  1.00  0.00     0.086 A 
HETATM   15  O3  UNL     1      23.973   0.300  52.583  1.00  0.00    -0.289 OA
HETATM   16  H9  UNL     1      25.252   4.188  52.793  1.00  0.00     0.160 HD
ENDROOT
BRANCH   1  17
HETATM   17  N1  UNL     1      23.321   5.161  52.522  1.00  0.00    -0.349 N 
HETATM   18  H7  UNL     1      23.393   5.938  53.207  1.00  0.00     0.167 HD
BRANCH  17  19
HETATM   19  C5  UNL     1      23.801   5.983  51.462  1.00  0.00     0.090 C 
HETATM   20  C4  UNL     1      24.666   5.617  50.534  1.00  0.00     0.017 C 
BRANCH  20  21
HETATM   21  C3  UNL     1      25.087   6.546  49.494  1.00  0.00     0.005 C 
HETATM   22  C2  UNL     1      26.127   6.287  48.753  1.00  0.00    -0.070 C 
HETATM   23  C1  UNL     1      26.952   5.067  48.894  1.00  0.00     0.044 C 
BRANCH  22  24
HETATM   24  C18 UNL     1      26.571   7.221  47.690  1.00  0.00     0.148 C 
HETATM   25 CL1  UNL     1      28.338   7.016  47.502  1.00  0.00    -0.126 Cl
ENDBRANCH  22  24
ENDBRANCH  20  21
ENDBRANCH  17  19
ENDBRANCH   1  17
BRANCH  11  26
HETATM   26  C14 UNL     1      29.369  -0.830  53.538  1.00  0.00     0.176 C 
HETATM   27  O1  UNL     1      29.746  -1.972  53.872  1.00  0.00    -0.646 OA
BRANCH  26  28
HETATM   28  O2  UNL     1      30.344   0.122  53.421  1.00  0.00    -0.773 OA
HETATM   29  H13 UNL     1      31.326  -0.028  53.616  1.00  0.00     0.167 HD
ENDBRANCH  26  28
ENDBRANCH  11  26
TORSDOF 6
ENDMDL
MODEL 4
REMARK VINA RESULT:      -7.8      4.585      5.670
REMARK  6 active torsions:
REMARK  status: ('A' for Active; 'I' for Inactive)
REMARK    1  A    between atoms: C2_2  and  C18_25 
REMARK    2  A    between atoms: C3_3  and  C4_4 
REMARK    3  A    between atoms: C5_5  and  N1_6 
REMARK    4  A    between atoms: N1_6  and  C6_7 
REMARK    5  A    between atoms: C13_17  and  C14_18 
REMARK    6  A    between atoms: C14_18  and  O2_20 
ROOT
HETATM    1  C6  UNL     1      23.677   5.554  51.004  1.00  0.00     0.159 A 
HETATM    2  N2  UNL     1      24.670   6.103  50.282  1.00  0.00    -0.222 NA
HETATM    3  C7  UNL     1      25.723   5.322  49.900  1.00  0.00     0.238 A 
HETATM    4  N3  UNL     1      25.729   4.026  50.260  1.00  0.00    -0.215 NA
HETATM    5  C8  UNL     1      24.728   3.497  50.983  1.00  0.00     0.202 A 
HETATM    6  C9  UNL     1      23.639   4.242  51.396  1.00  0.00     0.129 A 
HETATM    7  N4  UNL     1      22.474   3.932  52.151  1.00  0.00    -0.379 N 
HETATM    8  C10 UNL     1      21.882   2.610  52.239  1.00  0.00     0.161 C 
HETATM    9  C11 UNL     1      22.911   1.595  52.550  1.00  0.00    -0.006 A 
HETATM   10  C12 UNL     1      22.418   0.662  53.471  1.00  0.00     0.029 A 
HETATM   11  C13 UNL     1      23.108  -0.413  53.979  1.00  0.00     0.038 A 
HETATM   12  C15 UNL     1      24.392  -0.602  53.554  1.00  0.00     0.021 A 
HETATM   13  C16 UNL     1      24.934   0.265  52.659  1.00  0.00     0.039 A 
HETATM   14  C17 UNL     1      24.208   1.346  52.164  1.00  0.00     0.086 A 
HETATM   15  O3  UNL     1      24.926   2.130  51.255  1.00  0.00    -0.289 OA
HETATM   16  H9  UNL     1      22.130   4.800  52.618  1.00  0.00     0.160 HD
ENDROOT
BRANCH   1  17
HETATM   17  N1  UNL     1      22.653   6.476  51.328  1.00  0.00    -0.349 N 
HETATM   18  H7  UNL     1      21.884   6.710  51.987  1.00  0.00     0.167 HD
BRANCH  17  19
HETATM   19  C5  UNL     1      22.410   7.644  50.549  1.00  0.00     0.090 C 
HETATM   20  C4  UNL     1      21.446   7.788  49.659  1.00  0.00     0.017 C 
BRANCH  20  21
HETATM   21  C3  UNL     1      21.293   9.033  48.917  1.00  0.00     0.005 C 
HETATM   22  C2  UNL     1      20.317   9.853  49.190  1.00  0.00    -0.070 C 
HETATM   23  C1  UNL     1      19.307   9.605  50.242  1.00  0.00     0.044 C 
BRANCH  22  24
HETATM   24  C18 UNL     1      20.145  11.124  48.447  1.00  0.00     0.148 C 
HETATM   25 CL1  UNL     1      20.534  12.458  49.574  1.00  0.00    -0.126 Cl
ENDBRANCH  22  24
ENDBRANCH  20  21
ENDBRANCH  17  19
ENDBRANCH   1  17
BRANCH  11  26
HETATM   26  C14 UNL     1      22.471  -1.301  54.931  1.00  0.00     0.176 C 
HETATM   27  O1  UNL     1      21.244  -1.529  54.886  1.00  0.00    -0.646 OA
BRANCH  26  28
HETATM   28  O2  UNL     1      23.170  -1.932  55.921  1.00  0.00    -0.773 OA
HETATM   29  H13 UNL     1      23.290  -2.935  55.997  1.00  0.00     0.167 HD
ENDBRANCH  26  28
ENDBRANCH  11  26
TORSDOF 6
ENDMDL
MODEL 5
REMARK VINA RESULT:      -7.5      4.099      6.619
REMARK  6 active torsions:
REMARK  status: ('A' for Active; 'I' for Inactive)
REMARK    1  A    between atoms: C2_2  and  C18_25 
REMARK    2  A    between atoms: C3_3  and  C4_4 
REMARK    3  A    between atoms: C5_5  and  N1_6 
REMARK    4  A    between atoms: N1_6  and  C6_7 
REMARK    5  A    between atoms: C13_17  and  C14_18 
REMARK    6  A    between atoms: C14_18  and  O2_20 
ROOT
HETATM    1  C6  UNL     1      21.165   2.332  52.087  1.00  0.00     0.159 A 
HETATM    2  N2  UNL     1      20.061   1.567  52.030  1.00  0.00    -0.222 NA
HETATM    3  C7  UNL     1      20.125   0.275  52.471  1.00  0.00     0.238 A 
HETATM    4  N3  UNL     1      21.295  -0.187  52.947  1.00  0.00    -0.215 NA
HETATM    5  C8  UNL     1      22.387   0.594  52.995  1.00  0.00     0.202 A 
HETATM    6  C9  UNL     1      22.378   1.908  52.563  1.00  0.00     0.129 A 
HETATM    7  N4  UNL     1      23.372   2.924  52.506  1.00  0.00    -0.379 N 
HETATM    8  C10 UNL     1      24.530   2.987  53.379  1.00  0.00     0.161 C 
HETATM    9  C11 UNL     1      25.217   1.679  53.434  1.00  0.00    -0.006 A 
HETATM   10  C12 UNL     1      26.606   1.853  53.418  1.00  0.00     0.029 A 
HETATM   11  C13 UNL     1      27.546   0.850  53.457  1.00  0.00     0.038 A 
HETATM   12  C15 UNL     1      27.097  -0.439  53.518  1.00  0.00     0.021 A 
HETATM   13  C16 UNL     1      25.760  -0.680  53.538  1.00  0.00     0.039 A 
HETATM   14  C17 UNL     1      24.833   0.359  53.497  1.00  0.00     0.086 A 
HETATM   15  O3  UNL     1      23.505  -0.078  53.525  1.00  0.00    -0.289 OA
HETATM   16  H9  UNL     1      23.128   3.596  51.746  1.00  0.00     0.160 HD
ENDROOT
BRANCH   1  17
HETATM   17  N1  UNL     1      20.955   3.645  51.601  1.00  0.00    -0.349 N 
HETATM   18  H7  UNL     1      20.782   4.637  51.854  1.00  0.00     0.167 HD
BRANCH  17  19
HETATM   19  C5  UNL     1      20.936   3.943  50.208  1.00  0.00     0.090 C 
HETATM   20  C4  UNL     1      21.996   4.032  49.426  1.00  0.00     0.017 C 
BRANCH  20  21
HETATM   21  C3  UNL     1      21.857   4.345  48.010  1.00  0.00     0.005 C 
HETATM   22  C2  UNL     1      22.076   3.434  47.104  1.00  0.00    -0.070 C 
HETATM   23  C1  UNL     1      22.474   2.044  47.417  1.00  0.00     0.044 C 
BRANCH  22  24
HETATM   24  C18 UNL     1      21.938   3.733  45.658  1.00  0.00     0.148 C 
HETATM   25 CL1  UNL     1      21.605   5.484  45.504  1.00  0.00    -0.126 Cl
ENDBRANCH  22  24
ENDBRANCH  20  21
ENDBRANCH  17  19
ENDBRANCH   1  17
BRANCH  11  26
HETATM   26  C14 UNL     1      28.958   1.177  53.434  1.00  0.00     0.176 C 
HETATM   27  O1  UNL     1      29.832   0.291  53.532  1.00  0.00    -0.646 OA
BRANCH  26  28
HETATM   28  O2  UNL     1      29.407   2.461  53.303  1.00  0.00    -0.773 OA
HETATM   29  H13 UNL     1      29.028   3.144  52.658  1.00  0.00     0.167 HD
ENDBRANCH  26  28
ENDBRANCH  11  26
TORSDOF 6
ENDMDL
MODEL 6
REMARK VINA RESULT:      -7.4      4.142      5.399
REMARK  6 active torsions:
REMARK  status: ('A' for Active; 'I' for Inactive)
REMARK    1  A    between atoms: C2_2  and  C18_25 
REMARK    2  A    between atoms: C3_3  and  C4_4 
REMARK    3  A    between atoms: C5_5  and  N1_6 
REMARK    4  A    between atoms: N1_6  and  C6_7 
REMARK    5  A    between atoms: C13_17  and  C14_18 
REMARK    6  A    between atoms: C14_18  and  O2_20 
ROOT
HETATM    1  C6  UNL     1      24.496   4.405  49.608  1.00  0.00     0.159 A 
HETATM    2  N2  UNL     1      25.651   4.931  49.164  1.00  0.00    -0.222 NA
HETATM    3  C7  UNL     1      26.828   4.323  49.496  1.00  0.00     0.238 A 
HETATM    4  N3  UNL     1      26.790   3.217  50.259  1.00  0.00    -0.215 NA
HETATM    5  C8  UNL     1      25.626   2.707  50.694  1.00  0.00     0.202 A 
HETATM    6  C9  UNL     1      24.406   3.282  50.387  1.00  0.00     0.129 A 
HETATM    7  N4  UNL     1      23.061   2.950  50.713  1.00  0.00    -0.379 N 
HETATM    8  C10 UNL     1      22.600   1.611  51.028  1.00  0.00     0.161 C 
HETATM    9  C11 UNL     1      23.483   0.976  52.031  1.00  0.00    -0.006 A 
HETATM   10  C12 UNL     1      22.727   0.257  52.965  1.00  0.00     0.029 A 
HETATM   11  C13 UNL     1      23.225  -0.454  54.031  1.00  0.00     0.038 A 
HETATM   12  C15 UNL     1      24.580  -0.469  54.207  1.00  0.00     0.021 A 
HETATM   13  C16 UNL     1      25.374   0.207  53.336  1.00  0.00     0.039 A 
HETATM   14  C17 UNL     1      24.838   0.918  52.265  1.00  0.00     0.086 A 
HETATM   15  O3  UNL     1      25.803   1.551  51.477  1.00  0.00    -0.289 OA
HETATM   16  H9  UNL     1      22.482   3.818  50.687  1.00  0.00     0.160 HD
ENDROOT
BRANCH   1  17
HETATM   17  N1  UNL     1      23.358   5.134  49.188  1.00  0.00    -0.349 N 
HETATM   18  H7  UNL     1      22.585   5.764  49.480  1.00  0.00     0.167 HD
BRANCH  17  19
HETATM   19  C5  UNL     1      22.919   5.138  47.833  1.00  0.00     0.090 C 
HETATM   20  C4  UNL     1      22.254   4.165  47.237  1.00  0.00     0.017 C 
BRANCH  20  21
HETATM   21  C3  UNL     1      21.855   4.279  45.840  1.00  0.00     0.005 C 
HETATM   22  C2  UNL     1      20.658   3.928  45.461  1.00  0.00    -0.070 C 
HETATM   23  C1  UNL     1      19.627   3.399  46.381  1.00  0.00     0.044 C 
BRANCH  22  24
HETATM   24  C18 UNL     1      20.233   4.036  44.044  1.00  0.00     0.148 C 
HETATM   25 CL1  UNL     1      18.655   3.208  43.895  1.00  0.00    -0.126 Cl
ENDBRANCH  22  24
ENDBRANCH  20  21
ENDBRANCH  17  19
ENDBRANCH   1  17
BRANCH  11  26
HETATM   26  C14 UNL     1      22.322  -1.154  54.923  1.00  0.00     0.176 C 
HETATM   27  O1  UNL     1      22.737  -2.024  55.716  1.00  0.00    -0.646 OA
BRANCH  26  28
HETATM   28  O2  UNL     1      20.979  -0.902  54.944  1.00  0.00    -0.773 OA
HETATM   29  H13 UNL     1      20.263  -1.551  54.639  1.00  0.00     0.167 HD
ENDBRANCH  26  28
ENDBRANCH  11  26
TORSDOF 6
ENDMDL
MODEL 7
REMARK VINA RESULT:      -7.4      5.749      9.657
REMARK  6 active torsions:
REMARK  status: ('A' for Active; 'I' for Inactive)
REMARK    1  A    between atoms: C2_2  and  C18_25 
REMARK    2  A    between atoms: C3_3  and  C4_4 
REMARK    3  A    between atoms: C5_5  and  N1_6 
REMARK    4  A    between atoms: N1_6  and  C6_7 
REMARK    5  A    between atoms: C13_17  and  C14_18 
REMARK    6  A    between atoms: C14_18  and  O2_20 
ROOT
HETATM    1  C6  UNL     1      17.422  -0.346  51.940  1.00  0.00     0.159 A 
HETATM    2  N2  UNL     1      16.645  -1.387  52.288  1.00  0.00    -0.222 NA
HETATM    3  C7  UNL     1      17.130  -2.312  53.168  1.00  0.00     0.238 A 
HETATM    4  N3  UNL     1      18.373  -2.149  53.656  1.00  0.00    -0.215 NA
HETATM    5  C8  UNL     1      19.134  -1.103  53.294  1.00  0.00     0.202 A 
HETATM    6  C9  UNL     1      18.693  -0.137  52.408  1.00  0.00     0.129 A 
HETATM    7  N4  UNL     1      19.285   1.040  51.872  1.00  0.00    -0.379 N 
HETATM    8  C10 UNL     1      20.327   1.806  52.531  1.00  0.00     0.161 C 
HETATM    9  C11 UNL     1      21.415   0.919  52.996  1.00  0.00    -0.006 A 
HETATM   10  C12 UNL     1      22.663   1.512  52.770  1.00  0.00     0.029 A 
HETATM   11  C13 UNL     1      23.885   0.965  53.081  1.00  0.00     0.038 A 
HETATM   12  C15 UNL     1      23.898  -0.270  53.664  1.00  0.00     0.021 A 
HETATM   13  C16 UNL     1      22.722  -0.903  53.913  1.00  0.00     0.039 A 
HETATM   14  C17 UNL     1      21.499  -0.321  53.586  1.00  0.00     0.086 A 
HETATM   15  O3  UNL     1      20.398  -1.117  53.915  1.00  0.00    -0.289 OA
HETATM   16  H9  UNL     1      18.850   1.249  50.947  1.00  0.00     0.160 HD
ENDROOT
BRANCH   1  17
HETATM   17  N1  UNL     1      16.794   0.532  51.025  1.00  0.00    -0.349 N 
HETATM   18  H7  UNL     1      16.845   0.977  50.087  1.00  0.00     0.167 HD
BRANCH  17  19
HETATM   19  C5  UNL     1      15.564   1.185  51.325  1.00  0.00     0.090 C 
HETATM   20  C4  UNL     1      15.174   1.581  52.523  1.00  0.00     0.017 C 
BRANCH  20  21
HETATM   21  C3  UNL     1      13.889   2.241  52.712  1.00  0.00     0.005 C 
HETATM   22  C2  UNL     1      13.831   3.497  53.053  1.00  0.00    -0.070 C 
HETATM   23  C1  UNL     1      15.025   4.344  53.274  1.00  0.00     0.044 C 
BRANCH  22  24
HETATM   24  C18 UNL     1      12.533   4.186  53.249  1.00  0.00     0.148 C 
HETATM   25 CL1  UNL     1      11.983   3.824  54.913  1.00  0.00    -0.126 Cl
ENDBRANCH  22  24
ENDBRANCH  20  21
ENDBRANCH  17  19
ENDBRANCH   1  17
BRANCH  11  26
HETATM   26  C14 UNL     1      25.103   1.694  52.788  1.00  0.00     0.176 C 
HETATM   27  O1  UNL     1      25.851   1.359  51.847  1.00  0.00    -0.646 OA
BRANCH  26  28
HETATM   28  O2  UNL     1      25.496   2.779  53.520  1.00  0.00    -0.773 OA
HETATM   29  H13 UNL     1      25.644   2.779  54.523  1.00  0.00     0.167 HD
ENDBRANCH  26  28
ENDBRANCH  11  26
TORSDOF 6
ENDMDL
MODEL 8
REMARK VINA RESULT:      -7.3      5.260     10.091
REMARK  6 active torsions:
REMARK  status: ('A' for Active; 'I' for Inactive)
REMARK    1  A    between atoms: C2_2  and  C18_25 
REMARK    2  A    between atoms: C3_3  and  C4_4 
REMARK    3  A    between atoms: C5_5  and  N1_6 
REMARK    4  A    between atoms: N1_6  and  C6_7 
REMARK    5  A    between atoms: C13_17  and  C14_18 
REMARK    6  A    between atoms: C14_18  and  O2_20 
ROOT
HETATM    1  C6  UNL     1      24.031   5.491  51.043  1.00  0.00     0.159 A 
HETATM    2  N2  UNL     1      22.939   6.272  51.114  1.00  0.00    -0.222 NA
HETATM    3  C7  UNL     1      22.821   7.327  50.254  1.00  0.00     0.238 A 
HETATM    4  N3  UNL     1      23.805   7.548  49.365  1.00  0.00    -0.215 NA
HETATM    5  C8  UNL     1      24.889   6.757  49.310  1.00  0.00     0.202 A 
HETATM    6  C9  UNL     1      25.059   5.676  50.156  1.00  0.00     0.129 A 
HETATM    7  N4  UNL     1      26.088   4.704  50.302  1.00  0.00    -0.379 N 
HETATM    8  C10 UNL     1      26.987   4.296  49.239  1.00  0.00     0.161 C 
HETATM    9  C11 UNL     1      27.568   5.475  48.562  1.00  0.00    -0.006 A 
HETATM   10  C12 UNL     1      28.922   5.263  48.280  1.00  0.00     0.029 A 
HETATM   11  C13 UNL     1      29.766   6.151  47.657  1.00  0.00     0.038 A 
HETATM   12  C15 UNL     1      29.249   7.356  47.273  1.00  0.00     0.021 A 
HETATM   13  C16 UNL     1      27.941   7.628  47.515  1.00  0.00     0.039 A 
HETATM   14  C17 UNL     1      27.111   6.706  48.148  1.00  0.00     0.086 A 
HETATM   15  O3  UNL     1      25.798   7.158  48.313  1.00  0.00    -0.289 OA
HETATM   16  H9  UNL     1      26.081   4.347  51.283  1.00  0.00     0.160 HD
ENDROOT
BRANCH   1  17
HETATM   17  N1  UNL     1      24.021   4.438  51.988  1.00  0.00    -0.349 N 
HETATM   18  H7  UNL     1      24.570   3.919  52.702  1.00  0.00     0.167 HD
BRANCH  17  19
HETATM   19  C5  UNL     1      22.871   3.627  52.207  1.00  0.00     0.090 C 
HETATM   20  C4  UNL     1      22.751   2.355  51.872  1.00  0.00     0.017 C 
BRANCH  20  21
HETATM   21  C3  UNL     1      21.521   1.623  52.145  1.00  0.00     0.005 C 
HETATM   22  C2  UNL     1      20.929   0.945  51.203  1.00  0.00    -0.070 C 
HETATM   23  C1  UNL     1      21.431   0.858  49.814  1.00  0.00     0.044 C 
BRANCH  22  24
HETATM   24  C18 UNL     1      19.678   0.193  51.462  1.00  0.00     0.148 C 
HETATM   25 CL1  UNL     1      19.653  -0.220  53.202  1.00  0.00    -0.126 Cl
ENDBRANCH  22  24
ENDBRANCH  20  21
ENDBRANCH  17  19
ENDBRANCH   1  17
BRANCH  11  26
HETATM   26  C14 UNL     1      31.153   5.797  47.429  1.00  0.00     0.176 C 
HETATM   27  O1  UNL     1      32.040   6.671  47.336  1.00  0.00    -0.646 OA
BRANCH  26  28
HETATM   28  O2  UNL     1      31.563   4.499  47.304  1.00  0.00    -0.773 OA
HETATM   29  H13 UNL     1      31.075   3.786  46.776  1.00  0.00     0.167 HD
ENDBRANCH  26  28
ENDBRANCH  11  26
TORSDOF 6
ENDMDL
MODEL 9
REMARK VINA RESULT:      -7.3      7.297     11.364
REMARK  6 active torsions:
REMARK  status: ('A' for Active; 'I' for Inactive)
REMARK    1  A    between atoms: C2_2  and  C18_25 
REMARK    2  A    between atoms: C3_3  and  C4_4 
REMARK    3  A    between atoms: C5_5  and  N1_6 
REMARK    4  A    between atoms: N1_6  and  C6_7 
REMARK    5  A    between atoms: C13_17  and  C14_18 
REMARK    6  A    between atoms: C14_18  and  O2_20 
ROOT
HETATM    1  C6  UNL     1      28.082   8.310  48.922  1.00  0.00     0.159 A 
HETATM    2  N2  UNL     1      27.787   9.594  48.654  1.00  0.00    -0.222 NA
HETATM    3  C7  UNL     1      28.589  10.295  47.798  1.00  0.00     0.238 A 
HETATM    4  N3  UNL     1      29.649   9.673  47.252  1.00  0.00    -0.215 NA
HETATM    5  C8  UNL     1      29.928   8.389  47.533  1.00  0.00     0.202 A 
HETATM    6  C9  UNL     1      29.150   7.634  48.392  1.00  0.00     0.129 A 
HETATM    7  N4  UNL     1      29.224   6.288  48.847  1.00  0.00    -0.379 N 
HETATM    8  C10 UNL     1      29.853   5.207  48.111  1.00  0.00     0.161 C 
HETATM    9  C11 UNL     1      31.198   5.605  47.643  1.00  0.00    -0.006 A 
HETATM   10  C12 UNL     1      32.102   4.546  47.789  1.00  0.00     0.029 A 
HETATM   11  C13 UNL     1      33.435   4.571  47.454  1.00  0.00     0.038 A 
HETATM   12  C15 UNL     1      33.937   5.727  46.928  1.00  0.00     0.021 A 
HETATM   13  C16 UNL     1      33.114   6.795  46.757  1.00  0.00     0.039 A 
HETATM   14  C17 UNL     1      31.767   6.738  47.108  1.00  0.00     0.086 A 
HETATM   15  O3  UNL     1      31.076   7.929  46.862  1.00  0.00    -0.289 OA
HETATM   16  H9  UNL     1      28.760   6.219  49.780  1.00  0.00     0.160 HD
ENDROOT
BRANCH   1  17
HETATM   17  N1  UNL     1      27.170   7.708  49.820  1.00  0.00    -0.349 N 
HETATM   18  H7  UNL     1      26.991   7.428  50.805  1.00  0.00     0.167 HD
BRANCH  17  19
HETATM   19  C5  UNL     1      25.905   7.210  49.395  1.00  0.00     0.090 C 
HETATM   20  C4  UNL     1      25.656   5.973  49.003  1.00  0.00     0.017 C 
BRANCH  20  21
HETATM   21  C3  UNL     1      24.318   5.575  48.587  1.00  0.00     0.005 C 
HETATM   22  C2  UNL     1      23.840   4.408  48.918  1.00  0.00    -0.070 C 
HETATM   23  C1  UNL     1      24.585   3.412  49.719  1.00  0.00     0.044 C 
BRANCH  22  24
HETATM   24  C18 UNL     1      22.480   3.985  48.504  1.00  0.00     0.148 C 
HETATM   25 CL1  UNL     1      22.621   2.343  47.807  1.00  0.00    -0.126 Cl
ENDBRANCH  22  24
ENDBRANCH  20  21
ENDBRANCH  17  19
ENDBRANCH   1  17
BRANCH  11  26
HETATM   26  C14 UNL     1      34.258   3.396  47.662  1.00  0.00     0.176 C 
HETATM   27  O1  UNL     1      35.336   3.241  47.051  1.00  0.00    -0.646 OA
BRANCH  26  28
HETATM   28  O2  UNL     1      33.903   2.402  48.529  1.00  0.00    -0.773 OA
HETATM   29  H13 UNL     1      34.543   1.725  48.928  1.00  0.00     0.167 HD
ENDBRANCH  26  28
ENDBRANCH  11  26
TORSDOF 6
ENDMDL
