MODEL 1
REMARK VINA RESULT:      -7.6      0.000      0.000
REMARK  9 active torsions:
REMARK  status: ('A' for Active; 'I' for Inactive)
REMARK    1  A    between atoms: C2_2  and  N1_3 
REMARK    2  A    between atoms: N1_3  and  C3_4 
REMARK    3  A    between atoms: N1_3  and  C5_6 
REMARK    4  A    between atoms: C5_6  and  C6_7 
REMARK    5  A    between atoms: C6_7  and  N2_8 
REMARK    6  A    between atoms: N2_8  and  C7_9 
REMARK    7  A    between atoms: C7_9  and  C10_12 
REMARK    8  A    between atoms: C10_12  and  C11_14 
REMARK    9  A    between atoms: C11_14  and  C12_15 
ROOT
HETATM    1  C10 UNL     1      25.001   0.548  53.683  1.00  0.00     0.221 C 
HETATM    2  F1  UNL     1      24.364   1.743  53.417  1.00  0.00    -0.243 F 
ENDROOT
BRANCH   1   3
HETATM    3  C7  UNL     1      26.330   0.491  52.885  1.00  0.00     0.052 C 
HETATM    4  C8  UNL     1      26.694  -0.958  52.738  1.00  0.00     0.041 C 
HETATM    5  C9  UNL     1      27.326   1.147  53.810  1.00  0.00     0.041 C 
BRANCH   3   6
HETATM    6  N2  UNL     1      26.118   1.222  51.731  1.00  0.00    -0.409 N 
HETATM    7  H15 UNL     1      25.233   1.104  51.230  1.00  0.00     0.154 HD
BRANCH   6   8
HETATM    8  C6  UNL     1      26.760   2.414  51.410  1.00  0.00     0.145 C 
BRANCH   8   9
HETATM    9  C5  UNL     1      26.488   3.045  50.079  1.00  0.00     0.291 C 
BRANCH   9  10
HETATM   10  N1  UNL     1      25.429   4.014  50.084  1.00  0.00     0.089 N 
BRANCH  10  11
HETATM   11  C2  UNL     1      24.152   3.437  49.794  1.00  0.00     0.268 C 
HETATM   12  C1  UNL     1      23.132   3.736  50.888  1.00  0.00     0.037 C 
ENDBRANCH  10  11
BRANCH  10  13
HETATM   13  C3  UNL     1      25.747   5.099  49.174  1.00  0.00     0.268 C 
HETATM   14  C4  UNL     1      27.206   5.143  48.787  1.00  0.00     0.037 C 
ENDBRANCH  10  13
ENDBRANCH   9  10
ENDBRANCH   8   9
ENDBRANCH   6   8
ENDBRANCH   3   6
ENDBRANCH   1   3
BRANCH   1  15
HETATM   15  C11 UNL     1      24.110  -0.549  53.283  1.00  0.00     0.030 C 
BRANCH  15  16
HETATM   16  C12 UNL     1      22.827  -0.659  53.574  1.00  0.00     0.043 A 
HETATM   17  C13 UNL     1      22.245  -1.202  54.787  1.00  0.00     0.256 A 
HETATM   18  O1  UNL     1      22.818  -1.676  55.797  1.00  0.00    -0.267 OA
HETATM   19  N3  UNL     1      20.812  -1.109  54.649  1.00  0.00    -0.322 N 
HETATM   20  C14 UNL     1      20.540  -0.528  53.390  1.00  0.00     0.046 A 
HETATM   21  H24 UNL     1      20.098  -1.408  55.336  1.00  0.00     0.169 HD
HETATM   22  C15 UNL     1      19.316  -0.226  52.795  1.00  0.00     0.031 A 
HETATM   23  C20 UNL     1      21.733  -0.248  52.727  1.00  0.00     0.007 A 
HETATM   24  C16 UNL     1      19.299   0.353  51.537  1.00  0.00     0.009 A 
HETATM   25  C17 UNL     1      20.488   0.634  50.866  1.00  0.00    -0.061 A 
HETATM   26  C18 UNL     1      20.314   1.254  49.529  1.00  0.00     0.048 C 
HETATM   27  C19 UNL     1      21.700   0.328  51.474  1.00  0.00     0.021 A 
ENDBRANCH  15  16
ENDBRANCH   1  15
TORSDOF 9
ENDMDL
MODEL 2
REMARK VINA RESULT:      -7.4      2.065      4.964
REMARK  9 active torsions:
REMARK  status: ('A' for Active; 'I' for Inactive)
REMARK    1  A    between atoms: C2_2  and  N1_3 
REMARK    2  A    between atoms: N1_3  and  C3_4 
REMARK    3  A    between atoms: N1_3  and  C5_6 
REMARK    4  A    between atoms: C5_6  and  C6_7 
REMARK    5  A    between atoms: C6_7  and  N2_8 
REMARK    6  A    between atoms: N2_8  and  C7_9 
REMARK    7  A    between atoms: C7_9  and  C10_12 
REMARK    8  A    between atoms: C10_12  and  C11_14 
REMARK    9  A    between atoms: C11_14  and  C12_15 
ROOT
HETATM    1  C10 UNL     1      21.127   0.766  53.402  1.00  0.00     0.221 C 
HETATM    2  F1  UNL     1      20.501   0.611  54.622  1.00  0.00    -0.243 F 
ENDROOT
BRANCH   1   3
HETATM    3  C7  UNL     1      20.061   0.760  52.277  1.00  0.00     0.052 C 
HETATM    4  C8  UNL     1      19.021  -0.253  52.659  1.00  0.00     0.041 C 
HETATM    5  C9  UNL     1      20.817   0.246  51.076  1.00  0.00     0.041 C 
BRANCH   3   6
HETATM    6  N2  UNL     1      19.655   2.073  52.124  1.00  0.00    -0.409 N 
HETATM    7  H15 UNL     1      18.654   2.271  52.038  1.00  0.00     0.154 HD
BRANCH   6   8
HETATM    8  C6  UNL     1      20.389   3.187  52.517  1.00  0.00     0.145 C 
BRANCH   8   9
HETATM    9  C5  UNL     1      21.092   3.995  51.470  1.00  0.00     0.291 C 
BRANCH   9  10
HETATM   10  N1  UNL     1      22.374   3.481  51.081  1.00  0.00     0.089 N 
BRANCH  10  11
HETATM   11  C2  UNL     1      23.447   4.367  51.414  1.00  0.00     0.268 C 
HETATM   12  C1  UNL     1      23.723   4.385  52.915  1.00  0.00     0.037 C 
ENDBRANCH  10  11
BRANCH  10  13
HETATM   13  C3  UNL     1      22.368   3.153  49.668  1.00  0.00     0.268 C 
HETATM   14  C4  UNL     1      23.726   3.277  49.021  1.00  0.00     0.037 C 
ENDBRANCH  10  13
ENDBRANCH   9  10
ENDBRANCH   8   9
ENDBRANCH   6   8
ENDBRANCH   3   6
ENDBRANCH   1   3
BRANCH   1  15
HETATM   15  C11 UNL     1      22.073  -0.344  53.226  1.00  0.00     0.030 C 
BRANCH  15  16
HETATM   16  C12 UNL     1      23.235  -0.486  53.836  1.00  0.00     0.043 A 
HETATM   17  C13 UNL     1      23.506  -1.248  55.041  1.00  0.00     0.256 A 
HETATM   18  O1  UNL     1      22.717  -1.918  55.749  1.00  0.00    -0.267 OA
HETATM   19  N3  UNL     1      24.915  -1.111  55.321  1.00  0.00    -0.322 N 
HETATM   20  C14 UNL     1      25.474  -0.291  54.315  1.00  0.00     0.046 A 
HETATM   21  H24 UNL     1      25.438  -1.530  56.110  1.00  0.00     0.169 HD
HETATM   22  C15 UNL     1      26.791   0.131  54.141  1.00  0.00     0.031 A 
HETATM   23  C20 UNL     1      24.486   0.095  53.412  1.00  0.00     0.007 A 
HETATM   24  C16 UNL     1      27.106   0.940  53.062  1.00  0.00     0.009 A 
HETATM   25  C17 UNL     1      26.123   1.333  52.155  1.00  0.00    -0.061 A 
HETATM   26  C18 UNL     1      26.607   2.198  51.051  1.00  0.00     0.048 C 
HETATM   27  C19 UNL     1      24.814   0.902  52.342  1.00  0.00     0.021 A 
ENDBRANCH  15  16
ENDBRANCH   1  15
TORSDOF 9
ENDMDL
MODEL 3
REMARK VINA RESULT:      -7.4      1.902      3.701
REMARK  9 active torsions:
REMARK  status: ('A' for Active; 'I' for Inactive)
REMARK    1  A    between atoms: C2_2  and  N1_3 
REMARK    2  A    between atoms: N1_3  and  C3_4 
REMARK    3  A    between atoms: N1_3  and  C5_6 
REMARK    4  A    between atoms: C5_6  and  C6_7 
REMARK    5  A    between atoms: C6_7  and  N2_8 
REMARK    6  A    between atoms: N2_8  and  C7_9 
REMARK    7  A    between atoms: C7_9  and  C10_12 
REMARK    8  A    between atoms: C10_12  and  C11_14 
REMARK    9  A    between atoms: C11_14  and  C12_15 
ROOT
HETATM    1  C10 UNL     1      23.828   0.568  52.271  1.00  0.00     0.221 C 
HETATM    2  F1  UNL     1      24.652  -0.455  52.696  1.00  0.00    -0.243 F 
ENDROOT
BRANCH   1   3
HETATM    3  C7  UNL     1      24.679   1.843  52.035  1.00  0.00     0.052 C 
HETATM    4  C8  UNL     1      24.401   2.777  53.178  1.00  0.00     0.041 C 
HETATM    5  C9  UNL     1      24.091   2.432  50.777  1.00  0.00     0.041 C 
BRANCH   3   6
HETATM    6  N2  UNL     1      25.981   1.411  51.860  1.00  0.00    -0.409 N 
HETATM    7  H15 UNL     1      26.154   0.611  51.245  1.00  0.00     0.154 HD
BRANCH   6   8
HETATM    8  C6  UNL     1      27.115   2.191  52.056  1.00  0.00     0.145 C 
BRANCH   8   9
HETATM    9  C5  UNL     1      27.939   1.971  53.288  1.00  0.00     0.291 C 
BRANCH   9  10
HETATM   10  N1  UNL     1      28.170   0.592  53.611  1.00  0.00     0.089 N 
BRANCH  10  11
HETATM   11  C2  UNL     1      27.851   0.283  54.971  1.00  0.00     0.268 C 
HETATM   12  C1  UNL     1      26.350   0.097  55.174  1.00  0.00     0.037 C 
ENDBRANCH  10  11
BRANCH  10  13
HETATM   13  C3  UNL     1      29.537   0.230  53.285  1.00  0.00     0.268 C 
HETATM   14  C4  UNL     1      29.871  -1.204  53.623  1.00  0.00     0.037 C 
ENDBRANCH  10  13
ENDBRANCH   9  10
ENDBRANCH   8   9
ENDBRANCH   6   8
ENDBRANCH   3   6
ENDBRANCH   1   3
BRANCH   1  15
HETATM   15  C11 UNL     1      22.816   0.805  53.309  1.00  0.00     0.030 C 
BRANCH  15  16
HETATM   16  C12 UNL     1      21.783   0.031  53.585  1.00  0.00     0.043 A 
HETATM   17  C13 UNL     1      21.680  -0.946  54.653  1.00  0.00     0.256 A 
HETATM   18  O1  UNL     1      22.527  -1.262  55.522  1.00  0.00    -0.267 OA
HETATM   19  N3  UNL     1      20.367  -1.538  54.560  1.00  0.00    -0.322 N 
HETATM   20  C14 UNL     1      19.702  -0.936  53.469  1.00  0.00     0.046 A 
HETATM   21  H24 UNL     1      19.969  -2.271  55.172  1.00  0.00     0.169 HD
HETATM   22  C15 UNL     1      18.418  -1.162  52.974  1.00  0.00     0.031 A 
HETATM   23  C20 UNL     1      20.531   0.010  52.868  1.00  0.00     0.007 A 
HETATM   24  C16 UNL     1      17.977  -0.437  51.880  1.00  0.00     0.009 A 
HETATM   25  C17 UNL     1      18.801   0.509  51.272  1.00  0.00    -0.061 A 
HETATM   26  C18 UNL     1      18.194   1.207  50.112  1.00  0.00     0.048 C 
HETATM   27  C19 UNL     1      20.078   0.723  51.778  1.00  0.00     0.021 A 
ENDBRANCH  15  16
ENDBRANCH   1  15
TORSDOF 9
ENDMDL
MODEL 4
REMARK VINA RESULT:      -7.4      2.195      5.704
REMARK  9 active torsions:
REMARK  status: ('A' for Active; 'I' for Inactive)
REMARK    1  A    between atoms: C2_2  and  N1_3 
REMARK    2  A    between atoms: N1_3  and  C3_4 
REMARK    3  A    between atoms: N1_3  and  C5_6 
REMARK    4  A    between atoms: C5_6  and  C6_7 
REMARK    5  A    between atoms: C6_7  and  N2_8 
REMARK    6  A    between atoms: N2_8  and  C7_9 
REMARK    7  A    between atoms: C7_9  and  C10_12 
REMARK    8  A    between atoms: C10_12  and  C11_14 
REMARK    9  A    between atoms: C11_14  and  C12_15 
ROOT
HETATM    1  C10 UNL     1      22.857   0.173  53.316  1.00  0.00     0.221 C 
HETATM    2  F1  UNL     1      22.714  -1.199  53.336  1.00  0.00    -0.243 F 
ENDROOT
BRANCH   1   3
HETATM    3  C7  UNL     1      21.602   0.808  52.662  1.00  0.00     0.052 C 
HETATM    4  C8  UNL     1      20.414   0.371  53.471  1.00  0.00     0.041 C 
HETATM    5  C9  UNL     1      21.535   0.144  51.309  1.00  0.00     0.041 C 
BRANCH   3   6
HETATM    6  N2  UNL     1      21.857   2.164  52.575  1.00  0.00    -0.409 N 
HETATM    7  H15 UNL     1      22.740   2.523  52.948  1.00  0.00     0.154 HD
BRANCH   6   8
HETATM    8  C6  UNL     1      21.273   3.030  51.656  1.00  0.00     0.145 C 
BRANCH   8   9
HETATM    9  C5  UNL     1      22.126   4.074  51.005  1.00  0.00     0.291 C 
BRANCH   9  10
HETATM   10  N1  UNL     1      22.605   3.723  49.698  1.00  0.00     0.089 N 
BRANCH  10  11
HETATM   11  C2  UNL     1      21.607   3.081  48.899  1.00  0.00     0.268 C 
HETATM   12  C1  UNL     1      22.192   1.949  48.061  1.00  0.00     0.037 C 
ENDBRANCH  10  11
BRANCH  10  13
HETATM   13  C3  UNL     1      23.804   2.913  49.812  1.00  0.00     0.268 C 
HETATM   14  C4  UNL     1      25.077   3.724  49.773  1.00  0.00     0.037 C 
ENDBRANCH  10  13
ENDBRANCH   9  10
ENDBRANCH   8   9
ENDBRANCH   6   8
ENDBRANCH   3   6
ENDBRANCH   1   3
BRANCH   1  15
HETATM   15  C11 UNL     1      24.064   0.500  52.546  1.00  0.00     0.030 C 
BRANCH  15  16
HETATM   16  C12 UNL     1      25.157   1.074  53.012  1.00  0.00     0.043 A 
HETATM   17  C13 UNL     1      25.309   2.450  53.449  1.00  0.00     0.256 A 
HETATM   18  O1  UNL     1      24.458   3.370  53.476  1.00  0.00    -0.267 OA
HETATM   19  N3  UNL     1      26.678   2.609  53.877  1.00  0.00    -0.322 N 
HETATM   20  C14 UNL     1      27.329   1.368  53.702  1.00  0.00     0.046 A 
HETATM   21  H24 UNL     1      27.119   3.469  54.247  1.00  0.00     0.169 HD
HETATM   22  C15 UNL     1      28.650   1.010  53.972  1.00  0.00     0.031 A 
HETATM   23  C20 UNL     1      26.437   0.431  53.185  1.00  0.00     0.007 A 
HETATM   24  C16 UNL     1      29.064  -0.287  53.719  1.00  0.00     0.009 A 
HETATM   25  C17 UNL     1      28.179  -1.230  53.199  1.00  0.00    -0.061 A 
HETATM   26  C18 UNL     1      28.764  -2.576  52.980  1.00  0.00     0.048 C 
HETATM   27  C19 UNL     1      26.866  -0.857  52.937  1.00  0.00     0.021 A 
ENDBRANCH  15  16
ENDBRANCH   1  15
TORSDOF 9
ENDMDL
MODEL 5
REMARK VINA RESULT:      -7.1      2.217      4.741
REMARK  9 active torsions:
REMARK  status: ('A' for Active; 'I' for Inactive)
REMARK    1  A    between atoms: C2_2  and  N1_3 
REMARK    2  A    between atoms: N1_3  and  C3_4 
REMARK    3  A    between atoms: N1_3  and  C5_6 
REMARK    4  A    between atoms: C5_6  and  C6_7 
REMARK    5  A    between atoms: C6_7  and  N2_8 
REMARK    6  A    between atoms: N2_8  and  C7_9 
REMARK    7  A    between atoms: C7_9  and  C10_12 
REMARK    8  A    between atoms: C10_12  and  C11_14 
REMARK    9  A    between atoms: C11_14  and  C12_15 
ROOT
HETATM    1  C10 UNL     1      24.172   2.534  51.762  1.00  0.00     0.221 C 
HETATM    2  F1  UNL     1      23.459   3.156  52.766  1.00  0.00    -0.243 F 
ENDROOT
BRANCH   1   3
HETATM    3  C7  UNL     1      24.916   3.607  50.925  1.00  0.00     0.052 C 
HETATM    4  C8  UNL     1      24.224   4.917  51.171  1.00  0.00     0.041 C 
HETATM    5  C9  UNL     1      24.658   3.186  49.499  1.00  0.00     0.041 C 
BRANCH   3   6
HETATM    6  N2  UNL     1      26.251   3.509  51.272  1.00  0.00    -0.409 N 
HETATM    7  H15 UNL     1      26.708   4.319  51.699  1.00  0.00     0.154 HD
BRANCH   6   8
HETATM    8  C6  UNL     1      26.926   2.319  51.525  1.00  0.00     0.145 C 
BRANCH   8   9
HETATM    9  C5  UNL     1      27.608   2.142  52.846  1.00  0.00     0.291 C 
BRANCH   9  10
HETATM   10  N1  UNL     1      27.377   0.870  53.471  1.00  0.00     0.089 N 
BRANCH  10  11
HETATM   11  C2  UNL     1      28.408   0.515  54.396  1.00  0.00     0.268 C 
HETATM   12  C1  UNL     1      29.641  -0.039  53.688  1.00  0.00     0.037 C 
ENDBRANCH  10  11
BRANCH  10  13
HETATM   13  C3  UNL     1      27.190  -0.151  52.457  1.00  0.00     0.268 C 
HETATM   14  C4  UNL     1      26.199  -1.217  52.860  1.00  0.00     0.037 C 
ENDBRANCH  10  13
ENDBRANCH   9  10
ENDBRANCH   8   9
ENDBRANCH   6   8
ENDBRANCH   3   6
ENDBRANCH   1   3
BRANCH   1  15
HETATM   15  C11 UNL     1      23.228   1.785  50.922  1.00  0.00     0.030 C 
BRANCH  15  16
HETATM   16  C12 UNL     1      22.087   1.250  51.314  1.00  0.00     0.043 A 
HETATM   17  C13 UNL     1      20.787   1.396  50.685  1.00  0.00     0.256 A 
HETATM   18  O1  UNL     1      20.471   2.047  49.661  1.00  0.00    -0.267 OA
HETATM   19  N3  UNL     1      19.849   0.627  51.467  1.00  0.00    -0.322 N 
HETATM   20  C14 UNL     1      20.563   0.037  52.534  1.00  0.00     0.046 A 
HETATM   21  H24 UNL     1      18.835   0.516  51.293  1.00  0.00     0.169 HD
HETATM   22  C15 UNL     1      20.109  -0.795  53.556  1.00  0.00     0.031 A 
HETATM   23  C20 UNL     1      21.908   0.395  52.463  1.00  0.00     0.007 A 
HETATM   24  C16 UNL     1      21.009  -1.261  54.500  1.00  0.00     0.009 A 
HETATM   25  C17 UNL     1      22.356  -0.905  54.438  1.00  0.00    -0.061 A 
HETATM   26  C18 UNL     1      23.200  -1.478  55.515  1.00  0.00     0.048 C 
HETATM   27  C19 UNL     1      22.792  -0.075  53.411  1.00  0.00     0.021 A 
ENDBRANCH  15  16
ENDBRANCH   1  15
TORSDOF 9
ENDMDL
MODEL 6
REMARK VINA RESULT:      -7.1      2.059      3.385
REMARK  9 active torsions:
REMARK  status: ('A' for Active; 'I' for Inactive)
REMARK    1  A    between atoms: C2_2  and  N1_3 
REMARK    2  A    between atoms: N1_3  and  C3_4 
REMARK    3  A    between atoms: N1_3  and  C5_6 
REMARK    4  A    between atoms: C5_6  and  C6_7 
REMARK    5  A    between atoms: C6_7  and  N2_8 
REMARK    6  A    between atoms: N2_8  and  C7_9 
REMARK    7  A    between atoms: C7_9  and  C10_12 
REMARK    8  A    between atoms: C10_12  and  C11_14 
REMARK    9  A    between atoms: C11_14  and  C12_15 
ROOT
HETATM    1  C10 UNL     1      25.615   2.450  52.611  1.00  0.00     0.221 C 
HETATM    2  F1  UNL     1      25.291   2.822  53.900  1.00  0.00    -0.243 F 
ENDROOT
BRANCH   1   3
HETATM    3  C7  UNL     1      24.819   3.328  51.611  1.00  0.00     0.052 C 
HETATM    4  C8  UNL     1      23.740   4.020  52.393  1.00  0.00     0.041 C 
HETATM    5  C9  UNL     1      24.177   2.321  50.689  1.00  0.00     0.041 C 
BRANCH   3   6
HETATM    6  N2  UNL     1      25.752   4.118  50.965  1.00  0.00    -0.409 N 
HETATM    7  H15 UNL     1      26.703   4.161  51.339  1.00  0.00     0.154 HD
BRANCH   6   8
HETATM    8  C6  UNL     1      25.684   4.505  49.630  1.00  0.00     0.145 C 
BRANCH   8   9
HETATM    9  C5  UNL     1      25.122   5.853  49.297  1.00  0.00     0.291 C 
BRANCH   9  10
HETATM   10  N1  UNL     1      25.746   6.946  49.987  1.00  0.00     0.089 N 
BRANCH  10  11
HETATM   11  C2  UNL     1      24.810   7.947  50.396  1.00  0.00     0.268 C 
HETATM   12  C1  UNL     1      23.424   7.360  50.646  1.00  0.00     0.037 C 
ENDBRANCH  10  11
BRANCH  10  13
HETATM   13  C3  UNL     1      26.808   7.504  49.170  1.00  0.00     0.268 C 
HETATM   14  C4  UNL     1      26.438   7.622  47.711  1.00  0.00     0.037 C 
ENDBRANCH  10  13
ENDBRANCH   9  10
ENDBRANCH   8   9
ENDBRANCH   6   8
ENDBRANCH   3   6
ENDBRANCH   1   3
BRANCH   1  15
HETATM   15  C11 UNL     1      25.272   1.031  52.442  1.00  0.00     0.030 C 
BRANCH  15  16
HETATM   16  C12 UNL     1      24.859   0.209  53.387  1.00  0.00     0.043 A 
HETATM   17  C13 UNL     1      25.670  -0.446  54.397  1.00  0.00     0.256 A 
HETATM   18  O1  UNL     1      26.908  -0.377  54.587  1.00  0.00    -0.267 OA
HETATM   19  N3  UNL     1      24.778  -1.241  55.207  1.00  0.00    -0.322 N 
HETATM   20  C14 UNL     1      23.471  -1.070  54.698  1.00  0.00     0.046 A 
HETATM   21  H24 UNL     1      25.032  -1.834  56.016  1.00  0.00     0.169 HD
HETATM   22  C15 UNL     1      22.267  -1.622  55.135  1.00  0.00     0.031 A 
HETATM   23  C20 UNL     1      23.494  -0.205  53.607  1.00  0.00     0.007 A 
HETATM   24  C16 UNL     1      21.096  -1.300  54.471  1.00  0.00     0.009 A 
HETATM   25  C17 UNL     1      21.110  -0.437  53.376  1.00  0.00    -0.061 A 
HETATM   26  C18 UNL     1      19.780  -0.185  52.767  1.00  0.00     0.048 C 
HETATM   27  C19 UNL     1      22.318   0.105  52.954  1.00  0.00     0.021 A 
ENDBRANCH  15  16
ENDBRANCH   1  15
TORSDOF 9
ENDMDL
MODEL 7
REMARK VINA RESULT:      -7.0      2.170      3.801
REMARK  9 active torsions:
REMARK  status: ('A' for Active; 'I' for Inactive)
REMARK    1  A    between atoms: C2_2  and  N1_3 
REMARK    2  A    between atoms: N1_3  and  C3_4 
REMARK    3  A    between atoms: N1_3  and  C5_6 
REMARK    4  A    between atoms: C5_6  and  C6_7 
REMARK    5  A    between atoms: C6_7  and  N2_8 
REMARK    6  A    between atoms: N2_8  and  C7_9 
REMARK    7  A    between atoms: C7_9  and  C10_12 
REMARK    8  A    between atoms: C10_12  and  C11_14 
REMARK    9  A    between atoms: C11_14  and  C12_15 
ROOT
HETATM    1  C10 UNL     1      26.436   1.892  51.750  1.00  0.00     0.221 C 
HETATM    2  F1  UNL     1      26.915   2.295  52.979  1.00  0.00    -0.243 F 
ENDROOT
BRANCH   1   3
HETATM    3  C7  UNL     1      25.368   2.906  51.262  1.00  0.00     0.052 C 
HETATM    4  C8  UNL     1      24.328   2.124  50.513  1.00  0.00     0.041 C 
HETATM    5  C9  UNL     1      26.123   3.768  50.280  1.00  0.00     0.041 C 
BRANCH   3   6
HETATM    6  N2  UNL     1      24.963   3.608  52.382  1.00  0.00    -0.409 N 
HETATM    7  H15 UNL     1      25.619   4.264  52.814  1.00  0.00     0.154 HD
BRANCH   6   8
HETATM    8  C6  UNL     1      23.641   3.867  52.728  1.00  0.00     0.145 C 
BRANCH   8   9
HETATM    9  C5  UNL     1      22.957   5.058  52.129  1.00  0.00     0.291 C 
BRANCH   9  10
HETATM   10  N1  UNL     1      21.595   4.828  51.738  1.00  0.00     0.089 N 
BRANCH  10  11
HETATM   11  C2  UNL     1      21.158   3.496  52.019  1.00  0.00     0.268 C 
HETATM   12  C1  UNL     1      20.255   2.950  50.916  1.00  0.00     0.037 C 
ENDBRANCH  10  11
BRANCH  10  13
HETATM   13  C3  UNL     1      21.419   5.168  50.339  1.00  0.00     0.268 C 
HETATM   14  C4  UNL     1      22.718   5.461  49.628  1.00  0.00     0.037 C 
ENDBRANCH  10  13
ENDBRANCH   9  10
ENDBRANCH   8   9
ENDBRANCH   6   8
ENDBRANCH   3   6
ENDBRANCH   1   3
BRANCH   1  15
HETATM   15  C11 UNL     1      25.849   0.554  51.901  1.00  0.00     0.030 C 
BRANCH  15  16
HETATM   16  C12 UNL     1      25.506  -0.026  53.036  1.00  0.00     0.043 A 
HETATM   17  C13 UNL     1      26.393  -0.544  54.061  1.00  0.00     0.256 A 
HETATM   18  O1  UNL     1      27.647  -0.555  54.091  1.00  0.00    -0.267 OA
HETATM   19  N3  UNL     1      25.561  -1.077  55.112  1.00  0.00    -0.322 N 
HETATM   20  C14 UNL     1      24.214  -0.888  54.730  1.00  0.00     0.046 A 
HETATM   21  H24 UNL     1      25.876  -1.522  55.991  1.00  0.00     0.169 HD
HETATM   22  C15 UNL     1      23.042  -1.228  55.403  1.00  0.00     0.031 A 
HETATM   23  C20 UNL     1      24.155  -0.258  53.488  1.00  0.00     0.007 A 
HETATM   24  C16 UNL     1      21.819  -0.933  54.824  1.00  0.00     0.009 A 
HETATM   25  C17 UNL     1      21.751  -0.306  53.581  1.00  0.00    -0.061 A 
HETATM   26  C18 UNL     1      20.375  -0.054  53.088  1.00  0.00     0.048 C 
HETATM   27  C19 UNL     1      22.929   0.028  52.923  1.00  0.00     0.021 A 
ENDBRANCH  15  16
ENDBRANCH   1  15
TORSDOF 9
ENDMDL
MODEL 8
REMARK VINA RESULT:      -7.0      2.058      3.554
REMARK  9 active torsions:
REMARK  status: ('A' for Active; 'I' for Inactive)
REMARK    1  A    between atoms: C2_2  and  N1_3 
REMARK    2  A    between atoms: N1_3  and  C3_4 
REMARK    3  A    between atoms: N1_3  and  C5_6 
REMARK    4  A    between atoms: C5_6  and  C6_7 
REMARK    5  A    between atoms: C6_7  and  N2_8 
REMARK    6  A    between atoms: N2_8  and  C7_9 
REMARK    7  A    between atoms: C7_9  and  C10_12 
REMARK    8  A    between atoms: C10_12  and  C11_14 
REMARK    9  A    between atoms: C11_14  and  C12_15 
ROOT
HETATM    1  C10 UNL     1      25.680   2.370  52.465  1.00  0.00     0.221 C 
HETATM    2  F1  UNL     1      25.225   2.829  53.684  1.00  0.00    -0.243 F 
ENDROOT
BRANCH   1   3
HETATM    3  C7  UNL     1      25.008   3.186  51.330  1.00  0.00     0.052 C 
HETATM    4  C8  UNL     1      23.952   2.310  50.722  1.00  0.00     0.041 C 
HETATM    5  C9  UNL     1      26.118   3.373  50.325  1.00  0.00     0.041 C 
BRANCH   3   6
HETATM    6  N2  UNL     1      24.605   4.379  51.901  1.00  0.00    -0.409 N 
HETATM    7  H15 UNL     1      25.311   5.094  52.097  1.00  0.00     0.154 HD
BRANCH   6   8
HETATM    8  C6  UNL     1      23.318   4.904  51.832  1.00  0.00     0.145 C 
BRANCH   8   9
HETATM    9  C5  UNL     1      23.062   6.074  50.932  1.00  0.00     0.291 C 
BRANCH   9  10
HETATM   10  N1  UNL     1      23.549   5.912  49.592  1.00  0.00     0.089 N 
BRANCH  10  11
HETATM   11  C2  UNL     1      24.328   7.027  49.150  1.00  0.00     0.268 C 
HETATM   12  C1  UNL     1      25.627   6.584  48.484  1.00  0.00     0.037 C 
ENDBRANCH  10  11
BRANCH  10  13
HETATM   13  C3  UNL     1      22.442   5.642  48.694  1.00  0.00     0.268 C 
HETATM   14  C4  UNL     1      22.617   4.370  47.898  1.00  0.00     0.037 C 
ENDBRANCH  10  13
ENDBRANCH   9  10
ENDBRANCH   8   9
ENDBRANCH   6   8
ENDBRANCH   3   6
ENDBRANCH   1   3
BRANCH   1  15
HETATM   15  C11 UNL     1      25.337   0.946  52.351  1.00  0.00     0.030 C 
BRANCH  15  16
HETATM   16  C12 UNL     1      24.923   0.161  53.328  1.00  0.00     0.043 A 
HETATM   17  C13 UNL     1      25.736  -0.472  54.350  1.00  0.00     0.256 A 
HETATM   18  O1  UNL     1      26.977  -0.416  54.522  1.00  0.00    -0.267 OA
HETATM   19  N3  UNL     1      24.842  -1.226  55.196  1.00  0.00    -0.322 N 
HETATM   20  C14 UNL     1      23.532  -1.052  54.698  1.00  0.00     0.046 A 
HETATM   21  H24 UNL     1      25.097  -1.796  56.021  1.00  0.00     0.169 HD
HETATM   22  C15 UNL     1      22.325  -1.569  55.167  1.00  0.00     0.031 A 
HETATM   23  C20 UNL     1      23.555  -0.223  53.578  1.00  0.00     0.007 A 
HETATM   24  C16 UNL     1      21.150  -1.251  54.506  1.00  0.00     0.009 A 
HETATM   25  C17 UNL     1      21.164  -0.425  53.384  1.00  0.00    -0.061 A 
HETATM   26  C18 UNL     1      19.832  -0.172  52.783  1.00  0.00     0.048 C 
HETATM   27  C19 UNL     1      22.376   0.084  52.930  1.00  0.00     0.021 A 
ENDBRANCH  15  16
ENDBRANCH   1  15
TORSDOF 9
ENDMDL
MODEL 9
REMARK VINA RESULT:      -6.8      2.119      4.243
REMARK  9 active torsions:
REMARK  status: ('A' for Active; 'I' for Inactive)
REMARK    1  A    between atoms: C2_2  and  N1_3 
REMARK    2  A    between atoms: N1_3  and  C3_4 
REMARK    3  A    between atoms: N1_3  and  C5_6 
REMARK    4  A    between atoms: C5_6  and  C6_7 
REMARK    5  A    between atoms: C6_7  and  N2_8 
REMARK    6  A    between atoms: N2_8  and  C7_9 
REMARK    7  A    between atoms: C7_9  and  C10_12 
REMARK    8  A    between atoms: C10_12  and  C11_14 
REMARK    9  A    between atoms: C11_14  and  C12_15 
ROOT
HETATM    1  C10 UNL     1      25.247   2.732  51.936  1.00  0.00     0.221 C 
HETATM    2  F1  UNL     1      24.323   3.175  52.860  1.00  0.00    -0.243 F 
ENDROOT
BRANCH   1   3
HETATM    3  C7  UNL     1      24.902   3.325  50.545  1.00  0.00     0.052 C 
HETATM    4  C8  UNL     1      26.150   3.255  49.714  1.00  0.00     0.041 C 
HETATM    5  C9  UNL     1      24.600   4.773  50.842  1.00  0.00     0.041 C 
BRANCH   3   6
HETATM    6  N2  UNL     1      23.791   2.634  50.097  1.00  0.00    -0.409 N 
HETATM    7  H15 UNL     1      23.207   2.147  50.781  1.00  0.00     0.154 HD
BRANCH   6   8
HETATM    8  C6  UNL     1      23.122   2.884  48.903  1.00  0.00     0.145 C 
BRANCH   8   9
HETATM    9  C5  UNL     1      21.772   3.532  48.954  1.00  0.00     0.291 C 
BRANCH   9  10
HETATM   10  N1  UNL     1      20.852   2.922  49.871  1.00  0.00     0.089 N 
BRANCH  10  11
HETATM   11  C2  UNL     1      19.727   2.333  49.213  1.00  0.00     0.268 C 
HETATM   12  C1  UNL     1      19.198   1.118  49.969  1.00  0.00     0.037 C 
ENDBRANCH  10  11
BRANCH  10  13
HETATM   13  C3  UNL     1      20.443   3.886  50.876  1.00  0.00     0.268 C 
HETATM   14  C4  UNL     1      21.025   3.607  52.241  1.00  0.00     0.037 C 
ENDBRANCH  10  13
ENDBRANCH   9  10
ENDBRANCH   8   9
ENDBRANCH   6   8
ENDBRANCH   3   6
ENDBRANCH   1   3
BRANCH   1  15
HETATM   15  C11 UNL     1      25.197   1.265  51.901  1.00  0.00     0.030 C 
BRANCH  15  16
HETATM   16  C12 UNL     1      25.017   0.463  52.934  1.00  0.00     0.043 A 
HETATM   17  C13 UNL     1      26.041  -0.115  53.785  1.00  0.00     0.256 A 
HETATM   18  O1  UNL     1      27.287   0.014  53.725  1.00  0.00    -0.267 OA
HETATM   19  N3  UNL     1      25.364  -0.914  54.778  1.00  0.00    -0.322 N 
HETATM   20  C14 UNL     1      23.976  -0.820  54.531  1.00  0.00     0.046 A 
HETATM   21  H24 UNL     1      25.800  -1.463  55.540  1.00  0.00     0.169 HD
HETATM   22  C15 UNL     1      22.910  -1.404  55.212  1.00  0.00     0.031 A 
HETATM   23  C20 UNL     1      23.743   0.001  53.430  1.00  0.00     0.007 A 
HETATM   24  C16 UNL     1      21.616  -1.160  54.782  1.00  0.00     0.009 A 
HETATM   25  C17 UNL     1      21.374  -0.341  53.680  1.00  0.00    -0.061 A 
HETATM   26  C18 UNL     1      19.941  -0.171  53.336  1.00  0.00     0.048 C 
HETATM   27  C19 UNL     1      22.449   0.235  53.012  1.00  0.00     0.021 A 
ENDBRANCH  15  16
ENDBRANCH   1  15
TORSDOF 9
ENDMDL
