MODEL 1
REMARK VINA RESULT:      -8.8      0.000      0.000
REMARK  3 active torsions:
REMARK  status: ('A' for Active; 'I' for Inactive)
REMARK    1  A    between atoms: C7_7  and  C8_8 
REMARK    2  A    between atoms: C8_8  and  C9_9 
REMARK    3  A    between atoms: C10_10  and  N1_11 
ROOT
HETATM    1  N1  UNL     1      24.234   1.356  51.756  1.00  0.00    -0.056 N 
HETATM    2  C11 UNL     1      23.496   0.461  52.683  1.00  0.00     0.761 A 
HETATM    3  N2  UNL     1      23.701  -0.114  53.771  1.00  0.00    -0.102 NA
HETATM    4  C12 UNL     1      22.925  -0.974  54.614  1.00  0.00     0.172 C 
HETATM    5  C13 UNL     1      21.475  -1.100  54.267  1.00  0.00     0.049 C 
HETATM    6  C14 UNL     1      20.718   0.183  54.276  1.00  0.00    -0.029 C 
HETATM    7  C15 UNL     1      20.117   0.741  53.209  1.00  0.00    -0.024 C 
HETATM    8  C16 UNL     1      20.105   0.200  51.908  1.00  0.00     0.096 C 
HETATM    9  C17 UNL     1      20.624   0.725  50.684  1.00  0.00     0.105 A 
HETATM   10 BR1  UNL     1      21.326   1.415  49.080  1.00  0.00     0.036 Br
HETATM   11  N3  UNL     1      21.877   0.973  50.666  1.00  0.00    -0.185 N 
HETATM   12  N4  UNL     1      22.861   0.841  51.598  1.00  0.00     0.017 N 
ENDROOT
BRANCH   1  13
HETATM   13  C10 UNL     1      25.409   2.128  51.353  1.00  0.00     0.134 C 
HETATM   14  C9  UNL     1      26.465   2.209  52.140  1.00  0.00    -0.002 C 
BRANCH  14  15
HETATM   15  C8  UNL     1      26.768   1.643  53.475  1.00  0.00     0.067 C 
BRANCH  15  16
HETATM   16  C7  UNL     1      27.717   0.515  53.453  1.00  0.00    -0.049 A 
HETATM   17  C2  UNL     1      29.021   0.638  53.884  1.00  0.00    -0.055 A 
HETATM   18  C1  UNL     1      29.537   1.911  54.394  1.00  0.00     0.049 C 
HETATM   19  C3  UNL     1      29.777  -0.530  53.791  1.00  0.00     0.007 A 
HETATM   20  C4  UNL     1      29.323  -1.726  53.322  1.00  0.00     0.001 A 
HETATM   21  C5  UNL     1      28.000  -1.831  52.890  1.00  0.00     0.001 A 
HETATM   22  C6  UNL     1      27.224  -0.692  52.970  1.00  0.00     0.008 A 
ENDBRANCH  15  16
ENDBRANCH  14  15
ENDBRANCH   1  13
TORSDOF 3
ENDMDL
MODEL 2
REMARK VINA RESULT:      -8.4      3.534      5.451
REMARK  3 active torsions:
REMARK  status: ('A' for Active; 'I' for Inactive)
REMARK    1  A    between atoms: C7_7  and  C8_8 
REMARK    2  A    between atoms: C8_8  and  C9_9 
REMARK    3  A    between atoms: C10_10  and  N1_11 
ROOT
HETATM    1  N1  UNL     1      23.573   3.470  52.003  1.00  0.00    -0.056 N 
HETATM    2  C11 UNL     1      23.051   4.748  51.456  1.00  0.00     0.761 A 
HETATM    3  N2  UNL     1      22.065   5.493  51.627  1.00  0.00    -0.102 NA
HETATM    4  C12 UNL     1      21.628   6.729  51.051  1.00  0.00     0.172 C 
HETATM    5  C13 UNL     1      22.619   7.434  50.179  1.00  0.00     0.049 C 
HETATM    6  C14 UNL     1      23.900   7.789  50.851  1.00  0.00    -0.029 C 
HETATM    7  C15 UNL     1      25.115   7.322  50.511  1.00  0.00    -0.024 C 
HETATM    8  C16 UNL     1      25.374   6.420  49.460  1.00  0.00     0.096 C 
HETATM    9  C17 UNL     1      25.935   5.105  49.486  1.00  0.00     0.105 A 
HETATM   10 BR1  UNL     1      26.657   3.368  49.533  1.00  0.00     0.036 Br
HETATM   11  N3  UNL     1      25.311   4.243  50.193  1.00  0.00    -0.185 N 
HETATM   12  N4  UNL     1      24.184   4.309  50.956  1.00  0.00     0.017 N 
ENDROOT
BRANCH   1  13
HETATM   13  C10 UNL     1      23.503   2.311  52.892  1.00  0.00     0.134 C 
HETATM   14  C9  UNL     1      24.385   1.334  52.798  1.00  0.00    -0.002 C 
BRANCH  14  15
HETATM   15  C8  UNL     1      25.550   1.116  51.909  1.00  0.00     0.067 C 
BRANCH  15  16
HETATM   16  C7  UNL     1      26.835   0.979  52.618  1.00  0.00    -0.049 A 
HETATM   17  C2  UNL     1      27.401  -0.248  52.890  1.00  0.00    -0.055 A 
HETATM   18  C1  UNL     1      26.748  -1.495  52.482  1.00  0.00     0.049 C 
HETATM   19  C3  UNL     1      28.618  -0.190  53.569  1.00  0.00     0.007 A 
HETATM   20  C4  UNL     1      29.247   0.953  53.960  1.00  0.00     0.001 A 
HETATM   21  C5  UNL     1      28.658   2.186  53.676  1.00  0.00     0.001 A 
HETATM   22  C6  UNL     1      27.453   2.164  53.003  1.00  0.00     0.008 A 
ENDBRANCH  15  16
ENDBRANCH  14  15
ENDBRANCH   1  13
TORSDOF 3
ENDMDL
MODEL 3
REMARK VINA RESULT:      -8.4      1.870      3.318
REMARK  3 active torsions:
REMARK  status: ('A' for Active; 'I' for Inactive)
REMARK    1  A    between atoms: C7_7  and  C8_8 
REMARK    2  A    between atoms: C8_8  and  C9_9 
REMARK    3  A    between atoms: C10_10  and  N1_11 
ROOT
HETATM    1  N1  UNL     1      23.205   0.724  52.350  1.00  0.00    -0.056 N 
HETATM    2  C11 UNL     1      23.248   1.718  51.248  1.00  0.00     0.761 A 
HETATM    3  N2  UNL     1      24.090   2.465  50.708  1.00  0.00    -0.102 NA
HETATM    4  C12 UNL     1      24.050   3.409  49.632  1.00  0.00     0.172 C 
HETATM    5  C13 UNL     1      22.802   3.414  48.807  1.00  0.00     0.049 C 
HETATM    6  C14 UNL     1      22.484   2.116  48.151  1.00  0.00    -0.029 C 
HETATM    7  C15 UNL     1      21.387   1.372  48.386  1.00  0.00    -0.024 C 
HETATM    8  C16 UNL     1      20.359   1.702  49.292  1.00  0.00     0.096 C 
HETATM    9  C17 UNL     1      19.900   1.017  50.459  1.00  0.00     0.105 A 
HETATM   10 BR1  UNL     1      19.315   0.118  52.005  1.00  0.00     0.036 Br
HETATM   11  N3  UNL     1      20.770   0.826  51.375  1.00  0.00    -0.185 N 
HETATM   12  N4  UNL     1      22.089   1.145  51.483  1.00  0.00     0.017 N 
ENDROOT
BRANCH   1  13
HETATM   13  C10 UNL     1      23.819  -0.047  53.430  1.00  0.00     0.134 C 
HETATM   14  C9  UNL     1      25.123  -0.010  53.630  1.00  0.00    -0.002 C 
BRANCH  14  15
HETATM   15  C8  UNL     1      26.223   0.705  52.940  1.00  0.00     0.067 C 
BRANCH  15  16
HETATM   16  C7  UNL     1      27.558   0.122  53.167  1.00  0.00    -0.049 A 
HETATM   17  C2  UNL     1      28.658   0.894  53.476  1.00  0.00    -0.055 A 
HETATM   18  C1  UNL     1      28.556   2.350  53.600  1.00  0.00     0.049 C 
HETATM   19  C3  UNL     1      29.841   0.176  53.656  1.00  0.00     0.007 A 
HETATM   20  C4  UNL     1      29.965  -1.176  53.548  1.00  0.00     0.001 A 
HETATM   21  C5  UNL     1      28.839  -1.940  53.234  1.00  0.00     0.001 A 
HETATM   22  C6  UNL     1      27.653  -1.261  53.050  1.00  0.00     0.008 A 
ENDBRANCH  15  16
ENDBRANCH  14  15
ENDBRANCH   1  13
TORSDOF 3
ENDMDL
MODEL 4
REMARK VINA RESULT:      -8.4      2.581      4.721
REMARK  3 active torsions:
REMARK  status: ('A' for Active; 'I' for Inactive)
REMARK    1  A    between atoms: C7_7  and  C8_8 
REMARK    2  A    between atoms: C8_8  and  C9_9 
REMARK    3  A    between atoms: C10_10  and  N1_11 
ROOT
HETATM    1  N1  UNL     1      24.718   0.993  52.224  1.00  0.00    -0.056 N 
HETATM    2  C11 UNL     1      23.754   0.203  53.032  1.00  0.00     0.761 A 
HETATM    3  N2  UNL     1      23.760  -0.460  54.089  1.00  0.00    -0.102 NA
HETATM    4  C12 UNL     1      22.773  -1.203  54.813  1.00  0.00     0.172 C 
HETATM    5  C13 UNL     1      21.357  -1.034  54.356  1.00  0.00     0.049 C 
HETATM    6  C14 UNL     1      20.851   0.365  54.402  1.00  0.00    -0.029 C 
HETATM    7  C15 UNL     1      20.453   1.085  53.337  1.00  0.00    -0.024 C 
HETATM    8  C16 UNL     1      20.448   0.629  52.003  1.00  0.00     0.096 C 
HETATM    9  C17 UNL     1      21.153   1.114  50.858  1.00  0.00     0.105 A 
HETATM   10 BR1  UNL     1      22.100   1.748  49.360  1.00  0.00     0.036 Br
HETATM   11  N3  UNL     1      22.428   1.122  50.947  1.00  0.00    -0.185 N 
HETATM   12  N4  UNL     1      23.292   0.756  51.934  1.00  0.00     0.017 N 
ENDROOT
BRANCH   1  13
HETATM   13  C10 UNL     1      26.044   1.551  51.959  1.00  0.00     0.134 C 
HETATM   14  C9  UNL     1      26.213   2.484  51.042  1.00  0.00    -0.002 C 
BRANCH  14  15
HETATM   15  C8  UNL     1      25.274   3.168  50.122  1.00  0.00     0.067 C 
BRANCH  15  16
HETATM   16  C7  UNL     1      25.833   4.365  49.467  1.00  0.00    -0.049 A 
HETATM   17  C2  UNL     1      25.076   5.488  49.210  1.00  0.00    -0.055 A 
HETATM   18  C1  UNL     1      23.660   5.552  49.581  1.00  0.00     0.049 C 
HETATM   19  C3  UNL     1      25.767   6.525  48.583  1.00  0.00     0.007 A 
HETATM   20  C4  UNL     1      27.082   6.492  48.228  1.00  0.00     0.001 A 
HETATM   21  C5  UNL     1      27.832   5.346  48.496  1.00  0.00     0.001 A 
HETATM   22  C6  UNL     1      27.177   4.301  49.116  1.00  0.00     0.008 A 
ENDBRANCH  15  16
ENDBRANCH  14  15
ENDBRANCH   1  13
TORSDOF 3
ENDMDL
MODEL 5
REMARK VINA RESULT:      -8.3      1.942      3.199
REMARK  3 active torsions:
REMARK  status: ('A' for Active; 'I' for Inactive)
REMARK    1  A    between atoms: C7_7  and  C8_8 
REMARK    2  A    between atoms: C8_8  and  C9_9 
REMARK    3  A    between atoms: C10_10  and  N1_11 
ROOT
HETATM    1  N1  UNL     1      23.865   2.455  52.009  1.00  0.00    -0.056 N 
HETATM    2  C11 UNL     1      22.413   2.764  51.958  1.00  0.00     0.761 A 
HETATM    3  N2  UNL     1      21.675   3.664  51.508  1.00  0.00    -0.102 NA
HETATM    4  C12 UNL     1      20.261   3.891  51.499  1.00  0.00     0.172 C 
HETATM    5  C13 UNL     1      19.408   2.745  51.946  1.00  0.00     0.049 C 
HETATM    6  C14 UNL     1      19.572   1.498  51.148  1.00  0.00    -0.029 C 
HETATM    7  C15 UNL     1      20.025   0.323  51.622  1.00  0.00    -0.024 C 
HETATM    8  C16 UNL     1      20.418   0.081  52.953  1.00  0.00     0.096 C 
HETATM    9  C17 UNL     1      21.685  -0.310  53.487  1.00  0.00     0.105 A 
HETATM   10 BR1  UNL     1      23.362  -0.808  54.182  1.00  0.00     0.036 Br
HETATM   11  N3  UNL     1      22.662   0.477  53.246  1.00  0.00    -0.185 N 
HETATM   12  N4  UNL     1      22.760   1.652  52.566  1.00  0.00     0.017 N 
ENDROOT
BRANCH   1  13
HETATM   13  C10 UNL     1      25.268   2.748  51.718  1.00  0.00     0.134 C 
HETATM   14  C9  UNL     1      26.209   1.858  51.967  1.00  0.00    -0.002 C 
BRANCH  14  15
HETATM   15  C8  UNL     1      26.170   0.488  52.532  1.00  0.00     0.067 C 
BRANCH  15  16
HETATM   16  C7  UNL     1      27.488  -0.041  52.928  1.00  0.00    -0.049 A 
HETATM   17  C2  UNL     1      27.806  -1.379  52.833  1.00  0.00    -0.055 A 
HETATM   18  C1  UNL     1      26.840  -2.356  52.324  1.00  0.00     0.049 C 
HETATM   19  C3  UNL     1      29.097  -1.702  53.252  1.00  0.00     0.007 A 
HETATM   20  C4  UNL     1      30.015  -0.814  53.728  1.00  0.00     0.001 A 
HETATM   21  C5  UNL     1      29.673   0.537  53.817  1.00  0.00     0.001 A 
HETATM   22  C6  UNL     1      28.403   0.890  53.409  1.00  0.00     0.008 A 
ENDBRANCH  15  16
ENDBRANCH  14  15
ENDBRANCH   1  13
TORSDOF 3
ENDMDL
MODEL 6
REMARK VINA RESULT:      -8.2      3.007      5.152
REMARK  3 active torsions:
REMARK  status: ('A' for Active; 'I' for Inactive)
REMARK    1  A    between atoms: C7_7  and  C8_8 
REMARK    2  A    between atoms: C8_8  and  C9_9 
REMARK    3  A    between atoms: C10_10  and  N1_11 
ROOT
HETATM    1  N1  UNL     1      23.750   3.134  52.499  1.00  0.00    -0.056 N 
HETATM    2  C11 UNL     1      24.525   1.929  52.892  1.00  0.00     0.761 A 
HETATM    3  N2  UNL     1      25.659   1.666  53.343  1.00  0.00    -0.102 NA
HETATM    4  C12 UNL     1      26.341   0.459  53.701  1.00  0.00     0.172 C 
HETATM    5  C13 UNL     1      25.504  -0.780  53.747  1.00  0.00     0.049 C 
HETATM    6  C14 UNL     1      24.359  -0.724  54.698  1.00  0.00    -0.029 C 
HETATM    7  C15 UNL     1      23.059  -0.804  54.360  1.00  0.00    -0.024 C 
HETATM    8  C16 UNL     1      22.569  -0.955  53.048  1.00  0.00     0.096 C 
HETATM    9  C17 UNL     1      21.729  -0.099  52.270  1.00  0.00     0.105 A 
HETATM   10 BR1  UNL     1      20.638   1.043  51.247  1.00  0.00     0.036 Br
HETATM   11  N3  UNL     1      22.168   1.083  52.066  1.00  0.00    -0.185 N 
HETATM   12  N4  UNL     1      23.306   1.728  52.445  1.00  0.00     0.017 N 
ENDROOT
BRANCH   1  13
HETATM   13  C10 UNL     1      23.589   4.576  52.323  1.00  0.00     0.134 C 
HETATM   14  C9  UNL     1      23.744   5.132  51.136  1.00  0.00    -0.002 C 
BRANCH  14  15
HETATM   15  C8  UNL     1      24.079   4.577  49.804  1.00  0.00     0.067 C 
BRANCH  15  16
HETATM   16  C7  UNL     1      25.375   5.030  49.268  1.00  0.00    -0.049 A 
HETATM   17  C2  UNL     1      26.506   4.242  49.304  1.00  0.00    -0.055 A 
HETATM   18  C1  UNL     1      26.477   2.895  49.880  1.00  0.00     0.049 C 
HETATM   19  C3  UNL     1      27.644   4.832  48.753  1.00  0.00     0.007 A 
HETATM   20  C4  UNL     1      27.699   6.080  48.210  1.00  0.00     0.001 A 
HETATM   21  C5  UNL     1      26.543   6.863  48.184  1.00  0.00     0.001 A 
HETATM   22  C6  UNL     1      25.399   6.308  48.720  1.00  0.00     0.008 A 
ENDBRANCH  15  16
ENDBRANCH  14  15
ENDBRANCH   1  13
TORSDOF 3
ENDMDL
MODEL 7
REMARK VINA RESULT:      -8.1      3.457      5.543
REMARK  3 active torsions:
REMARK  status: ('A' for Active; 'I' for Inactive)
REMARK    1  A    between atoms: C7_7  and  C8_8 
REMARK    2  A    between atoms: C8_8  and  C9_9 
REMARK    3  A    between atoms: C10_10  and  N1_11 
ROOT
HETATM    1  N1  UNL     1      23.046   2.109  50.504  1.00  0.00    -0.056 N 
HETATM    2  C11 UNL     1      22.195   1.716  51.655  1.00  0.00     0.761 A 
HETATM    3  N2  UNL     1      20.997   1.809  51.994  1.00  0.00    -0.102 NA
HETATM    4  C12 UNL     1      20.243   1.397  53.140  1.00  0.00     0.172 C 
HETATM    5  C13 UNL     1      20.945   0.484  54.095  1.00  0.00     0.049 C 
HETATM    6  C14 UNL     1      21.416  -0.797  53.501  1.00  0.00    -0.029 C 
HETATM    7  C15 UNL     1      22.701  -1.189  53.410  1.00  0.00    -0.024 C 
HETATM    8  C16 UNL     1      23.810  -0.448  53.863  1.00  0.00     0.096 C 
HETATM    9  C17 UNL     1      24.923   0.085  53.142  1.00  0.00     0.105 A 
HETATM   10 BR1  UNL     1      26.376   0.798  52.181  1.00  0.00     0.036 Br
HETATM   11  N3  UNL     1      24.643   0.907  52.205  1.00  0.00    -0.185 N 
HETATM   12  N4  UNL     1      23.468   1.403  51.728  1.00  0.00     0.017 N 
ENDROOT
BRANCH   1  13
HETATM   13  C10 UNL     1      23.258   2.720  49.192  1.00  0.00     0.134 C 
HETATM   14  C9  UNL     1      24.112   3.714  49.040  1.00  0.00    -0.002 C 
BRANCH  14  15
HETATM   15  C8  UNL     1      24.995   4.432  49.990  1.00  0.00     0.067 C 
BRANCH  15  16
HETATM   16  C7  UNL     1      26.074   5.203  49.347  1.00  0.00    -0.049 A 
HETATM   17  C2  UNL     1      25.971   6.555  49.101  1.00  0.00    -0.055 A 
HETATM   18  C1  UNL     1      24.769   7.307  49.474  1.00  0.00     0.049 C 
HETATM   19  C3  UNL     1      27.087   7.122  48.485  1.00  0.00     0.007 A 
HETATM   20  C4  UNL     1      28.216   6.448  48.129  1.00  0.00     0.001 A 
HETATM   21  C5  UNL     1      28.302   5.079  48.385  1.00  0.00     0.001 A 
HETATM   22  C6  UNL     1      27.215   4.487  48.996  1.00  0.00     0.008 A 
ENDBRANCH  15  16
ENDBRANCH  14  15
ENDBRANCH   1  13
TORSDOF 3
ENDMDL
MODEL 8
REMARK VINA RESULT:      -7.8      3.821      5.788
REMARK  3 active torsions:
REMARK  status: ('A' for Active; 'I' for Inactive)
REMARK    1  A    between atoms: C7_7  and  C8_8 
REMARK    2  A    between atoms: C8_8  and  C9_9 
REMARK    3  A    between atoms: C10_10  and  N1_11 
ROOT
HETATM    1  N1  UNL     1      22.189   4.554  51.610  1.00  0.00    -0.056 N 
HETATM    2  C11 UNL     1      21.041   3.619  51.728  1.00  0.00     0.761 A 
HETATM    3  N2  UNL     1      19.805   3.646  51.557  1.00  0.00    -0.102 NA
HETATM    4  C12 UNL     1      18.751   2.686  51.694  1.00  0.00     0.172 C 
HETATM    5  C13 UNL     1      19.178   1.267  51.904  1.00  0.00     0.049 C 
HETATM    6  C14 UNL     1      20.031   0.706  50.819  1.00  0.00    -0.029 C 
HETATM    7  C15 UNL     1      21.300   0.284  50.965  1.00  0.00    -0.024 C 
HETATM    8  C16 UNL     1      22.030   0.302  52.170  1.00  0.00     0.096 C 
HETATM    9  C17 UNL     1      23.234   0.993  52.511  1.00  0.00     0.105 A 
HETATM   10 BR1  UNL     1      24.810   1.920  52.956  1.00  0.00     0.036 Br
HETATM   11  N3  UNL     1      23.200   2.265  52.406  1.00  0.00    -0.185 N 
HETATM   12  N4  UNL     1      22.227   3.139  52.025  1.00  0.00     0.017 N 
ENDROOT
BRANCH   1  13
HETATM   13  C10 UNL     1      22.778   5.858  51.309  1.00  0.00     0.134 C 
HETATM   14  C9  UNL     1      23.686   5.985  50.360  1.00  0.00    -0.002 C 
BRANCH  14  15
HETATM   15  C8  UNL     1      24.312   5.013  49.433  1.00  0.00     0.067 C 
BRANCH  15  16
HETATM   16  C7  UNL     1      25.661   5.393  48.979  1.00  0.00    -0.049 A 
HETATM   17  C2  UNL     1      26.737   4.535  49.061  1.00  0.00    -0.055 A 
HETATM   18  C1  UNL     1      26.593   3.184  49.608  1.00  0.00     0.049 C 
HETATM   19  C3  UNL     1      27.939   5.061  48.586  1.00  0.00     0.007 A 
HETATM   20  C4  UNL     1      28.101   6.313  48.072  1.00  0.00     0.001 A 
HETATM   21  C5  UNL     1      27.000   7.167  47.998  1.00  0.00     0.001 A 
HETATM   22  C6  UNL     1      25.795   6.676  48.459  1.00  0.00     0.008 A 
ENDBRANCH  15  16
ENDBRANCH  14  15
ENDBRANCH   1  13
TORSDOF 3
ENDMDL
MODEL 9
REMARK VINA RESULT:      -7.6      2.868      4.374
REMARK  3 active torsions:
REMARK  status: ('A' for Active; 'I' for Inactive)
REMARK    1  A    between atoms: C7_7  and  C8_8 
REMARK    2  A    between atoms: C8_8  and  C9_9 
REMARK    3  A    between atoms: C10_10  and  N1_11 
ROOT
HETATM    1  N1  UNL     1      24.264   3.081  52.529  1.00  0.00    -0.056 N 
HETATM    2  C11 UNL     1      23.031   3.311  51.733  1.00  0.00     0.761 A 
HETATM    3  N2  UNL     1      21.797   3.225  51.894  1.00  0.00    -0.102 NA
HETATM    4  C12 UNL     1      20.656   3.469  51.063  1.00  0.00     0.172 C 
HETATM    5  C13 UNL     1      20.926   4.160  49.764  1.00  0.00     0.049 C 
HETATM    6  C14 UNL     1      21.565   5.499  49.891  1.00  0.00    -0.029 C 
HETATM    7  C15 UNL     1      22.780   5.831  49.418  1.00  0.00    -0.024 C 
HETATM    8  C16 UNL     1      23.647   4.964  48.723  1.00  0.00     0.096 C 
HETATM    9  C17 UNL     1      24.959   4.507  49.055  1.00  0.00     0.105 A 
HETATM   10 BR1  UNL     1      26.681   3.896  49.509  1.00  0.00     0.036 Br
HETATM   11  N3  UNL     1      25.071   3.878  50.161  1.00  0.00    -0.185 N 
HETATM   12  N4  UNL     1      24.176   3.537  51.129  1.00  0.00     0.017 N 
ENDROOT
BRANCH   1  13
HETATM   13  C10 UNL     1      24.971   2.700  53.751  1.00  0.00     0.134 C 
HETATM   14  C9  UNL     1      25.833   1.702  53.749  1.00  0.00    -0.002 C 
BRANCH  14  15
HETATM   15  C8  UNL     1      26.298   0.780  52.685  1.00  0.00     0.067 C 
BRANCH  15  16
HETATM   16  C7  UNL     1      27.563   0.090  52.994  1.00  0.00    -0.049 A 
HETATM   17  C2  UNL     1      27.716  -1.273  52.850  1.00  0.00    -0.055 A 
HETATM   18  C1  UNL     1      26.616  -2.115  52.373  1.00  0.00     0.049 C 
HETATM   19  C3  UNL     1      28.979  -1.757  53.189  1.00  0.00     0.007 A 
HETATM   20  C4  UNL     1      30.019  -0.997  53.634  1.00  0.00     0.001 A 
HETATM   21  C5  UNL     1      29.845   0.381  53.775  1.00  0.00     0.001 A 
HETATM   22  C6  UNL     1      28.606   0.892  53.446  1.00  0.00     0.008 A 
ENDBRANCH  15  16
ENDBRANCH  14  15
ENDBRANCH   1  13
TORSDOF 3
ENDMDL
