MODEL 1
REMARK VINA RESULT:      -6.9      0.000      0.000
REMARK  9 active torsions:
REMARK  status: ('A' for Active; 'I' for Inactive)
REMARK    1  A    between atoms: C2_2  and  N1_3 
REMARK    2  A    between atoms: C2_2  and  N2_9 
REMARK    3  A    between atoms: N1_3  and  C3_4 
REMARK    4  A    between atoms: N2_9  and  C8_10 
REMARK    5  A    between atoms: N2_9  and  C11_14 
REMARK    6  A    between atoms: C8_10  and  C9_11 
REMARK    7  A    between atoms: C9_11  and  C10_12 
REMARK    8  A    between atoms: C11_14  and  C12_15 
REMARK    9  A    between atoms: C17_21  and  O2_22 
ROOT
HETATM    1  N2  UNL     1      23.896   0.008  53.319  1.00  0.00    -0.388 N 
ENDROOT
BRANCH   1   2
HETATM    2  C2  UNL     1      25.111  -0.526  53.848  1.00  0.00     0.174 C 
HETATM    3  C1  UNL     1      24.792  -1.071  55.264  1.00  0.00     0.055 C 
BRANCH   2   4
HETATM    4  N1  UNL     1      26.201   0.410  53.946  1.00  0.00    -0.372 N 
HETATM    5  H5  UNL     1      26.031   1.438  54.093  1.00  0.00     0.161 HD
BRANCH   4   6
HETATM    6  C3  UNL     1      27.511  -0.145  53.828  1.00  0.00     0.010 A 
HETATM    7  C4  UNL     1      28.623   0.319  54.386  1.00  0.00     0.024 A 
HETATM    8  C5  UNL     1      29.748  -0.552  54.008  1.00  0.00    -0.002 A 
HETATM    9  C6  UNL     1      29.308  -1.526  53.232  1.00  0.00    -0.021 A 
HETATM   10  C7  UNL     1      27.851  -1.349  53.053  1.00  0.00     0.083 A 
ENDBRANCH   4   6
ENDBRANCH   2   4
ENDBRANCH   1   2
BRANCH   1  11
HETATM   11  C8  UNL     1      22.764  -0.736  53.667  1.00  0.00     0.122 C 
BRANCH  11  12
HETATM   12  C9  UNL     1      21.541  -0.047  54.146  1.00  0.00     0.056 C 
BRANCH  12  13
HETATM   13  C10 UNL     1      20.332  -0.379  53.342  1.00  0.00     0.392 C 
HETATM   14  O1  UNL     1      19.151  -0.372  53.067  1.00  0.00    -0.430 OA
ENDBRANCH  12  13
ENDBRANCH  11  12
ENDBRANCH   1  11
BRANCH   1  15
HETATM   15  C11 UNL     1      23.865   1.392  53.193  1.00  0.00     0.160 C 
BRANCH  15  16
HETATM   16  C12 UNL     1      24.009   2.010  51.859  1.00  0.00    -0.006 A 
HETATM   17  C13 UNL     1      22.901   1.904  51.006  1.00  0.00     0.012 A 
HETATM   18  C14 UNL     1      22.840   2.434  49.742  1.00  0.00     0.002 A 
HETATM   19  C15 UNL     1      23.919   3.125  49.231  1.00  0.00     0.022 A 
HETATM   20  C16 UNL     1      25.030   3.252  50.034  1.00  0.00     0.044 A 
HETATM   21 BR1  UNL     1      26.542   4.199  49.371  1.00  0.00    -0.048 Br
HETATM   22  C17 UNL     1      25.047   2.708  51.288  1.00  0.00     0.090 A 
BRANCH  22  23
HETATM   23  O2  UNL     1      26.187   2.877  52.012  1.00  0.00    -0.359 OA
HETATM   24  H21 UNL     1      27.054   3.199  51.632  1.00  0.00     0.217 HD
ENDBRANCH  22  23
ENDBRANCH  15  16
ENDBRANCH   1  15
TORSDOF 9
ENDMDL
MODEL 2
REMARK VINA RESULT:      -6.8      2.755      5.414
REMARK  9 active torsions:
REMARK  status: ('A' for Active; 'I' for Inactive)
REMARK    1  A    between atoms: C2_2  and  N1_3 
REMARK    2  A    between atoms: C2_2  and  N2_9 
REMARK    3  A    between atoms: N1_3  and  C3_4 
REMARK    4  A    between atoms: N2_9  and  C8_10 
REMARK    5  A    between atoms: N2_9  and  C11_14 
REMARK    6  A    between atoms: C8_10  and  C9_11 
REMARK    7  A    between atoms: C9_11  and  C10_12 
REMARK    8  A    between atoms: C11_14  and  C12_15 
REMARK    9  A    between atoms: C17_21  and  O2_22 
ROOT
HETATM    1  N2  UNL     1      24.371   1.685  52.516  1.00  0.00    -0.388 N 
ENDROOT
BRANCH   1   2
HETATM    2  C2  UNL     1      24.020   2.870  51.800  1.00  0.00     0.174 C 
HETATM    3  C1  UNL     1      22.530   3.167  52.111  1.00  0.00     0.055 C 
BRANCH   2   4
HETATM    4  N1  UNL     1      24.190   2.797  50.372  1.00  0.00    -0.372 N 
HETATM    5  H5  UNL     1      23.633   2.123  49.786  1.00  0.00     0.161 HD
BRANCH   4   6
HETATM    6  C3  UNL     1      25.155   3.689  49.813  1.00  0.00     0.010 A 
HETATM    7  C4  UNL     1      24.958   4.954  49.464  1.00  0.00     0.024 A 
HETATM    8  C5  UNL     1      26.214   5.506  48.932  1.00  0.00    -0.002 A 
HETATM    9  C6  UNL     1      27.150   4.575  48.964  1.00  0.00    -0.021 A 
HETATM   10  C7  UNL     1      26.556   3.343  49.526  1.00  0.00     0.083 A 
ENDBRANCH   4   6
ENDBRANCH   2   4
ENDBRANCH   1   2
BRANCH   1  11
HETATM   11  C8  UNL     1      23.290   1.097  53.183  1.00  0.00     0.122 C 
BRANCH  11  12
HETATM   12  C9  UNL     1      23.176  -0.380  53.254  1.00  0.00     0.056 C 
BRANCH  12  13
HETATM   13  C10 UNL     1      22.452  -0.850  54.468  1.00  0.00     0.392 C 
HETATM   14  O1  UNL     1      22.227  -1.588  55.404  1.00  0.00    -0.430 OA
ENDBRANCH  12  13
ENDBRANCH  11  12
ENDBRANCH   1  11
BRANCH   1  15
HETATM   15  C11 UNL     1      25.390   0.931  51.947  1.00  0.00     0.160 C 
BRANCH  15  16
HETATM   16  C12 UNL     1      26.728   0.917  52.572  1.00  0.00    -0.006 A 
HETATM   17  C13 UNL     1      27.240   2.163  52.967  1.00  0.00     0.012 A 
HETATM   18  C14 UNL     1      28.452   2.345  53.583  1.00  0.00     0.002 A 
HETATM   19  C15 UNL     1      29.258   1.259  53.853  1.00  0.00     0.022 A 
HETATM   20  C16 UNL     1      28.796   0.017  53.483  1.00  0.00     0.044 A 
HETATM   21 BR1  UNL     1      29.875  -1.510  53.837  1.00  0.00    -0.048 Br
HETATM   22  C17 UNL     1      27.581  -0.119  52.870  1.00  0.00     0.090 A 
BRANCH  22  23
HETATM   23  O2  UNL     1      27.205  -1.382  52.533  1.00  0.00    -0.359 OA
HETATM   24  H21 UNL     1      26.330  -1.617  52.110  1.00  0.00     0.217 HD
ENDBRANCH  22  23
ENDBRANCH  15  16
ENDBRANCH   1  15
TORSDOF 9
ENDMDL
MODEL 3
REMARK VINA RESULT:      -6.8      2.843      4.475
REMARK  9 active torsions:
REMARK  status: ('A' for Active; 'I' for Inactive)
REMARK    1  A    between atoms: C2_2  and  N1_3 
REMARK    2  A    between atoms: C2_2  and  N2_9 
REMARK    3  A    between atoms: N1_3  and  C3_4 
REMARK    4  A    between atoms: N2_9  and  C8_10 
REMARK    5  A    between atoms: N2_9  and  C11_14 
REMARK    6  A    between atoms: C8_10  and  C9_11 
REMARK    7  A    between atoms: C9_11  and  C10_12 
REMARK    8  A    between atoms: C11_14  and  C12_15 
REMARK    9  A    between atoms: C17_21  and  O2_22 
ROOT
HETATM    1  N2  UNL     1      24.741   2.073  53.155  1.00  0.00    -0.388 N 
ENDROOT
BRANCH   1   2
HETATM    2  C2  UNL     1      26.168   2.051  53.220  1.00  0.00     0.174 C 
HETATM    3  C1  UNL     1      26.677   1.476  51.873  1.00  0.00     0.055 C 
BRANCH   2   4
HETATM    4  N1  UNL     1      26.721   1.270  54.296  1.00  0.00    -0.372 N 
HETATM    5  H5  UNL     1      26.326   1.320  55.270  1.00  0.00     0.161 HD
BRANCH   4   6
HETATM    6  C3  UNL     1      27.828   0.436  53.955  1.00  0.00     0.010 A 
HETATM    7  C4  UNL     1      27.775  -0.827  53.549  1.00  0.00     0.024 A 
HETATM    8  C5  UNL     1      29.144  -1.310  53.306  1.00  0.00    -0.002 A 
HETATM    9  C6  UNL     1      30.004  -0.341  53.567  1.00  0.00    -0.021 A 
HETATM   10  C7  UNL     1      29.240   0.848  54.000  1.00  0.00     0.083 A 
ENDBRANCH   4   6
ENDBRANCH   2   4
ENDBRANCH   1   2
BRANCH   1  11
HETATM   11  C8  UNL     1      24.204   3.365  53.150  1.00  0.00     0.122 C 
BRANCH  11  12
HETATM   12  C9  UNL     1      23.519   3.880  51.939  1.00  0.00     0.056 C 
BRANCH  12  13
HETATM   13  C10 UNL     1      22.068   4.132  52.155  1.00  0.00     0.392 C 
HETATM   14  O1  UNL     1      20.908   3.827  52.340  1.00  0.00    -0.430 OA
ENDBRANCH  12  13
ENDBRANCH  11  12
ENDBRANCH   1  11
BRANCH   1  15
HETATM   15  C11 UNL     1      24.167   1.027  52.441  1.00  0.00     0.160 C 
BRANCH  15  16
HETATM   16  C12 UNL     1      23.062   0.251  53.041  1.00  0.00    -0.006 A 
HETATM   17  C13 UNL     1      23.399  -0.559  54.137  1.00  0.00     0.012 A 
HETATM   18  C14 UNL     1      22.506  -1.331  54.835  1.00  0.00     0.002 A 
HETATM   19  C15 UNL     1      21.175  -1.347  54.471  1.00  0.00     0.022 A 
HETATM   20  C16 UNL     1      20.800  -0.568  53.400  1.00  0.00     0.044 A 
HETATM   21 BR1  UNL     1      18.974  -0.558  52.863  1.00  0.00    -0.048 Br
HETATM   22  C17 UNL     1      21.724   0.187  52.732  1.00  0.00     0.090 A 
BRANCH  22  23
HETATM   23  O2  UNL     1      21.268   0.923  51.682  1.00  0.00    -0.359 OA
HETATM   24  H21 UNL     1      20.775   1.788  51.772  1.00  0.00     0.217 HD
ENDBRANCH  22  23
ENDBRANCH  15  16
ENDBRANCH   1  15
TORSDOF 9
ENDMDL
MODEL 4
REMARK VINA RESULT:      -6.7      1.616      1.859
REMARK  9 active torsions:
REMARK  status: ('A' for Active; 'I' for Inactive)
REMARK    1  A    between atoms: C2_2  and  N1_3 
REMARK    2  A    between atoms: C2_2  and  N2_9 
REMARK    3  A    between atoms: N1_3  and  C3_4 
REMARK    4  A    between atoms: N2_9  and  C8_10 
REMARK    5  A    between atoms: N2_9  and  C11_14 
REMARK    6  A    between atoms: C8_10  and  C9_11 
REMARK    7  A    between atoms: C9_11  and  C10_12 
REMARK    8  A    between atoms: C11_14  and  C12_15 
REMARK    9  A    between atoms: C17_21  and  O2_22 
ROOT
HETATM    1  N2  UNL     1      24.231   1.082  52.835  1.00  0.00    -0.388 N 
ENDROOT
BRANCH   1   2
HETATM    2  C2  UNL     1      25.264   0.151  53.163  1.00  0.00     0.174 C 
HETATM    3  C1  UNL     1      25.739   0.484  54.602  1.00  0.00     0.055 C 
BRANCH   2   4
HETATM    4  N1  UNL     1      26.404   0.165  52.284  1.00  0.00    -0.372 N 
HETATM    5  H5  UNL     1      26.381   0.671  51.362  1.00  0.00     0.161 HD
BRANCH   4   6
HETATM    6  C3  UNL     1      27.554  -0.547  52.743  1.00  0.00     0.010 A 
HETATM    7  C4  UNL     1      27.707  -1.865  52.782  1.00  0.00     0.024 A 
HETATM    8  C5  UNL     1      29.040  -2.177  53.323  1.00  0.00    -0.002 A 
HETATM    9  C6  UNL     1      29.673  -1.052  53.604  1.00  0.00    -0.021 A 
HETATM   10  C7  UNL     1      28.783   0.077  53.258  1.00  0.00     0.083 A 
ENDBRANCH   4   6
ENDBRANCH   2   4
ENDBRANCH   1   2
BRANCH   1  11
HETATM   11  C8  UNL     1      22.954   0.649  53.208  1.00  0.00     0.122 C 
BRANCH  11  12
HETATM   12  C9  UNL     1      22.604  -0.790  53.123  1.00  0.00     0.056 C 
BRANCH  12  13
HETATM   13  C10 UNL     1      22.251  -1.382  54.443  1.00  0.00     0.392 C 
HETATM   14  O1  UNL     1      22.426  -1.669  55.609  1.00  0.00    -0.430 OA
ENDBRANCH  12  13
ENDBRANCH  11  12
ENDBRANCH   1  11
BRANCH   1  15
HETATM   15  C11 UNL     1      24.606   2.419  52.882  1.00  0.00     0.160 C 
BRANCH  15  16
HETATM   16  C12 UNL     1      24.727   3.191  51.628  1.00  0.00    -0.006 A 
HETATM   17  C13 UNL     1      23.532   3.696  51.094  1.00  0.00     0.012 A 
HETATM   18  C14 UNL     1      23.450   4.452  49.953  1.00  0.00     0.002 A 
HETATM   19  C15 UNL     1      24.593   4.762  49.247  1.00  0.00     0.022 A 
HETATM   20  C16 UNL     1      25.789   4.287  49.735  1.00  0.00     0.044 A 
HETATM   21 BR1  UNL     1      27.393   4.692  48.794  1.00  0.00    -0.048 Br
HETATM   22  C17 UNL     1      25.826   3.536  50.877  1.00  0.00     0.090 A 
BRANCH  22  23
HETATM   23  O2  UNL     1      27.049   3.103  51.285  1.00  0.00    -0.359 OA
HETATM   24  H21 UNL     1      27.758   3.694  51.669  1.00  0.00     0.217 HD
ENDBRANCH  22  23
ENDBRANCH  15  16
ENDBRANCH   1  15
TORSDOF 9
ENDMDL
MODEL 5
REMARK VINA RESULT:      -6.7      2.259      5.324
REMARK  9 active torsions:
REMARK  status: ('A' for Active; 'I' for Inactive)
REMARK    1  A    between atoms: C2_2  and  N1_3 
REMARK    2  A    between atoms: C2_2  and  N2_9 
REMARK    3  A    between atoms: N1_3  and  C3_4 
REMARK    4  A    between atoms: N2_9  and  C8_10 
REMARK    5  A    between atoms: N2_9  and  C11_14 
REMARK    6  A    between atoms: C8_10  and  C9_11 
REMARK    7  A    between atoms: C9_11  and  C10_12 
REMARK    8  A    between atoms: C11_14  and  C12_15 
REMARK    9  A    between atoms: C17_21  and  O2_22 
ROOT
HETATM    1  N2  UNL     1      26.029   1.684  52.686  1.00  0.00    -0.388 N 
ENDROOT
BRANCH   1   2
HETATM    2  C2  UNL     1      25.352   0.477  53.040  1.00  0.00     0.174 C 
HETATM    3  C1  UNL     1      26.282  -0.700  52.651  1.00  0.00     0.055 C 
BRANCH   2   4
HETATM    4  N1  UNL     1      24.072   0.285  52.409  1.00  0.00    -0.372 N 
HETATM    5  H5  UNL     1      23.964   0.319  51.363  1.00  0.00     0.161 HD
BRANCH   4   6
HETATM    6  C3  UNL     1      22.972   0.051  53.290  1.00  0.00     0.010 A 
HETATM    7  C4  UNL     1      22.893  -0.883  54.230  1.00  0.00     0.024 A 
HETATM    8  C5  UNL     1      21.589  -0.775  54.905  1.00  0.00    -0.002 A 
HETATM    9  C6  UNL     1      20.899   0.215  54.369  1.00  0.00    -0.021 A 
HETATM   10  C7  UNL     1      21.719   0.823  53.299  1.00  0.00     0.083 A 
ENDBRANCH   4   6
ENDBRANCH   2   4
ENDBRANCH   1   2
BRANCH   1  11
HETATM   11  C8  UNL     1      26.864   2.170  53.699  1.00  0.00     0.122 C 
BRANCH  11  12
HETATM   12  C9  UNL     1      28.319   2.320  53.452  1.00  0.00     0.056 C 
BRANCH  12  13
HETATM   13  C10 UNL     1      29.125   1.211  54.032  1.00  0.00     0.392 C 
HETATM   14  O1  UNL     1      29.538   0.073  54.121  1.00  0.00    -0.430 OA
ENDBRANCH  12  13
ENDBRANCH  11  12
ENDBRANCH   1  11
BRANCH   1  15
HETATM   15  C11 UNL     1      26.345   1.810  51.339  1.00  0.00     0.160 C 
BRANCH  15  16
HETATM   16  C12 UNL     1      25.843   2.971  50.575  1.00  0.00    -0.006 A 
HETATM   17  C13 UNL     1      26.809   3.723  49.888  1.00  0.00     0.012 A 
HETATM   18  C14 UNL     1      26.530   4.817  49.109  1.00  0.00     0.002 A 
HETATM   19  C15 UNL     1      25.228   5.247  48.963  1.00  0.00     0.022 A 
HETATM   20  C16 UNL     1      24.248   4.539  49.620  1.00  0.00     0.044 A 
HETATM   21 BR1  UNL     1      22.436   5.094  49.445  1.00  0.00    -0.048 Br
HETATM   22  C17 UNL     1      24.569   3.453  50.386  1.00  0.00     0.090 A 
BRANCH  22  23
HETATM   23  O2  UNL     1      23.539   2.814  51.004  1.00  0.00    -0.359 OA
HETATM   24  H21 UNL     1      23.651   2.090  51.685  1.00  0.00     0.217 HD
ENDBRANCH  22  23
ENDBRANCH  15  16
ENDBRANCH   1  15
TORSDOF 9
ENDMDL
MODEL 6
REMARK VINA RESULT:      -6.7      2.434      5.121
REMARK  9 active torsions:
REMARK  status: ('A' for Active; 'I' for Inactive)
REMARK    1  A    between atoms: C2_2  and  N1_3 
REMARK    2  A    between atoms: C2_2  and  N2_9 
REMARK    3  A    between atoms: N1_3  and  C3_4 
REMARK    4  A    between atoms: N2_9  and  C8_10 
REMARK    5  A    between atoms: N2_9  and  C11_14 
REMARK    6  A    between atoms: C8_10  and  C9_11 
REMARK    7  A    between atoms: C9_11  and  C10_12 
REMARK    8  A    between atoms: C11_14  and  C12_15 
REMARK    9  A    between atoms: C17_21  and  O2_22 
ROOT
HETATM    1  N2  UNL     1      23.367   1.922  52.192  1.00  0.00    -0.388 N 
ENDROOT
BRANCH   1   2
HETATM    2  C2  UNL     1      24.180   2.977  51.677  1.00  0.00     0.174 C 
HETATM    3  C1  UNL     1      23.647   4.302  52.279  1.00  0.00     0.055 C 
BRANCH   2   4
HETATM    4  N1  UNL     1      24.197   3.093  50.241  1.00  0.00    -0.372 N 
HETATM    5  H5  UNL     1      23.449   2.653  49.646  1.00  0.00     0.161 HD
BRANCH   4   6
HETATM    6  C3  UNL     1      25.284   3.835  49.689  1.00  0.00     0.010 A 
HETATM    7  C4  UNL     1      26.539   3.423  49.553  1.00  0.00     0.024 A 
HETATM    8  C5  UNL     1      27.333   4.499  48.939  1.00  0.00    -0.002 A 
HETATM    9  C6  UNL     1      26.556   5.544  48.712  1.00  0.00    -0.021 A 
HETATM   10  C7  UNL     1      25.191   5.209  49.169  1.00  0.00     0.083 A 
ENDBRANCH   4   6
ENDBRANCH   2   4
ENDBRANCH   1   2
BRANCH   1  11
HETATM   11  C8  UNL     1      22.625   1.260  51.208  1.00  0.00     0.122 C 
BRANCH  11  12
HETATM   12  C9  UNL     1      21.175   1.018  51.409  1.00  0.00     0.056 C 
BRANCH  12  13
HETATM   13  C10 UNL     1      20.456   2.205  51.947  1.00  0.00     0.392 C 
HETATM   14  O1  UNL     1      20.019   2.935  52.812  1.00  0.00    -0.430 OA
ENDBRANCH  12  13
ENDBRANCH  11  12
ENDBRANCH   1  11
BRANCH   1  15
HETATM   15  C11 UNL     1      23.888   1.263  53.299  1.00  0.00     0.160 C 
BRANCH  15  16
HETATM   16  C12 UNL     1      25.280   0.769  53.270  1.00  0.00    -0.006 A 
HETATM   17  C13 UNL     1      25.470  -0.512  52.729  1.00  0.00     0.012 A 
HETATM   18  C14 UNL     1      26.690  -1.126  52.598  1.00  0.00     0.002 A 
HETATM   19  C15 UNL     1      27.836  -0.480  53.014  1.00  0.00     0.022 A 
HETATM   20  C16 UNL     1      27.696   0.779  53.552  1.00  0.00     0.044 A 
HETATM   21 BR1  UNL     1      29.250   1.709  54.137  1.00  0.00    -0.048 Br
HETATM   22  C17 UNL     1      26.460   1.354  53.664  1.00  0.00     0.090 A 
BRANCH  22  23
HETATM   23  O2  UNL     1      26.413   2.598  54.212  1.00  0.00    -0.359 OA
HETATM   24  H21 UNL     1      26.331   3.444  53.685  1.00  0.00     0.217 HD
ENDBRANCH  22  23
ENDBRANCH  15  16
ENDBRANCH   1  15
TORSDOF 9
ENDMDL
MODEL 7
REMARK VINA RESULT:      -6.6      2.841      5.926
REMARK  9 active torsions:
REMARK  status: ('A' for Active; 'I' for Inactive)
REMARK    1  A    between atoms: C2_2  and  N1_3 
REMARK    2  A    between atoms: C2_2  and  N2_9 
REMARK    3  A    between atoms: N1_3  and  C3_4 
REMARK    4  A    between atoms: N2_9  and  C8_10 
REMARK    5  A    between atoms: N2_9  and  C11_14 
REMARK    6  A    between atoms: C8_10  and  C9_11 
REMARK    7  A    between atoms: C9_11  and  C10_12 
REMARK    8  A    between atoms: C11_14  and  C12_15 
REMARK    9  A    between atoms: C17_21  and  O2_22 
ROOT
HETATM    1  N2  UNL     1      25.507   0.211  52.655  1.00  0.00    -0.388 N 
ENDROOT
BRANCH   1   2
HETATM    2  C2  UNL     1      25.918   1.485  52.157  1.00  0.00     0.174 C 
HETATM    3  C1  UNL     1      26.009   2.442  53.374  1.00  0.00     0.055 C 
BRANCH   2   4
HETATM    4  N1  UNL     1      25.045   2.069  51.172  1.00  0.00    -0.372 N 
HETATM    5  H5  UNL     1      24.067   1.711  51.023  1.00  0.00     0.161 HD
BRANCH   4   6
HETATM    6  C3  UNL     1      25.592   3.153  50.420  1.00  0.00     0.010 A 
HETATM    7  C4  UNL     1      26.682   3.124  49.664  1.00  0.00     0.024 A 
HETATM    8  C5  UNL     1      26.888   4.454  49.068  1.00  0.00    -0.002 A 
HETATM    9  C6  UNL     1      25.927   5.267  49.468  1.00  0.00    -0.021 A 
HETATM   10  C7  UNL     1      25.023   4.509  50.359  1.00  0.00     0.083 A 
ENDBRANCH   4   6
ENDBRANCH   2   4
ENDBRANCH   1   2
BRANCH   1  11
HETATM   11  C8  UNL     1      26.442  -0.804  52.423  1.00  0.00     0.122 C 
BRANCH  11  12
HETATM   12  C9  UNL     1      27.800  -0.711  53.011  1.00  0.00     0.056 C 
BRANCH  12  13
HETATM   13  C10 UNL     1      28.505  -2.022  53.059  1.00  0.00     0.392 C 
HETATM   14  O1  UNL     1      28.769  -3.119  53.504  1.00  0.00    -0.430 OA
ENDBRANCH  12  13
ENDBRANCH  11  12
ENDBRANCH   1  11
BRANCH   1  15
HETATM   15  C11 UNL     1      24.722   0.250  53.801  1.00  0.00     0.160 C 
BRANCH  15  16
HETATM   16  C12 UNL     1      23.312  -0.185  53.739  1.00  0.00    -0.006 A 
HETATM   17  C13 UNL     1      22.923  -1.158  54.672  1.00  0.00     0.012 A 
HETATM   18  C14 UNL     1      21.653  -1.666  54.780  1.00  0.00     0.002 A 
HETATM   19  C15 UNL     1      20.658  -1.222  53.936  1.00  0.00     0.022 A 
HETATM   20  C16 UNL     1      20.995  -0.267  53.004  1.00  0.00     0.044 A 
HETATM   21 BR1  UNL     1      19.652   0.377  51.818  1.00  0.00    -0.048 Br
HETATM   22  C17 UNL     1      22.273   0.212  52.930  1.00  0.00     0.090 A 
BRANCH  22  23
HETATM   23  O2  UNL     1      22.520   1.150  51.976  1.00  0.00    -0.359 OA
HETATM   24  H21 UNL     1      23.250   1.831  52.030  1.00  0.00     0.217 HD
ENDBRANCH  22  23
ENDBRANCH  15  16
ENDBRANCH   1  15
TORSDOF 9
ENDMDL
MODEL 8
REMARK VINA RESULT:      -6.5      3.153      6.474
REMARK  9 active torsions:
REMARK  status: ('A' for Active; 'I' for Inactive)
REMARK    1  A    between atoms: C2_2  and  N1_3 
REMARK    2  A    between atoms: C2_2  and  N2_9 
REMARK    3  A    between atoms: N1_3  and  C3_4 
REMARK    4  A    between atoms: N2_9  and  C8_10 
REMARK    5  A    between atoms: N2_9  and  C11_14 
REMARK    6  A    between atoms: C8_10  and  C9_11 
REMARK    7  A    between atoms: C9_11  and  C10_12 
REMARK    8  A    between atoms: C11_14  and  C12_15 
REMARK    9  A    between atoms: C17_21  and  O2_22 
ROOT
HETATM    1  N2  UNL     1      23.966   3.271  51.418  1.00  0.00    -0.388 N 
ENDROOT
BRANCH   1   2
HETATM    2  C2  UNL     1      22.908   4.210  51.221  1.00  0.00     0.174 C 
HETATM    3  C1  UNL     1      22.640   4.890  52.588  1.00  0.00     0.055 C 
BRANCH   2   4
HETATM    4  N1  UNL     1      21.675   3.650  50.731  1.00  0.00    -0.372 N 
HETATM    5  H5  UNL     1      21.067   4.172  50.050  1.00  0.00     0.161 HD
BRANCH   4   6
HETATM    6  C3  UNL     1      21.338   2.355  51.229  1.00  0.00     0.010 A 
HETATM    7  C4  UNL     1      20.767   2.077  52.395  1.00  0.00     0.024 A 
HETATM    8  C5  UNL     1      20.597   0.619  52.510  1.00  0.00    -0.002 A 
HETATM    9  C6  UNL     1      21.065   0.036  51.421  1.00  0.00    -0.021 A 
HETATM   10  C7  UNL     1      21.574   1.089  50.517  1.00  0.00     0.083 A 
ENDBRANCH   4   6
ENDBRANCH   2   4
ENDBRANCH   1   2
BRANCH   1  11
HETATM   11  C8  UNL     1      24.797   3.126  50.301  1.00  0.00     0.122 C 
BRANCH  11  12
HETATM   12  C9  UNL     1      25.365   4.326  49.638  1.00  0.00     0.056 C 
BRANCH  12  13
HETATM   13  C10 UNL     1      26.796   4.159  49.262  1.00  0.00     0.392 C 
HETATM   14  O1  UNL     1      27.856   4.489  48.773  1.00  0.00    -0.430 OA
ENDBRANCH  12  13
ENDBRANCH  11  12
ENDBRANCH   1  11
BRANCH   1  15
HETATM   15  C11 UNL     1      24.450   3.192  52.719  1.00  0.00     0.160 C 
BRANCH  15  16
HETATM   16  C12 UNL     1      25.056   1.934  53.200  1.00  0.00    -0.006 A 
HETATM   17  C13 UNL     1      24.260   0.784  53.096  1.00  0.00     0.012 A 
HETATM   18  C14 UNL     1      24.660  -0.474  53.468  1.00  0.00     0.002 A 
HETATM   19  C15 UNL     1      25.922  -0.671  53.988  1.00  0.00     0.022 A 
HETATM   20  C16 UNL     1      26.739   0.431  54.109  1.00  0.00     0.044 A 
HETATM   21 BR1  UNL     1      28.490   0.206  54.818  1.00  0.00    -0.048 Br
HETATM   22  C17 UNL     1      26.299   1.667  53.725  1.00  0.00     0.090 A 
BRANCH  22  23
HETATM   23  O2  UNL     1      27.169   2.701  53.883  1.00  0.00    -0.359 OA
HETATM   24  H21 UNL     1      27.111   3.569  53.389  1.00  0.00     0.217 HD
ENDBRANCH  22  23
ENDBRANCH  15  16
ENDBRANCH   1  15
TORSDOF 9
ENDMDL
MODEL 9
REMARK VINA RESULT:      -6.4      2.812      6.003
REMARK  9 active torsions:
REMARK  status: ('A' for Active; 'I' for Inactive)
REMARK    1  A    between atoms: C2_2  and  N1_3 
REMARK    2  A    between atoms: C2_2  and  N2_9 
REMARK    3  A    between atoms: N1_3  and  C3_4 
REMARK    4  A    between atoms: N2_9  and  C8_10 
REMARK    5  A    between atoms: N2_9  and  C11_14 
REMARK    6  A    between atoms: C8_10  and  C9_11 
REMARK    7  A    between atoms: C9_11  and  C10_12 
REMARK    8  A    between atoms: C11_14  and  C12_15 
REMARK    9  A    between atoms: C17_21  and  O2_22 
ROOT
HETATM    1  N2  UNL     1      24.376   1.735  52.621  1.00  0.00    -0.388 N 
ENDROOT
BRANCH   1   2
HETATM    2  C2  UNL     1      23.781   2.855  51.963  1.00  0.00     0.174 C 
HETATM    3  C1  UNL     1      23.801   4.037  52.965  1.00  0.00     0.055 C 
BRANCH   2   4
HETATM    4  N1  UNL     1      22.430   2.652  51.510  1.00  0.00    -0.372 N 
HETATM    5  H5  UNL     1      21.610   2.763  52.160  1.00  0.00     0.161 HD
BRANCH   4   6
HETATM    6  C3  UNL     1      22.280   2.293  50.136  1.00  0.00     0.010 A 
HETATM    7  C4  UNL     1      21.452   1.383  49.638  1.00  0.00     0.024 A 
HETATM    8  C5  UNL     1      21.620   1.329  48.177  1.00  0.00    -0.002 A 
HETATM    9  C6  UNL     1      22.542   2.201  47.809  1.00  0.00    -0.021 A 
HETATM   10  C7  UNL     1      23.038   2.886  49.022  1.00  0.00     0.083 A 
ENDBRANCH   4   6
ENDBRANCH   2   4
ENDBRANCH   1   2
BRANCH   1  11
HETATM   11  C8  UNL     1      23.472   1.001  53.396  1.00  0.00     0.122 C 
BRANCH  11  12
HETATM   12  C9  UNL     1      23.600  -0.475  53.486  1.00  0.00     0.056 C 
BRANCH  12  13
HETATM   13  C10 UNL     1      24.415  -0.918  54.650  1.00  0.00     0.392 C 
HETATM   14  O1  UNL     1      25.438  -1.162  55.255  1.00  0.00    -0.430 OA
ENDBRANCH  12  13
ENDBRANCH  11  12
ENDBRANCH   1  11
BRANCH   1  15
HETATM   15  C11 UNL     1      25.424   1.135  51.933  1.00  0.00     0.160 C 
BRANCH  15  16
HETATM   16  C12 UNL     1      26.761   1.059  52.556  1.00  0.00    -0.006 A 
HETATM   17  C13 UNL     1      27.322   2.277  52.967  1.00  0.00     0.012 A 
HETATM   18  C14 UNL     1      28.542   2.402  53.584  1.00  0.00     0.002 A 
HETATM   19  C15 UNL     1      29.305   1.281  53.836  1.00  0.00     0.022 A 
HETATM   20  C16 UNL     1      28.794   0.064  53.448  1.00  0.00     0.044 A 
HETATM   21 BR1  UNL     1      29.812  -1.510  53.778  1.00  0.00    -0.048 Br
HETATM   22  C17 UNL     1      27.573  -0.015  52.836  1.00  0.00     0.090 A 
BRANCH  22  23
HETATM   23  O2  UNL     1      27.147  -1.258  52.482  1.00  0.00    -0.359 OA
HETATM   24  H21 UNL     1      26.191  -1.551  52.496  1.00  0.00     0.217 HD
ENDBRANCH  22  23
ENDBRANCH  15  16
ENDBRANCH   1  15
TORSDOF 9
ENDMDL
