MODEL 1
REMARK VINA RESULT:      -7.4      0.000      0.000
REMARK  8 active torsions:
REMARK  status: ('A' for Active; 'I' for Inactive)
REMARK    1  A    between atoms: C2_2  and  C3_3 
REMARK    2  A    between atoms: C3_3  and  C4_4 
REMARK    3  A    between atoms: C4_4  and  C5_5 
REMARK       I    between atoms: C5_5  and  N1_7 
REMARK    4  A    between atoms: C8_10  and  O2_11 
REMARK    5  A    between atoms: O2_11  and  C9_12 
REMARK    6  A    between atoms: C13_18  and  O3_19 
REMARK    7  A    between atoms: C15_21  and  O4_22 
REMARK    8  A    between atoms: C20_27  and  N4_28 
ROOT
HETATM    1  C5  UNL     1      25.332  -0.334  54.595  1.00  0.00     0.221 C 
HETATM    2  O1  UNL     1      25.298  -1.330  55.394  1.00  0.00    -0.273 OA
HETATM    3  N1  UNL     1      24.186   0.005  53.783  1.00  0.00    -0.318 N 
HETATM    4  C6  UNL     1      24.242   1.138  52.883  1.00  0.00     0.157 C 
HETATM    5  C7  UNL     1      23.178   1.008  51.876  1.00  0.00     0.026 C 
HETATM    6  C8  UNL     1      21.976   0.453  52.071  1.00  0.00     0.057 C 
HETATM    7  C19 UNL     1      21.779  -0.053  53.459  1.00  0.00     0.122 C 
HETATM    8  C20 UNL     1      23.005  -0.835  53.920  1.00  0.00     0.327 C 
ENDROOT
BRANCH   6   9
HETATM    9  O2  UNL     1      20.981   0.337  51.110  1.00  0.00    -0.296 OA
BRANCH   9  10
HETATM   10  C9  UNL     1      19.983   1.289  51.027  1.00  0.00     0.183 A 
HETATM   11  N2  UNL     1      20.226   2.554  50.574  1.00  0.00    -0.217 NA
HETATM   12  C10 UNL     1      19.165   3.385  50.542  1.00  0.00     0.236 A 
HETATM   13  N3  UNL     1      17.933   3.009  50.930  1.00  0.00    -0.241 NA
HETATM   14  C11 UNL     1      17.653   1.776  51.381  1.00  0.00     0.075 A 
HETATM   15  C12 UNL     1      16.371   1.430  51.772  1.00  0.00     0.072 A 
HETATM   16  C18 UNL     1      18.722   0.900  51.425  1.00  0.00     0.049 A 
HETATM   17  C13 UNL     1      16.157   0.136  52.228  1.00  0.00     0.103 A 
HETATM   18  C15 UNL     1      17.186  -0.782  52.294  1.00  0.00     0.102 A 
HETATM   19  C17 UNL     1      18.461  -0.386  51.890  1.00  0.00     0.057 A 
BRANCH  17  20
HETATM   20  O3  UNL     1      14.892  -0.271  52.633  1.00  0.00    -0.353 OA
HETATM   21  C14 UNL     1      14.020   0.667  53.279  1.00  0.00     0.210 C 
ENDBRANCH  17  20
BRANCH  18  22
HETATM   22  O4  UNL     1      16.916  -2.063  52.758  1.00  0.00    -0.353 OA
HETATM   23  C16 UNL     1      17.766  -2.655  53.724  1.00  0.00     0.210 C 
ENDBRANCH  18  22
ENDBRANCH   9  10
ENDBRANCH   6   9
BRANCH   8  24
HETATM   24  N4  UNL     1      22.768  -1.284  55.259  1.00  0.00     0.101 N 
HETATM   25  H25 UNL     1      23.654  -1.353  55.830  1.00  0.00     0.315 HD
HETATM   26  H26 UNL     1      22.076  -0.673  55.777  1.00  0.00     0.315 HD
ENDBRANCH   8  24
BRANCH   1  27
HETATM   27  C4  UNL     1      26.566   0.523  54.472  1.00  0.00     0.103 C 
BRANCH  27  28
HETATM   28  C3  UNL     1      27.552  -0.232  53.645  1.00  0.00     0.009 C 
BRANCH  28  29
HETATM   29  C2  UNL     1      28.961  -0.160  54.184  1.00  0.00    -0.004 C 
HETATM   30  C1  UNL     1      29.867  -1.187  53.579  1.00  0.00     0.005 C 
ENDBRANCH  28  29
ENDBRANCH  27  28
ENDBRANCH   1  27
TORSDOF 8
ENDMDL
MODEL 2
REMARK VINA RESULT:      -7.3      6.287      9.316
REMARK  8 active torsions:
REMARK  status: ('A' for Active; 'I' for Inactive)
REMARK    1  A    between atoms: C2_2  and  C3_3 
REMARK    2  A    between atoms: C3_3  and  C4_4 
REMARK    3  A    between atoms: C4_4  and  C5_5 
REMARK       I    between atoms: C5_5  and  N1_7 
REMARK    4  A    between atoms: C8_10  and  O2_11 
REMARK    5  A    between atoms: O2_11  and  C9_12 
REMARK    6  A    between atoms: C13_18  and  O3_19 
REMARK    7  A    between atoms: C15_21  and  O4_22 
REMARK    8  A    between atoms: C20_27  and  N4_28 
ROOT
HETATM    1  C5  UNL     1      25.670   0.003  52.797  1.00  0.00     0.221 C 
HETATM    2  O1  UNL     1      24.619  -0.573  53.239  1.00  0.00    -0.273 OA
HETATM    3  N1  UNL     1      25.585   1.259  52.088  1.00  0.00    -0.318 N 
HETATM    4  C6  UNL     1      26.787   1.897  51.593  1.00  0.00     0.157 C 
HETATM    5  C7  UNL     1      26.423   2.873  50.555  1.00  0.00     0.026 C 
HETATM    6  C8  UNL     1      25.298   3.597  50.518  1.00  0.00     0.057 C 
HETATM    7  C19 UNL     1      24.388   3.330  51.667  1.00  0.00     0.122 C 
HETATM    8  C20 UNL     1      24.258   1.830  51.906  1.00  0.00     0.327 C 
ENDROOT
BRANCH   6   9
HETATM    9  O2  UNL     1      24.969   4.516  49.530  1.00  0.00    -0.296 OA
BRANCH   9  10
HETATM   10  C9  UNL     1      24.912   5.863  49.828  1.00  0.00     0.183 A 
HETATM   11  N2  UNL     1      23.868   6.408  50.520  1.00  0.00    -0.217 NA
HETATM   12  C10 UNL     1      23.935   7.735  50.745  1.00  0.00     0.236 A 
HETATM   13  N3  UNL     1      24.961   8.495  50.321  1.00  0.00    -0.241 NA
HETATM   14  C11 UNL     1      26.005   7.998  49.640  1.00  0.00     0.075 A 
HETATM   15  C12 UNL     1      27.041   8.816  49.221  1.00  0.00     0.072 A 
HETATM   16  C18 UNL     1      25.966   6.639  49.393  1.00  0.00     0.049 A 
HETATM   17  C13 UNL     1      28.088   8.232  48.520  1.00  0.00     0.103 A 
HETATM   18  C15 UNL     1      28.102   6.879  48.245  1.00  0.00     0.102 A 
HETATM   19  C17 UNL     1      27.035   6.097  48.687  1.00  0.00     0.057 A 
BRANCH  17  20
HETATM   20  O3  UNL     1      29.156   8.999  48.075  1.00  0.00    -0.353 OA
HETATM   21  C14 UNL     1      29.895   9.797  49.011  1.00  0.00     0.210 C 
ENDBRANCH  17  20
BRANCH  18  22
HETATM   22  O4  UNL     1      29.174   6.346  47.540  1.00  0.00    -0.353 OA
HETATM   23  C16 UNL     1      30.174   5.616  48.227  1.00  0.00     0.210 C 
ENDBRANCH  18  22
ENDBRANCH   9  10
ENDBRANCH   6   9
BRANCH   8  24
HETATM   24  N4  UNL     1      23.387   1.632  53.026  1.00  0.00     0.101 N 
HETATM   25  H25 UNL     1      23.443   2.416  53.732  1.00  0.00     0.315 HD
HETATM   26  H26 UNL     1      22.377   1.504  52.739  1.00  0.00     0.315 HD
ENDBRANCH   8  24
BRANCH   1  27
HETATM   27  C4  UNL     1      27.033  -0.607  52.999  1.00  0.00     0.103 C 
BRANCH  27  28
HETATM   28  C3  UNL     1      27.537  -0.145  54.325  1.00  0.00     0.009 C 
BRANCH  28  29
HETATM   29  C2  UNL     1      29.021   0.137  54.333  1.00  0.00    -0.004 C 
HETATM   30  C1  UNL     1      29.803  -0.843  53.516  1.00  0.00     0.005 C 
ENDBRANCH  28  29
ENDBRANCH  27  28
ENDBRANCH   1  27
TORSDOF 8
ENDMDL
MODEL 3
REMARK VINA RESULT:      -7.1      6.586      9.916
REMARK  8 active torsions:
REMARK  status: ('A' for Active; 'I' for Inactive)
REMARK    1  A    between atoms: C2_2  and  C3_3 
REMARK    2  A    between atoms: C3_3  and  C4_4 
REMARK    3  A    between atoms: C4_4  and  C5_5 
REMARK       I    between atoms: C5_5  and  N1_7 
REMARK    4  A    between atoms: C8_10  and  O2_11 
REMARK    5  A    between atoms: O2_11  and  C9_12 
REMARK    6  A    between atoms: C13_18  and  O3_19 
REMARK    7  A    between atoms: C15_21  and  O4_22 
REMARK    8  A    between atoms: C20_27  and  N4_28 
ROOT
HETATM    1  C5  UNL     1      24.249   1.179  52.567  1.00  0.00     0.221 C 
HETATM    2  O1  UNL     1      25.191   1.103  53.428  1.00  0.00    -0.273 OA
HETATM    3  N1  UNL     1      24.357   2.058  51.426  1.00  0.00    -0.318 N 
HETATM    4  C6  UNL     1      23.280   2.131  50.461  1.00  0.00     0.157 C 
HETATM    5  C7  UNL     1      23.413   3.373  49.683  1.00  0.00     0.026 C 
HETATM    6  C8  UNL     1      24.562   3.971  49.349  1.00  0.00     0.057 C 
HETATM    7  C19 UNL     1      25.767   3.251  49.848  1.00  0.00     0.122 C 
HETATM    8  C20 UNL     1      25.578   2.842  51.305  1.00  0.00     0.327 C 
ENDROOT
BRANCH   6   9
HETATM    9  O2  UNL     1      24.671   5.143  48.613  1.00  0.00    -0.296 OA
BRANCH   9  10
HETATM   10  C9  UNL     1      24.800   6.357  49.259  1.00  0.00     0.183 A 
HETATM   11  N2  UNL     1      23.784   6.899  49.993  1.00  0.00    -0.217 NA
HETATM   12  C10 UNL     1      24.040   8.089  50.572  1.00  0.00     0.236 A 
HETATM   13  N3  UNL     1      25.222   8.720  50.447  1.00  0.00    -0.241 NA
HETATM   14  C11 UNL     1      26.245   8.221  49.737  1.00  0.00     0.075 A 
HETATM   15  C12 UNL     1      27.445   8.904  49.633  1.00  0.00     0.072 A 
HETATM   16  C18 UNL     1      26.013   7.001  49.130  1.00  0.00     0.049 A 
HETATM   17  C13 UNL     1      28.460   8.327  48.881  1.00  0.00     0.103 A 
HETATM   18  C15 UNL     1      28.283   7.111  48.252  1.00  0.00     0.102 A 
HETATM   19  C17 UNL     1      27.057   6.461  48.385  1.00  0.00     0.057 A 
BRANCH  17  20
HETATM   20  O3  UNL     1      29.686   8.964  48.740  1.00  0.00    -0.353 OA
HETATM   21  C14 UNL     1      29.786  10.134  47.916  1.00  0.00     0.210 C 
ENDBRANCH  17  20
BRANCH  18  22
HETATM   22  O4  UNL     1      29.332   6.578  47.511  1.00  0.00    -0.353 OA
HETATM   23  C16 UNL     1      30.047   5.461  48.007  1.00  0.00     0.210 C 
ENDBRANCH  18  22
ENDBRANCH   9  10
ENDBRANCH   6   9
BRANCH   8  24
HETATM   24  N4  UNL     1      26.755   2.144  51.727  1.00  0.00     0.101 N 
HETATM   25  H25 UNL     1      27.586   2.783  51.856  1.00  0.00     0.315 HD
HETATM   26  H26 UNL     1      26.605   1.596  52.621  1.00  0.00     0.315 HD
ENDBRANCH   8  24
BRANCH   1  27
HETATM   27  C4  UNL     1      22.995   0.356  52.713  1.00  0.00     0.103 C 
BRANCH  27  28
HETATM   28  C3  UNL     1      23.213  -0.593  53.843  1.00  0.00     0.009 C 
BRANCH  28  29
HETATM   29  C2  UNL     1      22.022  -0.705  54.766  1.00  0.00    -0.004 C 
HETATM   30  C1  UNL     1      21.060  -1.772  54.346  1.00  0.00     0.005 C 
ENDBRANCH  28  29
ENDBRANCH  27  28
ENDBRANCH   1  27
TORSDOF 8
ENDMDL
MODEL 4
REMARK VINA RESULT:      -7.1      7.727     11.914
REMARK  8 active torsions:
REMARK  status: ('A' for Active; 'I' for Inactive)
REMARK    1  A    between atoms: C2_2  and  C3_3 
REMARK    2  A    between atoms: C3_3  and  C4_4 
REMARK    3  A    between atoms: C4_4  and  C5_5 
REMARK       I    between atoms: C5_5  and  N1_7 
REMARK    4  A    between atoms: C8_10  and  O2_11 
REMARK    5  A    between atoms: O2_11  and  C9_12 
REMARK    6  A    between atoms: C13_18  and  O3_19 
REMARK    7  A    between atoms: C15_21  and  O4_22 
REMARK    8  A    between atoms: C20_27  and  N4_28 
ROOT
HETATM    1  C5  UNL     1      23.688   3.058  51.153  1.00  0.00     0.221 C 
HETATM    2  O1  UNL     1      22.509   3.527  51.305  1.00  0.00    -0.273 OA
HETATM    3  N1  UNL     1      24.723   3.842  50.519  1.00  0.00    -0.318 N 
HETATM    4  C6  UNL     1      26.053   3.293  50.355  1.00  0.00     0.157 C 
HETATM    5  C7  UNL     1      26.765   4.058  49.320  1.00  0.00     0.026 C 
HETATM    6  C8  UNL     1      26.617   5.364  49.066  1.00  0.00     0.057 C 
HETATM    7  C19 UNL     1      25.623   6.027  49.957  1.00  0.00     0.122 C 
HETATM    8  C20 UNL     1      24.360   5.179  50.070  1.00  0.00     0.327 C 
ENDROOT
BRANCH   6   9
HETATM    9  O2  UNL     1      27.298   6.072  48.086  1.00  0.00    -0.296 OA
BRANCH   9  10
HETATM   10  C9  UNL     1      28.118   7.127  48.436  1.00  0.00     0.183 A 
HETATM   11  N2  UNL     1      27.620   8.365  48.725  1.00  0.00    -0.217 NA
HETATM   12  C10 UNL     1      28.527   9.307  49.052  1.00  0.00     0.236 A 
HETATM   13  N3  UNL     1      29.849   9.060  49.097  1.00  0.00    -0.241 NA
HETATM   14  C11 UNL     1      30.378   7.858  48.821  1.00  0.00     0.075 A 
HETATM   15  C12 UNL     1      31.745   7.647  48.879  1.00  0.00     0.072 A 
HETATM   16  C18 UNL     1      29.472   6.870  48.482  1.00  0.00     0.049 A 
HETATM   17  C13 UNL     1      32.220   6.376  48.580  1.00  0.00     0.103 A 
HETATM   18  C15 UNL     1      31.362   5.352  48.234  1.00  0.00     0.102 A 
HETATM   19  C17 UNL     1      29.993   5.614  48.189  1.00  0.00     0.057 A 
BRANCH  17  20
HETATM   20  O3  UNL     1      33.581   6.103  48.620  1.00  0.00    -0.353 OA
HETATM   21  C14 UNL     1      34.524   7.174  48.472  1.00  0.00     0.210 C 
ENDBRANCH  17  20
BRANCH  18  22
HETATM   22  O4  UNL     1      31.891   4.100  47.945  1.00  0.00    -0.353 OA
HETATM   23  C16 UNL     1      32.144   3.737  46.600  1.00  0.00     0.210 C 
ENDBRANCH  18  22
ENDBRANCH   9  10
ENDBRANCH   6   9
BRANCH   8  24
HETATM   24  N4  UNL     1      23.448   5.853  50.944  1.00  0.00     0.101 N 
HETATM   25  H25 UNL     1      22.848   5.187  51.502  1.00  0.00     0.315 HD
HETATM   26  H26 UNL     1      23.937   6.513  51.612  1.00  0.00     0.315 HD
ENDBRANCH   8  24
BRANCH   1  27
HETATM   27  C4  UNL     1      24.039   1.671  51.628  1.00  0.00     0.103 C 
BRANCH  27  28
HETATM   28  C3  UNL     1      23.284   1.427  52.892  1.00  0.00     0.009 C 
BRANCH  28  29
HETATM   29  C2  UNL     1      22.515   0.127  52.885  1.00  0.00    -0.004 C 
HETATM   30  C1  UNL     1      22.865  -0.760  54.038  1.00  0.00     0.005 C 
ENDBRANCH  28  29
ENDBRANCH  27  28
ENDBRANCH   1  27
TORSDOF 8
ENDMDL
MODEL 5
REMARK VINA RESULT:      -7.1      2.122      9.265
REMARK  8 active torsions:
REMARK  status: ('A' for Active; 'I' for Inactive)
REMARK    1  A    between atoms: C2_2  and  C3_3 
REMARK    2  A    between atoms: C3_3  and  C4_4 
REMARK    3  A    between atoms: C4_4  and  C5_5 
REMARK       I    between atoms: C5_5  and  N1_7 
REMARK    4  A    between atoms: C8_10  and  O2_11 
REMARK    5  A    between atoms: O2_11  and  C9_12 
REMARK    6  A    between atoms: C13_18  and  O3_19 
REMARK    7  A    between atoms: C15_21  and  O4_22 
REMARK    8  A    between atoms: C20_27  and  N4_28 
ROOT
HETATM    1  C5  UNL     1      16.335   2.105  51.554  1.00  0.00     0.221 C 
HETATM    2  O1  UNL     1      15.709   0.992  51.590  1.00  0.00    -0.273 OA
HETATM    3  N1  UNL     1      17.779   2.144  51.539  1.00  0.00    -0.318 N 
HETATM    4  C6  UNL     1      18.471   3.415  51.498  1.00  0.00     0.157 C 
HETATM    5  C7  UNL     1      19.861   3.222  51.938  1.00  0.00     0.026 C 
HETATM    6  C8  UNL     1      20.603   2.126  51.740  1.00  0.00     0.057 C 
HETATM    7  C19 UNL     1      19.881   1.053  50.999  1.00  0.00     0.122 C 
HETATM    8  C20 UNL     1      18.477   0.867  51.565  1.00  0.00     0.327 C 
ENDROOT
BRANCH   6   9
HETATM    9  O2  UNL     1      21.914   1.959  52.161  1.00  0.00    -0.296 OA
BRANCH   9  10
HETATM   10  C9  UNL     1      22.234   0.951  53.050  1.00  0.00     0.183 A 
HETATM   11  N2  UNL     1      21.285   0.329  53.811  1.00  0.00    -0.217 NA
HETATM   12  C10 UNL     1      21.729  -0.638  54.638  1.00  0.00     0.236 A 
HETATM   13  N3  UNL     1      23.026  -0.986  54.721  1.00  0.00    -0.241 NA
HETATM   14  C11 UNL     1      23.988  -0.401  53.991  1.00  0.00     0.075 A 
HETATM   15  C12 UNL     1      25.312  -0.789  54.108  1.00  0.00     0.072 A 
HETATM   16  C18 UNL     1      23.564   0.596  53.133  1.00  0.00     0.049 A 
HETATM   17  C13 UNL     1      26.253  -0.139  53.320  1.00  0.00     0.103 A 
HETATM   18  C15 UNL     1      25.886   0.865  52.446  1.00  0.00     0.102 A 
HETATM   19  C17 UNL     1      24.541   1.221  52.363  1.00  0.00     0.057 A 
BRANCH  17  20
HETATM   20  O3  UNL     1      27.596  -0.483  53.392  1.00  0.00    -0.353 OA
HETATM   21  C14 UNL     1      28.384  -0.033  54.504  1.00  0.00     0.210 C 
ENDBRANCH  17  20
BRANCH  18  22
HETATM   22  O4  UNL     1      26.868   1.483  51.681  1.00  0.00    -0.353 OA
HETATM   23  C16 UNL     1      26.526   2.567  50.838  1.00  0.00     0.210 C 
ENDBRANCH  18  22
ENDBRANCH   9  10
ENDBRANCH   6   9
BRANCH   8  24
HETATM   24  N4  UNL     1      17.826  -0.161  50.810  1.00  0.00     0.101 N 
HETATM   25  H25 UNL     1      17.147   0.222  50.097  1.00  0.00     0.315 HD
HETATM   26  H26 UNL     1      18.511  -0.801  50.318  1.00  0.00     0.315 HD
ENDBRANCH   8  24
BRANCH   1  27
HETATM   27  C4  UNL     1      15.589   3.415  51.526  1.00  0.00     0.103 C 
BRANCH  27  28
HETATM   28  C3  UNL     1      14.993   3.618  52.878  1.00  0.00     0.009 C 
BRANCH  28  29
HETATM   29  C2  UNL     1      13.489   3.478  52.893  1.00  0.00    -0.004 C 
HETATM   30  C1  UNL     1      12.825   4.443  53.826  1.00  0.00     0.005 C 
ENDBRANCH  28  29
ENDBRANCH  27  28
ENDBRANCH   1  27
TORSDOF 8
ENDMDL
MODEL 6
REMARK VINA RESULT:      -7.0      6.178      8.342
REMARK  8 active torsions:
REMARK  status: ('A' for Active; 'I' for Inactive)
REMARK    1  A    between atoms: C2_2  and  C3_3 
REMARK    2  A    between atoms: C3_3  and  C4_4 
REMARK    3  A    between atoms: C4_4  and  C5_5 
REMARK       I    between atoms: C5_5  and  N1_7 
REMARK    4  A    between atoms: C8_10  and  O2_11 
REMARK    5  A    between atoms: O2_11  and  C9_12 
REMARK    6  A    between atoms: C13_18  and  O3_19 
REMARK    7  A    between atoms: C15_21  and  O4_22 
REMARK    8  A    between atoms: C20_27  and  N4_28 
ROOT
HETATM    1  C5  UNL     1      26.917   8.731  49.649  1.00  0.00     0.221 C 
HETATM    2  O1  UNL     1      26.480   9.455  50.607  1.00  0.00    -0.273 OA
HETATM    3  N1  UNL     1      26.443   7.379  49.466  1.00  0.00    -0.318 N 
HETATM    4  C6  UNL     1      26.949   6.572  48.375  1.00  0.00     0.157 C 
HETATM    5  C7  UNL     1      26.681   5.154  48.659  1.00  0.00     0.026 C 
HETATM    6  C8  UNL     1      25.625   4.672  49.325  1.00  0.00     0.057 C 
HETATM    7  C19 UNL     1      24.685   5.733  49.784  1.00  0.00     0.122 C 
HETATM    8  C20 UNL     1      25.454   6.888  50.416  1.00  0.00     0.327 C 
ENDROOT
BRANCH   6   9
HETATM    9  O2  UNL     1      25.387   3.329  49.584  1.00  0.00    -0.296 OA
BRANCH   9  10
HETATM   10  C9  UNL     1      25.790   2.772  50.782  1.00  0.00     0.183 A 
HETATM   11  N2  UNL     1      27.071   2.889  51.240  1.00  0.00    -0.217 NA
HETATM   12  C10 UNL     1      27.333   2.300  52.423  1.00  0.00     0.236 A 
HETATM   13  N3  UNL     1      26.401   1.633  53.127  1.00  0.00    -0.241 NA
HETATM   14  C11 UNL     1      25.132   1.496  52.713  1.00  0.00     0.075 A 
HETATM   15  C12 UNL     1      24.203   0.800  53.468  1.00  0.00     0.072 A 
HETATM   16  C18 UNL     1      24.831   2.090  51.501  1.00  0.00     0.049 A 
HETATM   17  C13 UNL     1      22.908   0.699  52.976  1.00  0.00     0.103 A 
HETATM   18  C15 UNL     1      22.552   1.272  51.771  1.00  0.00     0.102 A 
HETATM   19  C17 UNL     1      23.522   1.963  51.047  1.00  0.00     0.057 A 
BRANCH  17  20
HETATM   20  O3  UNL     1      21.932   0.014  53.688  1.00  0.00    -0.353 OA
HETATM   21  C14 UNL     1      22.309  -1.090  54.522  1.00  0.00     0.210 C 
ENDBRANCH  17  20
BRANCH  18  22
HETATM   22  O4  UNL     1      21.242   1.141  51.326  1.00  0.00    -0.353 OA
HETATM   23  C16 UNL     1      20.356   2.242  51.413  1.00  0.00     0.210 C 
ENDBRANCH  18  22
ENDBRANCH   9  10
ENDBRANCH   6   9
BRANCH   8  24
HETATM   24  N4  UNL     1      24.506   7.881  50.825  1.00  0.00     0.101 N 
HETATM   25  H25 UNL     1      24.861   8.484  51.617  1.00  0.00     0.315 HD
HETATM   26  H26 UNL     1      24.205   8.509  50.028  1.00  0.00     0.315 HD
ENDBRANCH   8  24
BRANCH   1  27
HETATM   27  C4  UNL     1      27.940   9.261  48.678  1.00  0.00     0.103 C 
BRANCH  27  28
HETATM   28  C3  UNL     1      29.261   9.254  49.372  1.00  0.00     0.009 C 
BRANCH  28  29
HETATM   29  C2  UNL     1      30.158  10.397  48.958  1.00  0.00    -0.004 C 
HETATM   30  C1  UNL     1      31.426   9.935  48.313  1.00  0.00     0.005 C 
ENDBRANCH  28  29
ENDBRANCH  27  28
ENDBRANCH   1  27
TORSDOF 8
ENDMDL
MODEL 7
REMARK VINA RESULT:      -6.8      2.438      9.115
REMARK  8 active torsions:
REMARK  status: ('A' for Active; 'I' for Inactive)
REMARK    1  A    between atoms: C2_2  and  C3_3 
REMARK    2  A    between atoms: C3_3  and  C4_4 
REMARK    3  A    between atoms: C4_4  and  C5_5 
REMARK       I    between atoms: C5_5  and  N1_7 
REMARK    4  A    between atoms: C8_10  and  O2_11 
REMARK    5  A    between atoms: O2_11  and  C9_12 
REMARK    6  A    between atoms: C13_18  and  O3_19 
REMARK    7  A    between atoms: C15_21  and  O4_22 
REMARK    8  A    between atoms: C20_27  and  N4_28 
ROOT
HETATM    1  C5  UNL     1      16.758   2.425  51.255  1.00  0.00     0.221 C 
HETATM    2  O1  UNL     1      15.949   1.537  50.820  1.00  0.00    -0.273 OA
HETATM    3  N1  UNL     1      18.184   2.192  51.257  1.00  0.00    -0.318 N 
HETATM    4  C6  UNL     1      19.086   3.210  51.755  1.00  0.00     0.157 C 
HETATM    5  C7  UNL     1      20.382   2.593  52.072  1.00  0.00     0.026 C 
HETATM    6  C8  UNL     1      20.938   1.558  51.431  1.00  0.00     0.057 C 
HETATM    7  C19 UNL     1      20.103   1.045  50.308  1.00  0.00     0.122 C 
HETATM    8  C20 UNL     1      18.648   0.911  50.744  1.00  0.00     0.327 C 
ENDROOT
BRANCH   6   9
HETATM    9  O2  UNL     1      22.163   0.986  51.744  1.00  0.00    -0.296 OA
BRANCH   9  10
HETATM   10  C9  UNL     1      23.336   1.609  51.363  1.00  0.00     0.183 A 
HETATM   11  N2  UNL     1      23.371   2.535  50.360  1.00  0.00    -0.217 NA
HETATM   12  C10 UNL     1      24.579   3.068  50.087  1.00  0.00     0.236 A 
HETATM   13  N3  UNL     1      25.695   2.720  50.753  1.00  0.00    -0.241 NA
HETATM   14  C11 UNL     1      25.703   1.815  51.744  1.00  0.00     0.075 A 
HETATM   15  C12 UNL     1      26.875   1.486  52.404  1.00  0.00     0.072 A 
HETATM   16  C18 UNL     1      24.478   1.251  52.048  1.00  0.00     0.049 A 
HETATM   17  C13 UNL     1      26.806   0.541  53.419  1.00  0.00     0.103 A 
HETATM   18  C15 UNL     1      25.610  -0.056  53.764  1.00  0.00     0.102 A 
HETATM   19  C17 UNL     1      24.457   0.308  53.071  1.00  0.00     0.057 A 
BRANCH  17  20
HETATM   20  O3  UNL     1      27.948   0.169  54.117  1.00  0.00    -0.353 OA
HETATM   21  C14 UNL     1      28.904  -0.703  53.498  1.00  0.00     0.210 C 
ENDBRANCH  17  20
BRANCH  18  22
HETATM   22  O4  UNL     1      25.599  -0.995  54.788  1.00  0.00    -0.353 OA
HETATM   23  C16 UNL     1      24.415  -1.207  55.536  1.00  0.00     0.210 C 
ENDBRANCH  18  22
ENDBRANCH   9  10
ENDBRANCH   6   9
BRANCH   8  24
HETATM   24  N4  UNL     1      17.892   0.431  49.626  1.00  0.00     0.101 N 
HETATM   25  H25 UNL     1      18.309   0.714  48.698  1.00  0.00     0.315 HD
HETATM   26  H26 UNL     1      17.770  -0.621  49.638  1.00  0.00     0.315 HD
ENDBRANCH   8  24
BRANCH   1  27
HETATM   27  C4  UNL     1      16.254   3.745  51.781  1.00  0.00     0.103 C 
BRANCH  27  28
HETATM   28  C3  UNL     1      15.309   3.449  52.896  1.00  0.00     0.009 C 
BRANCH  28  29
HETATM   29  C2  UNL     1      13.873   3.782  52.566  1.00  0.00    -0.004 C 
HETATM   30  C1  UNL     1      13.181   4.523  53.666  1.00  0.00     0.005 C 
ENDBRANCH  28  29
ENDBRANCH  27  28
ENDBRANCH   1  27
TORSDOF 8
ENDMDL
MODEL 8
REMARK VINA RESULT:      -6.8      2.507      3.637
REMARK  8 active torsions:
REMARK  status: ('A' for Active; 'I' for Inactive)
REMARK    1  A    between atoms: C2_2  and  C3_3 
REMARK    2  A    between atoms: C3_3  and  C4_4 
REMARK    3  A    between atoms: C4_4  and  C5_5 
REMARK       I    between atoms: C5_5  and  N1_7 
REMARK    4  A    between atoms: C8_10  and  O2_11 
REMARK    5  A    between atoms: O2_11  and  C9_12 
REMARK    6  A    between atoms: C13_18  and  O3_19 
REMARK    7  A    between atoms: C15_21  and  O4_22 
REMARK    8  A    between atoms: C20_27  and  N4_28 
ROOT
HETATM    1  C5  UNL     1      26.369   0.706  52.608  1.00  0.00     0.221 C 
HETATM    2  O1  UNL     1      26.976   1.685  52.056  1.00  0.00    -0.273 OA
HETATM    3  N1  UNL     1      24.926   0.660  52.659  1.00  0.00    -0.318 N 
HETATM    4  C6  UNL     1      24.255  -0.458  53.288  1.00  0.00     0.157 C 
HETATM    5  C7  UNL     1      22.874  -0.072  53.612  1.00  0.00     0.026 C 
HETATM    6  C8  UNL     1      22.108   0.770  52.908  1.00  0.00     0.057 C 
HETATM    7  C19 UNL     1      22.792   1.320  51.704  1.00  0.00     0.122 C 
HETATM    8  C20 UNL     1      24.206   1.773  52.055  1.00  0.00     0.327 C 
ENDROOT
BRANCH   6   9
HETATM    9  O2  UNL     1      20.804   1.124  53.226  1.00  0.00    -0.296 OA
BRANCH   9  10
HETATM   10  C9  UNL     1      19.769   0.238  52.998  1.00  0.00     0.183 A 
HETATM   11  N2  UNL     1      19.567  -0.858  53.788  1.00  0.00    -0.217 NA
HETATM   12  C10 UNL     1      18.522  -1.642  53.457  1.00  0.00     0.236 A 
HETATM   13  N3  UNL     1      17.715  -1.377  52.415  1.00  0.00    -0.241 NA
HETATM   14  C11 UNL     1      17.878  -0.312  51.615  1.00  0.00     0.075 A 
HETATM   15  C12 UNL     1      17.024  -0.076  50.551  1.00  0.00     0.072 A 
HETATM   16  C18 UNL     1      18.943   0.512  51.929  1.00  0.00     0.049 A 
HETATM   17  C13 UNL     1      17.256   1.046  49.767  1.00  0.00     0.103 A 
HETATM   18  C15 UNL     1      18.305   1.904  50.033  1.00  0.00     0.102 A 
HETATM   19  C17 UNL     1      19.138   1.625  51.115  1.00  0.00     0.057 A 
BRANCH  17  20
HETATM   20  O3  UNL     1      16.433   1.336  48.686  1.00  0.00    -0.353 OA
HETATM   21  C14 UNL     1      15.125   0.751  48.615  1.00  0.00     0.210 C 
ENDBRANCH  17  20
BRANCH  18  22
HETATM   22  O4  UNL     1      18.490   3.012  49.216  1.00  0.00    -0.353 OA
HETATM   23  C16 UNL     1      19.547   3.022  48.273  1.00  0.00     0.210 C 
ENDBRANCH  18  22
ENDBRANCH   9  10
ENDBRANCH   6   9
BRANCH   8  24
HETATM   24  N4  UNL     1      24.820   2.277  50.863  1.00  0.00     0.101 N 
HETATM   25  H25 UNL     1      25.111   1.511  50.196  1.00  0.00     0.315 HD
HETATM   26  H26 UNL     1      24.201   2.963  50.346  1.00  0.00     0.315 HD
ENDBRANCH   8  24
BRANCH   1  27
HETATM   27  C4  UNL     1      27.137  -0.435  53.226  1.00  0.00     0.103 C 
BRANCH  27  28
HETATM   28  C3  UNL     1      27.921   0.120  54.366  1.00  0.00     0.009 C 
BRANCH  28  29
HETATM   29  C2  UNL     1      29.414  -0.027  54.190  1.00  0.00    -0.004 C 
HETATM   30  C1  UNL     1      29.792  -1.276  53.458  1.00  0.00     0.005 C 
ENDBRANCH  28  29
ENDBRANCH  27  28
ENDBRANCH   1  27
TORSDOF 8
ENDMDL
MODEL 9
REMARK VINA RESULT:      -6.7      4.106      9.251
REMARK  8 active torsions:
REMARK  status: ('A' for Active; 'I' for Inactive)
REMARK    1  A    between atoms: C2_2  and  C3_3 
REMARK    2  A    between atoms: C3_3  and  C4_4 
REMARK    3  A    between atoms: C4_4  and  C5_5 
REMARK       I    between atoms: C5_5  and  N1_7 
REMARK    4  A    between atoms: C8_10  and  O2_11 
REMARK    5  A    between atoms: O2_11  and  C9_12 
REMARK    6  A    between atoms: C13_18  and  O3_19 
REMARK    7  A    between atoms: C15_21  and  O4_22 
REMARK    8  A    between atoms: C20_27  and  N4_28 
ROOT
HETATM    1  C5  UNL     1      19.890   5.942  49.708  1.00  0.00     0.221 C 
HETATM    2  O1  UNL     1      20.365   7.111  49.507  1.00  0.00    -0.273 OA
HETATM    3  N1  UNL     1      20.596   4.985  50.528  1.00  0.00    -0.318 N 
HETATM    4  C6  UNL     1      20.042   3.664  50.744  1.00  0.00     0.157 C 
HETATM    5  C7  UNL     1      21.110   2.762  51.202  1.00  0.00     0.026 C 
HETATM    6  C8  UNL     1      22.159   3.106  51.958  1.00  0.00     0.057 C 
HETATM    7  C19 UNL     1      22.170   4.550  52.326  1.00  0.00     0.122 C 
HETATM    8  C20 UNL     1      21.862   5.413  51.107  1.00  0.00     0.327 C 
ENDROOT
BRANCH   6   9
HETATM    9  O2  UNL     1      23.159   2.242  52.382  1.00  0.00    -0.296 OA
BRANCH   9  10
HETATM   10  C9  UNL     1      24.454   2.406  51.931  1.00  0.00     0.183 A 
HETATM   11  N2  UNL     1      24.761   3.254  50.905  1.00  0.00    -0.217 NA
HETATM   12  C10 UNL     1      26.063   3.322  50.562  1.00  0.00     0.236 A 
HETATM   13  N3  UNL     1      27.017   2.605  51.182  1.00  0.00    -0.241 NA
HETATM   14  C11 UNL     1      26.758   1.762  52.193  1.00  0.00     0.075 A 
HETATM   15  C12 UNL     1      27.770   1.042  52.804  1.00  0.00     0.072 A 
HETATM   16  C18 UNL     1      25.430   1.670  52.569  1.00  0.00     0.049 A 
HETATM   17  C13 UNL     1      27.426   0.189  53.844  1.00  0.00     0.103 A 
HETATM   18  C15 UNL     1      26.116   0.057  54.261  1.00  0.00     0.102 A 
HETATM   19  C17 UNL     1      25.131   0.803  53.615  1.00  0.00     0.057 A 
BRANCH  17  20
HETATM   20  O3  UNL     1      28.397  -0.560  54.496  1.00  0.00    -0.353 OA
HETATM   21  C14 UNL     1      29.643  -0.831  53.838  1.00  0.00     0.210 C 
ENDBRANCH  17  20
BRANCH  18  22
HETATM   22  O4  UNL     1      25.828  -0.811  55.307  1.00  0.00    -0.353 OA
HETATM   23  C16 UNL     1      24.490  -1.211  55.540  1.00  0.00     0.210 C 
ENDBRANCH  18  22
ENDBRANCH   9  10
ENDBRANCH   6   9
BRANCH   8  24
HETATM   24  N4  UNL     1      21.871   6.785  51.519  1.00  0.00     0.101 N 
HETATM   25  H25 UNL     1      21.801   6.898  52.567  1.00  0.00     0.315 HD
HETATM   26  H26 UNL     1      22.726   7.307  51.177  1.00  0.00     0.315 HD
ENDBRANCH   8  24
BRANCH   1  27
HETATM   27  C4  UNL     1      18.577   5.522  49.099  1.00  0.00     0.103 C 
BRANCH  27  28
HETATM   28  C3  UNL     1      18.550   6.036  47.698  1.00  0.00     0.009 C 
BRANCH  28  29
HETATM   29  C2  UNL     1      18.623   4.941  46.660  1.00  0.00    -0.004 C 
HETATM   30  C1  UNL     1      18.605   3.570  47.261  1.00  0.00     0.005 C 
ENDBRANCH  28  29
ENDBRANCH  27  28
ENDBRANCH   1  27
TORSDOF 8
ENDMDL
