MODEL 1
REMARK VINA RESULT:      -9.1      0.000      0.000
REMARK  6 active torsions:
REMARK  status: ('A' for Active; 'I' for Inactive)
REMARK    1  A    between atoms: O1_2  and  C2_3 
REMARK    2  A    between atoms: C5_7  and  O2_8 
REMARK    3  A    between atoms: O2_8  and  C6_9 
REMARK    4  A    between atoms: C10_13  and  N2_14 
REMARK       I    between atoms: N2_14  and  C11_15 
REMARK       I    between atoms: C11_15  and  N3_17 
REMARK    5  A    between atoms: N3_17  and  C12_18 
REMARK    6  A    between atoms: C15_21  and  O4_22 
ROOT
HETATM    1  C6  UNL     1      25.443   2.993  50.207  1.00  0.00     0.081 A 
HETATM    2  C7  UNL     1      24.178   3.168  49.624  1.00  0.00     0.037 A 
HETATM    3  C8  UNL     1      23.832   4.311  48.962  1.00  0.00     0.005 A 
HETATM    4  C9  UNL     1      24.756   5.307  48.875  1.00  0.00     0.030 A 
HETATM    5  C10 UNL     1      26.018   5.232  49.410  1.00  0.00     0.039 A 
HETATM    6  C19 UNL     1      26.324   4.064  50.066  1.00  0.00     0.066 A 
ENDROOT
BRANCH   1   7
HETATM    7  O2  UNL     1      25.967   1.919  50.904  1.00  0.00    -0.278 OA
BRANCH   7   8
HETATM    8  C5  UNL     1      25.334   1.299  51.955  1.00  0.00     0.248 C 
HETATM    9  N1  UNL     1      23.959   1.431  52.532  1.00  0.00    -0.351 N 
HETATM   10  C4  UNL     1      23.626   0.094  52.740  1.00  0.00     0.153 C 
HETATM   11  H7  UNL     1      23.791   2.447  52.555  1.00  0.00     0.163 HD
HETATM   12  C3  UNL     1      22.429  -0.389  53.398  1.00  0.00     0.029 C 
HETATM   13  C2  UNL     1      22.629  -1.010  54.586  1.00  0.00     0.065 C 
HETATM   14  C23 UNL     1      23.772  -1.275  55.472  1.00  0.00     0.034 C 
HETATM   15  C22 UNL     1      25.080  -1.068  55.731  1.00  0.00    -0.003 C 
HETATM   16  C21 UNL     1      25.984  -0.238  54.971  1.00  0.00     0.177 C 
HETATM   17  N5  UNL     1      26.955  -0.817  54.108  1.00  0.00    -0.279 NA
HETATM   18  C20 UNL     1      26.998  -0.246  52.867  1.00  0.00     0.231 C 
HETATM   19  N4  UNL     1      26.465   0.727  52.021  1.00  0.00    -0.202 NA
BRANCH  13  20
HETATM   20  O1  UNL     1      21.361  -1.414  54.975  1.00  0.00    -0.356 OA
HETATM   21  C1  UNL     1      20.253  -1.326  54.110  1.00  0.00     0.210 C 
ENDBRANCH  13  20
ENDBRANCH   7   8
ENDBRANCH   1   7
BRANCH   5  22
HETATM   22  N2  UNL     1      26.994   6.249  49.308  1.00  0.00    -0.309 N 
HETATM   23  C11 UNL     1      28.314   6.153  48.820  1.00  0.00     0.325 C 
HETATM   24  O3  UNL     1      28.742   5.063  48.383  1.00  0.00    -0.247 OA
HETATM   25  N3  UNL     1      29.271   7.197  48.767  1.00  0.00    -0.309 N 
HETATM   26  H12 UNL     1      28.983   8.140  49.120  1.00  0.00     0.170 HD
HETATM   27  H11 UNL     1      26.780   7.210  49.612  1.00  0.00     0.170 HD
BRANCH  25  28
HETATM   28  C12 UNL     1      30.483   6.663  48.202  1.00  0.00     0.036 A 
HETATM   29  C13 UNL     1      31.329   6.180  49.198  1.00  0.00     0.032 A 
HETATM   30  C14 UNL     1      32.561   5.631  48.830  1.00  0.00     0.039 A 
HETATM   31  C15 UNL     1      32.949   5.559  47.497  1.00  0.00     0.068 A 
HETATM   32  C17 UNL     1      32.092   6.042  46.566  1.00  0.00     0.039 A 
HETATM   33  C18 UNL     1      30.883   6.585  46.889  1.00  0.00     0.032 A 
BRANCH  31  34
HETATM   34  O4  UNL     1      34.171   4.998  47.275  1.00  0.00    -0.356 OA
HETATM   35  C16 UNL     1      35.018   4.642  48.330  1.00  0.00     0.210 C 
ENDBRANCH  31  34
ENDBRANCH  25  28
ENDBRANCH   5  22
TORSDOF 6
ENDMDL
MODEL 2
REMARK VINA RESULT:      -9.0      2.594      9.139
REMARK  6 active torsions:
REMARK  status: ('A' for Active; 'I' for Inactive)
REMARK    1  A    between atoms: O1_2  and  C2_3 
REMARK    2  A    between atoms: C5_7  and  O2_8 
REMARK    3  A    between atoms: O2_8  and  C6_9 
REMARK    4  A    between atoms: C10_13  and  N2_14 
REMARK       I    between atoms: N2_14  and  C11_15 
REMARK       I    between atoms: C11_15  and  N3_17 
REMARK    5  A    between atoms: N3_17  and  C12_18 
REMARK    6  A    between atoms: C15_21  and  O4_22 
ROOT
HETATM    1  C6  UNL     1      23.596   5.354  49.338  1.00  0.00     0.081 A 
HETATM    2  C7  UNL     1      23.049   5.107  48.069  1.00  0.00     0.037 A 
HETATM    3  C8  UNL     1      22.486   3.908  47.739  1.00  0.00     0.005 A 
HETATM    4  C9  UNL     1      22.462   2.928  48.683  1.00  0.00     0.030 A 
HETATM    5  C10 UNL     1      22.969   3.071  49.951  1.00  0.00     0.039 A 
HETATM    6  C19 UNL     1      23.527   4.293  50.241  1.00  0.00     0.066 A 
ENDROOT
BRANCH   1   7
HETATM    7  O2  UNL     1      24.199   6.490  49.849  1.00  0.00    -0.278 OA
BRANCH   7   8
HETATM    8  C5  UNL     1      25.523   6.811  49.664  1.00  0.00     0.248 C 
HETATM    9  N1  UNL     1      26.771   5.984  49.622  1.00  0.00    -0.351 N 
HETATM   10  C4  UNL     1      27.431   6.551  48.534  1.00  0.00     0.153 C 
HETATM   11  H7  UNL     1      26.663   5.325  50.406  1.00  0.00     0.163 HD
HETATM   12  C3  UNL     1      28.769   6.220  48.088  1.00  0.00     0.029 C 
HETATM   13  C2  UNL     1      29.689   7.205  48.230  1.00  0.00     0.065 C 
HETATM   14  C23 UNL     1      29.725   8.556  48.809  1.00  0.00     0.034 C 
HETATM   15  C22 UNL     1      29.078   9.506  49.515  1.00  0.00    -0.003 C 
HETATM   16  C21 UNL     1      27.763   9.393  50.100  1.00  0.00     0.177 C 
HETATM   17  N5  UNL     1      26.644  10.045  49.511  1.00  0.00    -0.279 NA
HETATM   18  C20 UNL     1      25.547   9.240  49.379  1.00  0.00     0.231 C 
HETATM   19  N4  UNL     1      25.011   7.969  49.586  1.00  0.00    -0.202 NA
BRANCH  13  20
HETATM   20  O1  UNL     1      30.848   6.666  47.694  1.00  0.00    -0.356 OA
HETATM   21  C1  UNL     1      31.085   5.277  47.676  1.00  0.00     0.210 C 
ENDBRANCH  13  20
ENDBRANCH   7   8
ENDBRANCH   1   7
BRANCH   5  22
HETATM   22  N2  UNL     1      22.932   2.070  50.947  1.00  0.00    -0.309 N 
HETATM   23  C11 UNL     1      23.997   1.552  51.714  1.00  0.00     0.325 C 
HETATM   24  O3  UNL     1      25.152   2.005  51.564  1.00  0.00    -0.247 OA
HETATM   25  N3  UNL     1      23.916   0.522  52.684  1.00  0.00    -0.309 N 
HETATM   26  H12 UNL     1      22.977   0.092  52.860  1.00  0.00     0.170 HD
HETATM   27  H11 UNL     1      22.041   1.615  51.197  1.00  0.00     0.170 HD
BRANCH  25  28
HETATM   28  C12 UNL     1      25.235   0.309  53.219  1.00  0.00     0.036 A 
HETATM   29  C13 UNL     1      25.865  -0.762  52.586  1.00  0.00     0.032 A 
HETATM   30  C14 UNL     1      27.156  -1.118  52.987  1.00  0.00     0.039 A 
HETATM   31  C15 UNL     1      27.814  -0.426  53.998  1.00  0.00     0.068 A 
HETATM   32  C17 UNL     1      27.160   0.605  54.582  1.00  0.00     0.039 A 
HETATM   33  C18 UNL     1      25.901   0.981  54.217  1.00  0.00     0.032 A 
BRANCH  31  34
HETATM   34  O4  UNL     1      29.068  -0.874  54.289  1.00  0.00    -0.356 OA
HETATM   35  C16 UNL     1      30.157  -0.599  53.456  1.00  0.00     0.210 C 
ENDBRANCH  31  34
ENDBRANCH  25  28
ENDBRANCH   5  22
TORSDOF 6
ENDMDL
MODEL 3
REMARK VINA RESULT:      -9.0      2.605      9.285
REMARK  6 active torsions:
REMARK  status: ('A' for Active; 'I' for Inactive)
REMARK    1  A    between atoms: O1_2  and  C2_3 
REMARK    2  A    between atoms: C5_7  and  O2_8 
REMARK    3  A    between atoms: O2_8  and  C6_9 
REMARK    4  A    between atoms: C10_13  and  N2_14 
REMARK       I    between atoms: N2_14  and  C11_15 
REMARK       I    between atoms: C11_15  and  N3_17 
REMARK    5  A    between atoms: N3_17  and  C12_18 
REMARK    6  A    between atoms: C15_21  and  O4_22 
ROOT
HETATM    1  C6  UNL     1      24.971   6.759  48.792  1.00  0.00     0.081 A 
HETATM    2  C7  UNL     1      23.995   6.304  47.892  1.00  0.00     0.037 A 
HETATM    3  C8  UNL     1      23.117   5.308  48.210  1.00  0.00     0.005 A 
HETATM    4  C9  UNL     1      23.204   4.746  49.447  1.00  0.00     0.030 A 
HETATM    5  C10 UNL     1      24.121   5.121  50.397  1.00  0.00     0.039 A 
HETATM    6  C19 UNL     1      24.985   6.127  50.035  1.00  0.00     0.066 A 
ENDROOT
BRANCH   1   7
HETATM    7  O2  UNL     1      25.931   7.745  48.650  1.00  0.00    -0.278 OA
BRANCH   7   8
HETATM    8  C5  UNL     1      27.286   7.515  48.700  1.00  0.00     0.248 C 
HETATM    9  N1  UNL     1      28.097   6.290  48.990  1.00  0.00    -0.351 N 
HETATM   10  C4  UNL     1      29.077   6.379  48.004  1.00  0.00     0.153 C 
HETATM   11  H7  UNL     1      27.626   5.861  49.799  1.00  0.00     0.163 HD
HETATM   12  C3  UNL     1      30.224   5.505  47.868  1.00  0.00     0.029 C 
HETATM   13  C2  UNL     1      31.428   6.086  48.091  1.00  0.00     0.065 C 
HETATM   14  C23 UNL     1      31.911   7.404  48.528  1.00  0.00     0.034 C 
HETATM   15  C22 UNL     1      31.598   8.631  48.995  1.00  0.00    -0.003 C 
HETATM   16  C21 UNL     1      30.276   9.115  49.314  1.00  0.00     0.177 C 
HETATM   17  N5  UNL     1      29.604  10.026  48.453  1.00  0.00    -0.279 NA
HETATM   18  C20 UNL     1      28.310   9.676  48.186  1.00  0.00     0.231 C 
HETATM   19  N4  UNL     1      27.291   8.750  48.408  1.00  0.00    -0.202 NA
BRANCH  13  20
HETATM   20  O1  UNL     1      32.343   5.073  47.853  1.00  0.00    -0.356 OA
HETATM   21  C1  UNL     1      31.995   3.903  47.150  1.00  0.00     0.210 C 
ENDBRANCH  13  20
ENDBRANCH   7   8
ENDBRANCH   1   7
BRANCH   5  22
HETATM   22  N2  UNL     1      24.209   4.562  51.692  1.00  0.00    -0.309 N 
HETATM   23  C11 UNL     1      24.821   3.354  52.088  1.00  0.00     0.325 C 
HETATM   24  O3  UNL     1      25.402   2.642  51.243  1.00  0.00    -0.247 OA
HETATM   25  N3  UNL     1      24.856   2.817  53.399  1.00  0.00    -0.309 N 
HETATM   26  H12 UNL     1      24.384   3.360  54.161  1.00  0.00     0.170 HD
HETATM   27  H11 UNL     1      23.792   5.048  52.500  1.00  0.00     0.170 HD
BRANCH  25  28
HETATM   28  C12 UNL     1      25.579   1.573  53.352  1.00  0.00     0.036 A 
HETATM   29  C13 UNL     1      26.903   1.749  53.752  1.00  0.00     0.032 A 
HETATM   30  C14 UNL     1      27.758   0.643  53.759  1.00  0.00     0.039 A 
HETATM   31  C15 UNL     1      27.310  -0.617  53.377  1.00  0.00     0.068 A 
HETATM   32  C17 UNL     1      26.016  -0.736  52.997  1.00  0.00     0.039 A 
HETATM   33  C18 UNL     1      25.154   0.321  52.977  1.00  0.00     0.032 A 
BRANCH  31  34
HETATM   34  O4  UNL     1      28.244  -1.608  53.433  1.00  0.00    -0.356 OA
HETATM   35  C16 UNL     1      29.611  -1.326  53.519  1.00  0.00     0.210 C 
ENDBRANCH  31  34
ENDBRANCH  25  28
ENDBRANCH   5  22
TORSDOF 6
ENDMDL
MODEL 4
REMARK VINA RESULT:      -8.6      2.266      3.526
REMARK  6 active torsions:
REMARK  status: ('A' for Active; 'I' for Inactive)
REMARK    1  A    between atoms: O1_2  and  C2_3 
REMARK    2  A    between atoms: C5_7  and  O2_8 
REMARK    3  A    between atoms: O2_8  and  C6_9 
REMARK    4  A    between atoms: C10_13  and  N2_14 
REMARK       I    between atoms: N2_14  and  C11_15 
REMARK       I    between atoms: C11_15  and  N3_17 
REMARK    5  A    between atoms: N3_17  and  C12_18 
REMARK    6  A    between atoms: C15_21  and  O4_22 
ROOT
HETATM    1  C6  UNL     1      24.337   6.393  49.997  1.00  0.00     0.081 A 
HETATM    2  C7  UNL     1      23.748   6.574  48.736  1.00  0.00     0.037 A 
HETATM    3  C8  UNL     1      24.437   7.089  47.676  1.00  0.00     0.005 A 
HETATM    4  C9  UNL     1      25.740   7.435  47.864  1.00  0.00     0.030 A 
HETATM    5  C10 UNL     1      26.406   7.296  49.057  1.00  0.00     0.039 A 
HETATM    6  C19 UNL     1      25.675   6.773  50.097  1.00  0.00     0.066 A 
ENDROOT
BRANCH   1   7
HETATM    7  O2  UNL     1      23.805   5.891  51.171  1.00  0.00    -0.278 OA
BRANCH   7   8
HETATM    8  C5  UNL     1      23.844   4.564  51.529  1.00  0.00     0.248 C 
HETATM    9  N1  UNL     1      24.953   3.559  51.584  1.00  0.00    -0.351 N 
HETATM   10  C4  UNL     1      24.686   2.931  52.799  1.00  0.00     0.153 C 
HETATM   11  H7  UNL     1      25.478   3.715  50.712  1.00  0.00     0.163 HD
HETATM   12  C3  UNL     1      25.382   1.777  53.328  1.00  0.00     0.029 C 
HETATM   13  C2  UNL     1      24.646   0.642  53.412  1.00  0.00     0.065 C 
HETATM   14  C23 UNL     1      23.293   0.217  53.025  1.00  0.00     0.034 C 
HETATM   15  C22 UNL     1      22.143   0.527  52.391  1.00  0.00    -0.003 C 
HETATM   16  C21 UNL     1      21.865   1.746  51.668  1.00  0.00     0.177 C 
HETATM   17  N5  UNL     1      21.023   2.748  52.224  1.00  0.00    -0.279 NA
HETATM   18  C20 UNL     1      21.540   4.010  52.137  1.00  0.00     0.231 C 
HETATM   19  N4  UNL     1      22.609   4.797  51.710  1.00  0.00    -0.202 NA
BRANCH  13  20
HETATM   20  O1  UNL     1      25.509  -0.281  53.983  1.00  0.00    -0.356 OA
HETATM   21  C1  UNL     1      26.476   0.094  54.937  1.00  0.00     0.210 C 
ENDBRANCH  13  20
ENDBRANCH   7   8
ENDBRANCH   1   7
BRANCH   5  22
HETATM   22  N2  UNL     1      27.764   7.630  49.260  1.00  0.00    -0.309 N 
HETATM   23  C11 UNL     1      28.906   7.089  48.633  1.00  0.00     0.325 C 
HETATM   24  O3  UNL     1      28.779   6.210  47.754  1.00  0.00    -0.247 OA
HETATM   25  N3  UNL     1      30.255   7.435  48.894  1.00  0.00    -0.309 N 
HETATM   26  H12 UNL     1      30.439   8.164  49.623  1.00  0.00     0.170 HD
HETATM   27  H11 UNL     1      28.026   8.356  49.943  1.00  0.00     0.170 HD
BRANCH  25  28
HETATM   28  C12 UNL     1      31.093   6.641  48.034  1.00  0.00     0.036 A 
HETATM   29  C13 UNL     1      31.518   5.481  48.679  1.00  0.00     0.032 A 
HETATM   30  C14 UNL     1      32.350   4.592  47.993  1.00  0.00     0.039 A 
HETATM   31  C15 UNL     1      32.757   4.847  46.688  1.00  0.00     0.068 A 
HETATM   32  C17 UNL     1      32.319   5.988  46.105  1.00  0.00     0.039 A 
HETATM   33  C18 UNL     1      31.506   6.877  46.744  1.00  0.00     0.032 A 
BRANCH  31  34
HETATM   34  O4  UNL     1      33.564   3.899  46.134  1.00  0.00    -0.356 OA
HETATM   35  C16 UNL     1      34.812   3.586  46.682  1.00  0.00     0.210 C 
ENDBRANCH  31  34
ENDBRANCH  25  28
ENDBRANCH   5  22
TORSDOF 6
ENDMDL
MODEL 5
REMARK VINA RESULT:      -8.5      2.767      3.920
REMARK  6 active torsions:
REMARK  status: ('A' for Active; 'I' for Inactive)
REMARK    1  A    between atoms: O1_2  and  C2_3 
REMARK    2  A    between atoms: C5_7  and  O2_8 
REMARK    3  A    between atoms: O2_8  and  C6_9 
REMARK    4  A    between atoms: C10_13  and  N2_14 
REMARK       I    between atoms: N2_14  and  C11_15 
REMARK       I    between atoms: C11_15  and  N3_17 
REMARK    5  A    between atoms: N3_17  and  C12_18 
REMARK    6  A    between atoms: C15_21  and  O4_22 
ROOT
HETATM    1  C6  UNL     1      24.488   6.524  50.266  1.00  0.00     0.081 A 
HETATM    2  C7  UNL     1      24.177   6.361  48.906  1.00  0.00     0.037 A 
HETATM    3  C8  UNL     1      24.873   6.998  47.919  1.00  0.00     0.005 A 
HETATM    4  C9  UNL     1      25.900   7.815  48.281  1.00  0.00     0.030 A 
HETATM    5  C10 UNL     1      26.281   8.038  49.580  1.00  0.00     0.039 A 
HETATM    6  C19 UNL     1      25.555   7.378  50.542  1.00  0.00     0.066 A 
ENDROOT
BRANCH   1   7
HETATM    7  O2  UNL     1      23.905   5.968  51.390  1.00  0.00    -0.278 OA
BRANCH   7   8
HETATM    8  C5  UNL     1      23.877   4.619  51.658  1.00  0.00     0.248 C 
HETATM    9  N1  UNL     1      24.940   3.563  51.662  1.00  0.00    -0.351 N 
HETATM   10  C4  UNL     1      24.621   2.868  52.827  1.00  0.00     0.153 C 
HETATM   11  H7  UNL     1      25.488   3.754  50.812  1.00  0.00     0.163 HD
HETATM   12  C3  UNL     1      25.256   1.650  53.287  1.00  0.00     0.029 C 
HETATM   13  C2  UNL     1      24.469   0.547  53.281  1.00  0.00     0.065 C 
HETATM   14  C23 UNL     1      23.106   0.211  52.844  1.00  0.00     0.034 C 
HETATM   15  C22 UNL     1      21.983   0.615  52.214  1.00  0.00    -0.003 C 
HETATM   16  C21 UNL     1      21.773   1.891  51.572  1.00  0.00     0.177 C 
HETATM   17  N5  UNL     1      20.966   2.891  52.181  1.00  0.00    -0.279 NA
HETATM   18  C20 UNL     1      21.540   4.131  52.189  1.00  0.00     0.231 C 
HETATM   19  N4  UNL     1      22.651   4.896  51.834  1.00  0.00    -0.202 NA
BRANCH  13  20
HETATM   20  O1  UNL     1      25.279  -0.451  53.802  1.00  0.00    -0.356 OA
HETATM   21  C1  UNL     1      26.290  -1.065  53.037  1.00  0.00     0.210 C 
ENDBRANCH  13  20
ENDBRANCH   7   8
ENDBRANCH   1   7
BRANCH   5  22
HETATM   22  N2  UNL     1      27.358   8.866  49.969  1.00  0.00    -0.309 N 
HETATM   23  C11 UNL     1      28.678   8.883  49.471  1.00  0.00     0.325 C 
HETATM   24  O3  UNL     1      29.008   8.108  48.548  1.00  0.00    -0.247 OA
HETATM   25  N3  UNL     1      29.737   9.713  49.916  1.00  0.00    -0.309 N 
HETATM   26  H12 UNL     1      29.535  10.387  50.692  1.00  0.00     0.170 HD
HETATM   27  H11 UNL     1      27.233   9.573  50.709  1.00  0.00     0.170 HD
BRANCH  25  28
HETATM   28  C12 UNL     1      30.907   9.399  49.137  1.00  0.00     0.036 A 
HETATM   29  C13 UNL     1      31.587   8.307  49.674  1.00  0.00     0.032 A 
HETATM   30  C14 UNL     1      32.757   7.866  49.049  1.00  0.00     0.039 A 
HETATM   31  C15 UNL     1      33.246   8.495  47.910  1.00  0.00     0.068 A 
HETATM   32  C17 UNL     1      32.550   9.553  47.427  1.00  0.00     0.039 A 
HETATM   33  C18 UNL     1      31.406  10.009  48.012  1.00  0.00     0.032 A 
BRANCH  31  34
HETATM   34  O4  UNL     1      34.392   7.964  47.398  1.00  0.00    -0.356 OA
HETATM   35  C16 UNL     1      35.414   7.487  48.226  1.00  0.00     0.210 C 
ENDBRANCH  31  34
ENDBRANCH  25  28
ENDBRANCH   5  22
TORSDOF 6
ENDMDL
MODEL 6
REMARK VINA RESULT:      -8.5      4.961      6.906
REMARK  6 active torsions:
REMARK  status: ('A' for Active; 'I' for Inactive)
REMARK    1  A    between atoms: O1_2  and  C2_3 
REMARK    2  A    between atoms: C5_7  and  O2_8 
REMARK    3  A    between atoms: O2_8  and  C6_9 
REMARK    4  A    between atoms: C10_13  and  N2_14 
REMARK       I    between atoms: N2_14  and  C11_15 
REMARK       I    between atoms: C11_15  and  N3_17 
REMARK    5  A    between atoms: N3_17  and  C12_18 
REMARK    6  A    between atoms: C15_21  and  O4_22 
ROOT
HETATM    1  C6  UNL     1      21.116   3.365  48.556  1.00  0.00     0.081 A 
HETATM    2  C7  UNL     1      21.566   4.122  47.463  1.00  0.00     0.037 A 
HETATM    3  C8  UNL     1      22.690   4.896  47.526  1.00  0.00     0.005 A 
HETATM    4  C9  UNL     1      23.386   4.924  48.695  1.00  0.00     0.030 A 
HETATM    5  C10 UNL     1      23.028   4.219  49.818  1.00  0.00     0.039 A 
HETATM    6  C19 UNL     1      21.892   3.453  49.711  1.00  0.00     0.066 A 
ENDROOT
BRANCH   1   7
HETATM    7  O2  UNL     1      20.018   2.532  48.677  1.00  0.00    -0.278 OA
BRANCH   7   8
HETATM    8  C5  UNL     1      19.859   1.606  49.682  1.00  0.00     0.248 C 
HETATM    9  N1  UNL     1      20.779   0.583  50.274  1.00  0.00    -0.351 N 
HETATM   10  C4  UNL     1      20.520   0.744  51.633  1.00  0.00     0.153 C 
HETATM   11  H7  UNL     1      21.241   0.157  49.458  1.00  0.00     0.163 HD
HETATM   12  C3  UNL     1      21.052  -0.077  52.701  1.00  0.00     0.029 C 
HETATM   13  C2  UNL     1      20.142  -0.834  53.361  1.00  0.00     0.065 C 
HETATM   14  C23 UNL     1      18.706  -1.125  53.238  1.00  0.00     0.034 C 
HETATM   15  C22 UNL     1      17.574  -0.972  52.520  1.00  0.00    -0.003 C 
HETATM   16  C21 UNL     1      17.445  -0.280  51.260  1.00  0.00     0.177 C 
HETATM   17  N5  UNL     1      16.843   1.007  51.192  1.00  0.00    -0.279 NA
HETATM   18  C20 UNL     1      17.560   1.911  50.460  1.00  0.00     0.231 C 
HETATM   19  N4  UNL     1      18.706   2.135  49.696  1.00  0.00    -0.202 NA
BRANCH  13  20
HETATM   20  O1  UNL     1      20.881  -1.473  54.344  1.00  0.00    -0.356 OA
HETATM   21  C1  UNL     1      22.008  -0.872  54.939  1.00  0.00     0.210 C 
ENDBRANCH  13  20
ENDBRANCH   7   8
ENDBRANCH   1   7
BRANCH   5  22
HETATM   22  N2  UNL     1      23.753   4.222  51.031  1.00  0.00    -0.309 N 
HETATM   23  C11 UNL     1      24.465   3.162  51.631  1.00  0.00     0.325 C 
HETATM   24  O3  UNL     1      24.527   2.050  51.064  1.00  0.00    -0.247 OA
HETATM   25  N3  UNL     1      25.153   3.203  52.870  1.00  0.00    -0.309 N 
HETATM   26  H12 UNL     1      25.141   4.103  53.405  1.00  0.00     0.170 HD
HETATM   27  H11 UNL     1      23.810   5.077  51.604  1.00  0.00     0.170 HD
BRANCH  25  28
HETATM   28  C12 UNL     1      25.735   1.906  53.099  1.00  0.00     0.036 A 
HETATM   29  C13 UNL     1      27.102   1.916  52.827  1.00  0.00     0.032 A 
HETATM   30  C14 UNL     1      27.831   0.734  52.988  1.00  0.00     0.039 A 
HETATM   31  C15 UNL     1      27.218  -0.439  53.412  1.00  0.00     0.068 A 
HETATM   32  C17 UNL     1      25.887  -0.398  53.662  1.00  0.00     0.039 A 
HETATM   33  C18 UNL     1      25.145   0.737  53.516  1.00  0.00     0.032 A 
BRANCH  31  34
HETATM   34  O4  UNL     1      28.042  -1.518  53.531  1.00  0.00    -0.356 OA
HETATM   35  C16 UNL     1      29.432  -1.393  53.439  1.00  0.00     0.210 C 
ENDBRANCH  31  34
ENDBRANCH  25  28
ENDBRANCH   5  22
TORSDOF 6
ENDMDL
MODEL 7
REMARK VINA RESULT:      -8.5      2.693      9.583
REMARK  6 active torsions:
REMARK  status: ('A' for Active; 'I' for Inactive)
REMARK    1  A    between atoms: O1_2  and  C2_3 
REMARK    2  A    between atoms: C5_7  and  O2_8 
REMARK    3  A    between atoms: O2_8  and  C6_9 
REMARK    4  A    between atoms: C10_13  and  N2_14 
REMARK       I    between atoms: N2_14  and  C11_15 
REMARK       I    between atoms: C11_15  and  N3_17 
REMARK    5  A    between atoms: N3_17  and  C12_18 
REMARK    6  A    between atoms: C15_21  and  O4_22 
ROOT
HETATM    1  C6  UNL     1      25.759   7.886  48.426  1.00  0.00     0.081 A 
HETATM    2  C7  UNL     1      24.971   7.728  47.275  1.00  0.00     0.037 A 
HETATM    3  C8  UNL     1      23.791   7.042  47.289  1.00  0.00     0.005 A 
HETATM    4  C9  UNL     1      23.378   6.498  48.466  1.00  0.00     0.030 A 
HETATM    5  C10 UNL     1      24.076   6.597  49.644  1.00  0.00     0.039 A 
HETATM    6  C19 UNL     1      25.258   7.297  49.586  1.00  0.00     0.066 A 
ENDROOT
BRANCH   1   7
HETATM    7  O2  UNL     1      26.965   8.541  48.604  1.00  0.00    -0.278 OA
BRANCH   7   8
HETATM    8  C5  UNL     1      28.185   7.909  48.665  1.00  0.00     0.248 C 
HETATM    9  N1  UNL     1      28.580   6.492  48.945  1.00  0.00    -0.351 N 
HETATM   10  C4  UNL     1      29.554   6.288  47.970  1.00  0.00     0.153 C 
HETATM   11  H7  UNL     1      27.988   6.218  49.742  1.00  0.00     0.163 HD
HETATM   12  C3  UNL     1      30.383   5.107  47.834  1.00  0.00     0.029 C 
HETATM   13  C2  UNL     1      31.703   5.292  48.078  1.00  0.00     0.065 C 
HETATM   14  C23 UNL     1      32.558   6.395  48.540  1.00  0.00     0.034 C 
HETATM   15  C22 UNL     1      32.627   7.654  49.021  1.00  0.00    -0.003 C 
HETATM   16  C21 UNL     1      31.511   8.514  49.333  1.00  0.00     0.177 C 
HETATM   17  N5  UNL     1      31.161   9.596  48.479  1.00  0.00    -0.279 NA
HETATM   18  C20 UNL     1      29.826   9.660  48.193  1.00  0.00     0.231 C 
HETATM   19  N4  UNL     1      28.570   9.086  48.390  1.00  0.00    -0.202 NA
BRANCH  13  20
HETATM   20  O1  UNL     1      32.270   4.051  47.835  1.00  0.00    -0.356 OA
HETATM   21  C1  UNL     1      32.232   3.450  46.561  1.00  0.00     0.210 C 
ENDBRANCH  13  20
ENDBRANCH   7   8
ENDBRANCH   1   7
BRANCH   5  22
HETATM   22  N2  UNL     1      23.648   6.056  50.877  1.00  0.00    -0.309 N 
HETATM   23  C11 UNL     1      24.023   4.835  51.478  1.00  0.00     0.325 C 
HETATM   24  O3  UNL     1      24.855   4.092  50.917  1.00  0.00    -0.247 OA
HETATM   25  N3  UNL     1      23.542   4.318  52.707  1.00  0.00    -0.309 N 
HETATM   26  H12 UNL     1      22.837   4.887  53.233  1.00  0.00     0.170 HD
HETATM   27  H11 UNL     1      22.975   6.567  51.467  1.00  0.00     0.170 HD
BRANCH  25  28
HETATM   28  C12 UNL     1      24.185   3.051  52.939  1.00  0.00     0.036 A 
HETATM   29  C13 UNL     1      23.366   1.994  52.546  1.00  0.00     0.032 A 
HETATM   30  C14 UNL     1      23.828   0.685  52.707  1.00  0.00     0.039 A 
HETATM   31  C15 UNL     1      25.082   0.425  53.250  1.00  0.00     0.068 A 
HETATM   32  C17 UNL     1      25.840   1.486  53.618  1.00  0.00     0.039 A 
HETATM   33  C18 UNL     1      25.420   2.775  53.475  1.00  0.00     0.032 A 
BRANCH  31  34
HETATM   34  O4  UNL     1      25.412  -0.894  53.350  1.00  0.00    -0.356 OA
HETATM   35  C16 UNL     1      26.538  -1.419  52.708  1.00  0.00     0.210 C 
ENDBRANCH  31  34
ENDBRANCH  25  28
ENDBRANCH   5  22
TORSDOF 6
ENDMDL
MODEL 8
REMARK VINA RESULT:      -8.4      2.354      2.839
REMARK  6 active torsions:
REMARK  status: ('A' for Active; 'I' for Inactive)
REMARK    1  A    between atoms: O1_2  and  C2_3 
REMARK    2  A    between atoms: C5_7  and  O2_8 
REMARK    3  A    between atoms: O2_8  and  C6_9 
REMARK    4  A    between atoms: C10_13  and  N2_14 
REMARK       I    between atoms: N2_14  and  C11_15 
REMARK       I    between atoms: C11_15  and  N3_17 
REMARK    5  A    between atoms: N3_17  and  C12_18 
REMARK    6  A    between atoms: C15_21  and  O4_22 
ROOT
HETATM    1  C6  UNL     1      24.591   5.597  49.836  1.00  0.00     0.081 A 
HETATM    2  C7  UNL     1      23.345   6.225  49.679  1.00  0.00     0.037 A 
HETATM    3  C8  UNL     1      23.188   7.575  49.806  1.00  0.00     0.005 A 
HETATM    4  C9  UNL     1      24.287   8.325  50.095  1.00  0.00     0.030 A 
HETATM    5  C10 UNL     1      25.546   7.807  50.266  1.00  0.00     0.039 A 
HETATM    6  C19 UNL     1      25.660   6.444  50.129  1.00  0.00     0.066 A 
ENDROOT
BRANCH   1   7
HETATM    7  O2  UNL     1      24.940   4.261  49.743  1.00  0.00    -0.278 OA
BRANCH   7   8
HETATM    8  C5  UNL     1      24.619   3.314  50.686  1.00  0.00     0.248 C 
HETATM    9  N1  UNL     1      23.340   2.969  51.385  1.00  0.00    -0.351 N 
HETATM   10  C4  UNL     1      23.372   1.577  51.331  1.00  0.00     0.153 C 
HETATM   11  H7  UNL     1      22.935   3.882  51.635  1.00  0.00     0.163 HD
HETATM   12  C3  UNL     1      22.425   0.682  51.963  1.00  0.00     0.029 C 
HETATM   13  C2  UNL     1      22.923  -0.072  52.974  1.00  0.00     0.065 C 
HETATM   14  C23 UNL     1      24.202  -0.184  53.691  1.00  0.00     0.034 C 
HETATM   15  C22 UNL     1      25.442   0.310  53.885  1.00  0.00    -0.003 C 
HETATM   16  C21 UNL     1      26.010   1.475  53.248  1.00  0.00     0.177 C 
HETATM   17  N5  UNL     1      26.972   1.342  52.209  1.00  0.00    -0.279 NA
HETATM   18  C20 UNL     1      26.712   2.123  51.117  1.00  0.00     0.231 C 
HETATM   19  N4  UNL     1      25.854   3.058  50.540  1.00  0.00    -0.202 NA
BRANCH  13  20
HETATM   20  O1  UNL     1      21.853  -0.861  53.367  1.00  0.00    -0.356 OA
HETATM   21  C1  UNL     1      21.101  -0.575  54.524  1.00  0.00     0.210 C 
ENDBRANCH  13  20
ENDBRANCH   7   8
ENDBRANCH   1   7
BRANCH   5  22
HETATM   22  N2  UNL     1      26.699   8.575  50.544  1.00  0.00    -0.309 N 
HETATM   23  C11 UNL     1      27.845   8.762  49.743  1.00  0.00     0.325 C 
HETATM   24  O3  UNL     1      27.914   8.227  48.616  1.00  0.00    -0.247 OA
HETATM   25  N3  UNL     1      28.995   9.519  50.080  1.00  0.00    -0.309 N 
HETATM   26  H12 UNL     1      29.009   9.994  51.013  1.00  0.00     0.170 HD
HETATM   27  H11 UNL     1      26.779   9.094  51.431  1.00  0.00     0.170 HD
BRANCH  25  28
HETATM   28  C12 UNL     1      29.919   9.439  48.979  1.00  0.00     0.036 A 
HETATM   29  C13 UNL     1      30.906   8.485  49.223  1.00  0.00     0.032 A 
HETATM   30  C14 UNL     1      31.898   8.278  48.260  1.00  0.00     0.039 A 
HETATM   31  C15 UNL     1      31.913   9.003  47.073  1.00  0.00     0.068 A 
HETATM   32  C17 UNL     1      30.934   9.919  46.884  1.00  0.00     0.039 A 
HETATM   33  C18 UNL     1      29.951  10.147  47.802  1.00  0.00     0.032 A 
BRANCH  31  34
HETATM   34  O4  UNL     1      32.932   8.701  46.219  1.00  0.00    -0.356 OA
HETATM   35  C16 UNL     1      33.601   7.475  46.279  1.00  0.00     0.210 C 
ENDBRANCH  31  34
ENDBRANCH  25  28
ENDBRANCH   5  22
TORSDOF 6
ENDMDL
MODEL 9
REMARK VINA RESULT:      -8.3      3.121     10.432
REMARK  6 active torsions:
REMARK  status: ('A' for Active; 'I' for Inactive)
REMARK    1  A    between atoms: O1_2  and  C2_3 
REMARK    2  A    between atoms: C5_7  and  O2_8 
REMARK    3  A    between atoms: O2_8  and  C6_9 
REMARK    4  A    between atoms: C10_13  and  N2_14 
REMARK       I    between atoms: N2_14  and  C11_15 
REMARK       I    between atoms: C11_15  and  N3_17 
REMARK    5  A    between atoms: N3_17  and  C12_18 
REMARK    6  A    between atoms: C15_21  and  O4_22 
ROOT
HETATM    1  C6  UNL     1      24.833   7.690  49.897  1.00  0.00     0.081 A 
HETATM    2  C7  UNL     1      23.572   7.438  49.335  1.00  0.00     0.037 A 
HETATM    3  C8  UNL     1      23.166   6.181  48.991  1.00  0.00     0.005 A 
HETATM    4  C9  UNL     1      24.024   5.147  49.206  1.00  0.00     0.030 A 
HETATM    5  C10 UNL     1      25.276   5.289  49.751  1.00  0.00     0.039 A 
HETATM    6  C19 UNL     1      25.645   6.571  50.083  1.00  0.00     0.066 A 
ENDROOT
BRANCH   1   7
HETATM    7  O2  UNL     1      25.411   8.879  50.306  1.00  0.00    -0.278 OA
BRANCH   7   8
HETATM    8  C5  UNL     1      26.678   9.282  49.955  1.00  0.00     0.248 C 
HETATM    9  N1  UNL     1      28.041   8.794  50.338  1.00  0.00    -0.351 N 
HETATM   10  C4  UNL     1      28.687   8.807  49.104  1.00  0.00     0.153 C 
HETATM   11  H7  UNL     1      27.977   8.641  51.355  1.00  0.00     0.163 HD
HETATM   12  C3  UNL     1      30.092   8.534  48.879  1.00  0.00     0.029 C 
HETATM   13  C2  UNL     1      30.829   9.590  48.458  1.00  0.00     0.065 C 
HETATM   14  C23 UNL     1      30.604  11.024  48.226  1.00  0.00     0.034 C 
HETATM   15  C22 UNL     1      29.760  12.072  48.329  1.00  0.00    -0.003 C 
HETATM   16  C21 UNL     1      28.437  12.054  48.906  1.00  0.00     0.177 C 
HETATM   17  N5  UNL     1      27.279  12.087  48.081  1.00  0.00    -0.279 NA
HETATM   18  C20 UNL     1      26.338  11.155  48.418  1.00  0.00     0.231 C 
HETATM   19  N4  UNL     1      25.996  10.113  49.280  1.00  0.00    -0.202 NA
BRANCH  13  20
HETATM   20  O1  UNL     1      32.099   9.065  48.272  1.00  0.00    -0.356 OA
HETATM   21  C1  UNL     1      32.542   7.923  48.969  1.00  0.00     0.210 C 
ENDBRANCH  13  20
ENDBRANCH   7   8
ENDBRANCH   1   7
BRANCH   5  22
HETATM   22  N2  UNL     1      26.168   4.223  50.000  1.00  0.00    -0.309 N 
HETATM   23  C11 UNL     1      26.120   3.259  51.030  1.00  0.00     0.325 C 
HETATM   24  O3  UNL     1      25.181   3.272  51.855  1.00  0.00    -0.247 OA
HETATM   25  N3  UNL     1      27.059   2.223  51.260  1.00  0.00    -0.309 N 
HETATM   26  H12 UNL     1      27.876   2.152  50.608  1.00  0.00     0.170 HD
HETATM   27  H11 UNL     1      26.984   4.070  49.389  1.00  0.00     0.170 HD
BRANCH  25  28
HETATM   28  C12 UNL     1      26.625   1.476  52.412  1.00  0.00     0.036 A 
HETATM   29  C13 UNL     1      25.980   0.300  52.032  1.00  0.00     0.032 A 
HETATM   30  C14 UNL     1      25.483  -0.548  53.025  1.00  0.00     0.039 A 
HETATM   31  C15 UNL     1      25.622  -0.239  54.374  1.00  0.00     0.068 A 
HETATM   32  C17 UNL     1      26.256   0.915  54.692  1.00  0.00     0.039 A 
HETATM   33  C18 UNL     1      26.753   1.766  53.749  1.00  0.00     0.032 A 
BRANCH  31  34
HETATM   34  O4  UNL     1      25.096  -1.152  55.238  1.00  0.00    -0.356 OA
HETATM   35  C16 UNL     1      23.715  -1.316  55.382  1.00  0.00     0.210 C 
ENDBRANCH  31  34
ENDBRANCH  25  28
ENDBRANCH   5  22
TORSDOF 6
ENDMDL
