MODEL 1
REMARK VINA RESULT:      -7.1      0.000      0.000
REMARK  5 active torsions:
REMARK  status: ('A' for Active; 'I' for Inactive)
REMARK    1  A    between atoms: C7_8  and  C8_9 
REMARK    2  A    between atoms: C7_8  and  C9_12 
REMARK    3  A    between atoms: C8_9  and  O2_11 
REMARK    4  A    between atoms: C11_15  and  O4_16 
REMARK    5  A    between atoms: C14_19  and  O5_20 
ROOT
HETATM    1  C1  UNL     1      29.772  -0.192  53.662  1.00  0.00     0.039 C 
HETATM    2  C2  UNL     1      28.506  -0.862  53.827  1.00  0.00     0.130 C 
HETATM    3  N1  UNL     1      27.634  -0.080  54.953  1.00  0.00    -0.400 N 
HETATM    4  C3  UNL     1      26.108   0.114  55.189  1.00  0.00     0.062 A 
HETATM    5  C4  UNL     1      26.148   1.216  54.264  1.00  0.00     0.033 A 
HETATM    6  C5  UNL     1      25.254   1.871  53.334  1.00  0.00     0.054 A 
HETATM    7  C6  UNL     1      24.441   2.535  52.431  1.00  0.00     0.118 A 
HETATM    8  C7  UNL     1      24.276   1.412  53.367  1.00  0.00     0.093 A 
HETATM    9  C9  UNL     1      25.175   0.760  54.275  1.00  0.00     0.046 A 
HETATM   10  O3  UNL     1      25.140   3.633  51.684  1.00  0.00    -0.369 OA
HETATM   11  C10 UNL     1      25.908   2.868  50.465  1.00  0.00     0.233 C 
HETATM   12  C11 UNL     1      26.665   1.899  51.269  1.00  0.00     0.067 C 
HETATM   13  C12 UNL     1      26.570   0.544  51.248  1.00  0.00     0.036 C 
HETATM   14  C13 UNL     1      27.521   0.224  52.362  1.00  0.00     0.036 C 
HETATM   15  C14 UNL     1      27.581  -1.047  52.723  1.00  0.00     0.065 C 
HETATM   16  H5  UNL     1      28.100   0.435  55.768  1.00  0.00     0.154 HD
ENDROOT
BRANCH   8  17
HETATM   17  C8  UNL     1      22.901   1.029  53.186  1.00  0.00     0.152 C 
HETATM   18  O1  UNL     1      23.146  -0.146  52.811  1.00  0.00    -0.649 OA
BRANCH  17  19
HETATM   19  O2  UNL     1      21.525   1.022  53.129  1.00  0.00    -0.776 OA
HETATM   20  H8  UNL     1      21.119   1.235  52.206  1.00  0.00     0.167 HD
ENDBRANCH  17  19
ENDBRANCH   8  17
BRANCH  12  21
HETATM   21  O4  UNL     1      27.550   2.747  52.033  1.00  0.00    -0.363 OA
HETATM   22  H12 UNL     1      28.169   3.402  51.674  1.00  0.00     0.217 HD
ENDBRANCH  12  21
BRANCH  15  23
HETATM   23  O5  UNL     1      26.908  -2.083  52.117  1.00  0.00    -0.363 OA
HETATM   24  H15 UNL     1      27.251  -2.740  51.446  1.00  0.00     0.217 HD
ENDBRANCH  15  23
TORSDOF 5
ENDMDL
MODEL 2
REMARK VINA RESULT:      -6.9      2.678      4.901
REMARK  5 active torsions:
REMARK  status: ('A' for Active; 'I' for Inactive)
REMARK    1  A    between atoms: C7_8  and  C8_9 
REMARK    2  A    between atoms: C7_8  and  C9_12 
REMARK    3  A    between atoms: C8_9  and  O2_11 
REMARK    4  A    between atoms: C11_15  and  O4_16 
REMARK    5  A    between atoms: C14_19  and  O5_20 
ROOT
HETATM    1  C1  UNL     1      25.116   4.397  49.695  1.00  0.00     0.039 C 
HETATM    2  C2  UNL     1      23.854   4.365  50.390  1.00  0.00     0.130 C 
HETATM    3  N1  UNL     1      23.008   3.069  49.894  1.00  0.00    -0.400 N 
HETATM    4  C3  UNL     1      21.946   2.153  50.570  1.00  0.00     0.062 A 
HETATM    5  C4  UNL     1      23.027   1.394  51.143  1.00  0.00     0.033 A 
HETATM    6  C5  UNL     1      23.269   0.595  52.324  1.00  0.00     0.054 A 
HETATM    7  C6  UNL     1      23.556  -0.181  53.435  1.00  0.00     0.118 A 
HETATM    8  C7  UNL     1      22.376   0.537  52.929  1.00  0.00     0.093 A 
HETATM    9  C9  UNL     1      22.150   1.341  51.762  1.00  0.00     0.046 A 
HETATM   10  O3  UNL     1      24.975  -0.668  53.480  1.00  0.00    -0.369 OA
HETATM   11  C10 UNL     1      25.812   0.583  54.109  1.00  0.00     0.233 C 
HETATM   12  C11 UNL     1      25.397   1.616  53.151  1.00  0.00     0.067 C 
HETATM   13  C12 UNL     1      24.695   2.751  53.402  1.00  0.00     0.036 C 
HETATM   14  C13 UNL     1      24.546   3.251  51.996  1.00  0.00     0.036 C 
HETATM   15  C14 UNL     1      23.771   4.312  51.839  1.00  0.00     0.065 C 
HETATM   16  H5  UNL     1      23.106   2.679  48.902  1.00  0.00     0.154 HD
ENDROOT
BRANCH   8  17
HETATM   17  C8  UNL     1      21.374   0.272  53.927  1.00  0.00     0.152 C 
HETATM   18  O1  UNL     1      20.655  -0.453  53.193  1.00  0.00    -0.649 OA
BRANCH  17  19
HETATM   19  O2  UNL     1      20.642   0.241  55.094  1.00  0.00    -0.776 OA
HETATM   20  H8  UNL     1      20.577  -0.681  55.551  1.00  0.00     0.167 HD
ENDBRANCH  17  19
ENDBRANCH   8  17
BRANCH  12  21
HETATM   21  O4  UNL     1      25.965   1.141  51.910  1.00  0.00    -0.363 OA
HETATM   22  H12 UNL     1      26.907   1.110  51.685  1.00  0.00     0.217 HD
ENDBRANCH  12  21
BRANCH  15  23
HETATM   23  O5  UNL     1      23.166   5.017  52.854  1.00  0.00    -0.363 OA
HETATM   24  H15 UNL     1      22.380   4.752  53.412  1.00  0.00     0.217 HD
ENDBRANCH  15  23
TORSDOF 5
ENDMDL
MODEL 3
REMARK VINA RESULT:      -6.6      2.919      5.326
REMARK  5 active torsions:
REMARK  status: ('A' for Active; 'I' for Inactive)
REMARK    1  A    between atoms: C7_8  and  C8_9 
REMARK    2  A    between atoms: C7_8  and  C9_12 
REMARK    3  A    between atoms: C8_9  and  O2_11 
REMARK    4  A    between atoms: C11_15  and  O4_16 
REMARK    5  A    between atoms: C14_19  and  O5_20 
ROOT
HETATM    1  C1  UNL     1      20.592   3.227  50.720  1.00  0.00     0.039 C 
HETATM    2  C2  UNL     1      21.293   3.232  51.980  1.00  0.00     0.130 C 
HETATM    3  N1  UNL     1      21.989   1.781  52.205  1.00  0.00    -0.400 N 
HETATM    4  C3  UNL     1      23.267   1.306  52.958  1.00  0.00     0.062 A 
HETATM    5  C4  UNL     1      24.031   1.639  51.784  1.00  0.00     0.033 A 
HETATM    6  C5  UNL     1      25.375   2.066  51.464  1.00  0.00     0.054 A 
HETATM    7  C6  UNL     1      26.647   2.474  51.100  1.00  0.00     0.118 A 
HETATM    8  C7  UNL     1      25.974   2.127  52.360  1.00  0.00     0.093 A 
HETATM    9  C9  UNL     1      24.634   1.718  52.669  1.00  0.00     0.046 A 
HETATM   10  O3  UNL     1      26.802   2.728  49.628  1.00  0.00    -0.369 OA
HETATM   11  C10 UNL     1      26.230   4.241  49.417  1.00  0.00     0.233 C 
HETATM   12  C11 UNL     1      24.903   4.050  50.016  1.00  0.00     0.067 C 
HETATM   13  C12 UNL     1      24.388   4.663  51.113  1.00  0.00     0.036 C 
HETATM   14  C13 UNL     1      23.083   3.930  51.202  1.00  0.00     0.036 C 
HETATM   15  C14 UNL     1      22.349   4.185  52.273  1.00  0.00     0.065 C 
HETATM   16  H5  UNL     1      21.559   0.883  51.813  1.00  0.00     0.154 HD
ENDROOT
BRANCH   8  17
HETATM   17  C8  UNL     1      27.008   2.297  53.346  1.00  0.00     0.152 C 
HETATM   18  O1  UNL     1      27.057   1.088  53.687  1.00  0.00    -0.649 OA
BRANCH  17  19
HETATM   19  O2  UNL     1      27.973   2.824  54.177  1.00  0.00    -0.776 OA
HETATM   20  H8  UNL     1      28.347   2.177  54.887  1.00  0.00     0.167 HD
ENDBRANCH  17  19
ENDBRANCH   8  17
BRANCH  12  21
HETATM   21  O4  UNL     1      24.287   3.097  49.121  1.00  0.00    -0.363 OA
HETATM   22  H12 UNL     1      24.638   2.225  48.883  1.00  0.00     0.217 HD
ENDBRANCH  12  21
BRANCH  15  23
HETATM   23  O5  UNL     1      22.652   5.106  53.248  1.00  0.00    -0.363 OA
HETATM   24  H15 UNL     1      23.020   6.029  53.139  1.00  0.00     0.217 HD
ENDBRANCH  15  23
TORSDOF 5
ENDMDL
MODEL 4
REMARK VINA RESULT:      -6.5      8.127     10.270
REMARK  5 active torsions:
REMARK  status: ('A' for Active; 'I' for Inactive)
REMARK    1  A    between atoms: C7_8  and  C8_9 
REMARK    2  A    between atoms: C7_8  and  C9_12 
REMARK    3  A    between atoms: C8_9  and  O2_11 
REMARK    4  A    between atoms: C11_15  and  O4_16 
REMARK    5  A    between atoms: C14_19  and  O5_20 
ROOT
HETATM    1  C1  UNL     1      25.634  10.531  48.233  1.00  0.00     0.039 C 
HETATM    2  C2  UNL     1      26.064   9.449  49.083  1.00  0.00     0.130 C 
HETATM    3  N1  UNL     1      26.220   8.101  48.189  1.00  0.00    -0.400 N 
HETATM    4  C3  UNL     1      27.129   6.841  48.291  1.00  0.00     0.062 A 
HETATM    5  C4  UNL     1      28.156   7.578  47.602  1.00  0.00     0.033 A 
HETATM    6  C5  UNL     1      29.601   7.604  47.540  1.00  0.00     0.054 A 
HETATM    7  C6  UNL     1      30.980   7.673  47.441  1.00  0.00     0.118 A 
HETATM    8  C7  UNL     1      30.019   6.838  48.176  1.00  0.00     0.093 A 
HETATM    9  C9  UNL     1      28.585   6.829  48.241  1.00  0.00     0.046 A 
HETATM   10  O3  UNL     1      31.467   8.768  46.537  1.00  0.00    -0.369 OA
HETATM   11  C10 UNL     1      31.444  10.104  47.473  1.00  0.00     0.233 C 
HETATM   12  C11 UNL     1      30.039  10.041  47.896  1.00  0.00     0.067 C 
HETATM   13  C12 UNL     1      29.554   9.891  49.156  1.00  0.00     0.036 C 
HETATM   14  C13 UNL     1      28.092   9.804  48.836  1.00  0.00     0.036 C 
HETATM   15  C14 UNL     1      27.295   9.513  49.852  1.00  0.00     0.065 C 
HETATM   16  H5  UNL     1      25.609   7.922  47.329  1.00  0.00     0.154 HD
ENDROOT
BRANCH   8  17
HETATM   17  C8  UNL     1      30.860   5.931  48.911  1.00  0.00     0.152 C 
HETATM   18  O1  UNL     1      30.618   4.927  48.195  1.00  0.00    -0.649 OA
BRANCH  17  19
HETATM   19  O2  UNL     1      31.731   5.377  49.824  1.00  0.00    -0.776 OA
HETATM   20  H8  UNL     1      32.694   5.232  49.486  1.00  0.00     0.167 HD
ENDBRANCH  17  19
ENDBRANCH   8  17
BRANCH  12  21
HETATM   21  O4  UNL     1      29.327  10.226  46.652  1.00  0.00    -0.363 OA
HETATM   22  H12 UNL     1      29.663  10.029  45.764  1.00  0.00     0.217 HD
ENDBRANCH  12  21
BRANCH  15  23
HETATM   23  O5  UNL     1      27.691   9.363  51.160  1.00  0.00    -0.363 OA
HETATM   24  H15 UNL     1      28.572   9.044  51.511  1.00  0.00     0.217 HD
ENDBRANCH  15  23
TORSDOF 5
ENDMDL
MODEL 5
REMARK VINA RESULT:      -6.4      2.622      5.675
REMARK  5 active torsions:
REMARK  status: ('A' for Active; 'I' for Inactive)
REMARK    1  A    between atoms: C7_8  and  C8_9 
REMARK    2  A    between atoms: C7_8  and  C9_12 
REMARK    3  A    between atoms: C8_9  and  O2_11 
REMARK    4  A    between atoms: C11_15  and  O4_16 
REMARK    5  A    between atoms: C14_19  and  O5_20 
ROOT
HETATM    1  C1  UNL     1      20.463   3.740  51.703  1.00  0.00     0.039 C 
HETATM    2  C2  UNL     1      21.685   3.332  51.057  1.00  0.00     0.130 C 
HETATM    3  N1  UNL     1      22.938   3.656  52.040  1.00  0.00    -0.400 N 
HETATM    4  C3  UNL     1      24.338   3.007  52.249  1.00  0.00     0.062 A 
HETATM    5  C4  UNL     1      23.717   2.056  53.135  1.00  0.00     0.033 A 
HETATM    6  C5  UNL     1      23.930   0.692  53.563  1.00  0.00     0.054 A 
HETATM    7  C6  UNL     1      24.086  -0.610  54.009  1.00  0.00     0.118 A 
HETATM    8  C7  UNL     1      24.819   0.287  53.102  1.00  0.00     0.093 A 
HETATM    9  C9  UNL     1      24.591   1.636  52.672  1.00  0.00     0.046 A 
HETATM   10  O3  UNL     1      23.000  -1.064  54.941  1.00  0.00    -0.369 OA
HETATM   11  C10 UNL     1      21.786  -1.523  53.953  1.00  0.00     0.233 C 
HETATM   12  C11 UNL     1      21.654  -0.276  53.188  1.00  0.00     0.067 C 
HETATM   13  C12 UNL     1      21.851  -0.090  51.857  1.00  0.00     0.036 C 
HETATM   14  C13 UNL     1      21.655   1.395  51.795  1.00  0.00     0.036 C 
HETATM   15  C14 UNL     1      21.912   1.963  50.628  1.00  0.00     0.065 C 
HETATM   16  H5  UNL     1      22.919   4.480  52.723  1.00  0.00     0.154 HD
ENDROOT
BRANCH   8  17
HETATM   17  C8  UNL     1      25.927  -0.519  52.663  1.00  0.00     0.152 C 
HETATM   18  O1  UNL     1      26.818   0.197  53.187  1.00  0.00    -0.649 OA
BRANCH  17  19
HETATM   19  O2  UNL     1      26.708  -1.498  52.089  1.00  0.00    -0.776 OA
HETATM   20  H8  UNL     1      27.679  -1.548  52.430  1.00  0.00     0.167 HD
ENDBRANCH  17  19
ENDBRANCH   8  17
BRANCH  12  21
HETATM   21  O4  UNL     1      21.221   0.667  54.194  1.00  0.00    -0.363 OA
HETATM   22  H12 UNL     1      20.862   1.553  54.032  1.00  0.00     0.217 HD
ENDBRANCH  12  21
BRANCH  15  23
HETATM   23  O5  UNL     1      22.265   1.299  49.476  1.00  0.00    -0.363 OA
HETATM   24  H15 UNL     1      21.825   1.335  48.578  1.00  0.00     0.217 HD
ENDBRANCH  15  23
TORSDOF 5
ENDMDL
MODEL 6
REMARK VINA RESULT:      -6.3      3.358      5.501
REMARK  5 active torsions:
REMARK  status: ('A' for Active; 'I' for Inactive)
REMARK    1  A    between atoms: C7_8  and  C8_9 
REMARK    2  A    between atoms: C7_8  and  C9_12 
REMARK    3  A    between atoms: C8_9  and  O2_11 
REMARK    4  A    between atoms: C11_15  and  O4_16 
REMARK    5  A    between atoms: C14_19  and  O5_20 
ROOT
HETATM    1  C1  UNL     1      23.483   7.270  50.296  1.00  0.00     0.039 C 
HETATM    2  C2  UNL     1      24.411   6.426  51.007  1.00  0.00     0.130 C 
HETATM    3  N1  UNL     1      23.684   5.841  52.337  1.00  0.00    -0.400 N 
HETATM    4  C3  UNL     1      23.843   4.530  53.162  1.00  0.00     0.062 A 
HETATM    5  C4  UNL     1      22.955   3.885  52.230  1.00  0.00     0.033 A 
HETATM    6  C5  UNL     1      22.730   2.556  51.706  1.00  0.00     0.054 A 
HETATM    7  C6  UNL     1      22.470   1.305  51.171  1.00  0.00     0.118 A 
HETATM    8  C7  UNL     1      23.408   1.851  52.164  1.00  0.00     0.093 A 
HETATM    9  C9  UNL     1      23.633   3.176  52.667  1.00  0.00     0.046 A 
HETATM   10  O3  UNL     1      21.386   1.306  50.133  1.00  0.00    -0.369 OA
HETATM   11  C10 UNL     1      22.140   1.761  48.761  1.00  0.00     0.233 C 
HETATM   12  C11 UNL     1      22.722   3.019  49.247  1.00  0.00     0.067 C 
HETATM   13  C12 UNL     1      24.037   3.342  49.357  1.00  0.00     0.036 C 
HETATM   14  C13 UNL     1      23.896   4.687  50.004  1.00  0.00     0.036 C 
HETATM   15  C14 UNL     1      25.023   5.262  50.392  1.00  0.00     0.065 C 
HETATM   16  H5  UNL     1      22.927   6.393  52.855  1.00  0.00     0.154 HD
ENDROOT
BRANCH   8  17
HETATM   17  C8  UNL     1      24.154   0.695  52.586  1.00  0.00     0.152 C 
HETATM   18  O1  UNL     1      25.216   1.006  51.990  1.00  0.00    -0.649 OA
BRANCH  17  19
HETATM   19  O2  UNL     1      24.538  -0.494  53.167  1.00  0.00    -0.776 OA
HETATM   20  H8  UNL     1      25.229  -0.412  53.928  1.00  0.00     0.167 HD
ENDBRANCH  17  19
ENDBRANCH   8  17
BRANCH  12  21
HETATM   21  O4  UNL     1      21.552   3.820  49.526  1.00  0.00    -0.363 OA
HETATM   22  H12 UNL     1      21.545   4.757  49.775  1.00  0.00     0.217 HD
ENDBRANCH  12  21
BRANCH  15  23
HETATM   23  O5  UNL     1      26.288   4.763  50.183  1.00  0.00    -0.363 OA
HETATM   24  H15 UNL     1      26.915   4.955  49.428  1.00  0.00     0.217 HD
ENDBRANCH  15  23
TORSDOF 5
ENDMDL
MODEL 7
REMARK VINA RESULT:      -6.3      8.681     11.401
REMARK  5 active torsions:
REMARK  status: ('A' for Active; 'I' for Inactive)
REMARK    1  A    between atoms: C7_8  and  C8_9 
REMARK    2  A    between atoms: C7_8  and  C9_12 
REMARK    3  A    between atoms: C8_9  and  O2_11 
REMARK    4  A    between atoms: C11_15  and  O4_16 
REMARK    5  A    between atoms: C14_19  and  O5_20 
ROOT
HETATM    1  C1  UNL     1      28.566   6.242  48.451  1.00  0.00     0.039 C 
HETATM    2  C2  UNL     1      29.287   7.326  47.834  1.00  0.00     0.130 C 
HETATM    3  N1  UNL     1      30.196   8.068  48.959  1.00  0.00    -0.400 N 
HETATM    4  C3  UNL     1      31.547   8.840  48.913  1.00  0.00     0.062 A 
HETATM    5  C4  UNL     1      32.226   7.574  49.007  1.00  0.00     0.033 A 
HETATM    6  C5  UNL     1      33.484   6.997  48.588  1.00  0.00     0.054 A 
HETATM    7  C6  UNL     1      34.673   6.395  48.213  1.00  0.00     0.118 A 
HETATM    8  C7  UNL     1      34.088   7.738  48.083  1.00  0.00     0.093 A 
HETATM    9  C9  UNL     1      32.831   8.296  48.490  1.00  0.00     0.046 A 
HETATM   10  O3  UNL     1      34.754   4.941  48.578  1.00  0.00    -0.369 OA
HETATM   11  C10 UNL     1      33.960   4.177  47.376  1.00  0.00     0.233 C 
HETATM   12  C11 UNL     1      32.690   4.909  47.464  1.00  0.00     0.067 C 
HETATM   13  C12 UNL     1      32.115   5.698  46.519  1.00  0.00     0.036 C 
HETATM   14  C13 UNL     1      30.936   6.186  47.306  1.00  0.00     0.036 C 
HETATM   15  C14 UNL     1      30.197   7.115  46.721  1.00  0.00     0.065 C 
HETATM   16  H5  UNL     1      29.895   8.114  49.985  1.00  0.00     0.154 HD
ENDROOT
BRANCH   8  17
HETATM   17  C8  UNL     1      35.108   8.478  47.390  1.00  0.00     0.152 C 
HETATM   18  O1  UNL     1      35.631   8.969  48.423  1.00  0.00    -0.649 OA
BRANCH  17  19
HETATM   19  O2  UNL     1      35.916   9.032  46.421  1.00  0.00    -0.776 OA
HETATM   20  H8  UNL     1      35.441   9.657  45.752  1.00  0.00     0.167 HD
ENDBRANCH  17  19
ENDBRANCH   8  17
BRANCH  12  21
HETATM   21  O4  UNL     1      32.201   4.537  48.772  1.00  0.00    -0.363 OA
HETATM   22  H12 UNL     1      32.294   5.054  49.587  1.00  0.00     0.217 HD
ENDBRANCH  12  21
BRANCH  15  23
HETATM   23  O5  UNL     1      30.382   7.600  45.448  1.00  0.00    -0.363 OA
HETATM   24  H15 UNL     1      30.555   7.087  44.606  1.00  0.00     0.217 HD
ENDBRANCH  15  23
TORSDOF 5
ENDMDL
MODEL 8
REMARK VINA RESULT:      -6.1      4.890      7.171
REMARK  5 active torsions:
REMARK  status: ('A' for Active; 'I' for Inactive)
REMARK    1  A    between atoms: C7_8  and  C8_9 
REMARK    2  A    between atoms: C7_8  and  C9_12 
REMARK    3  A    between atoms: C8_9  and  O2_11 
REMARK    4  A    between atoms: C11_15  and  O4_16 
REMARK    5  A    between atoms: C14_19  and  O5_20 
ROOT
HETATM    1  C1  UNL     1      20.982   3.616  51.922  1.00  0.00     0.039 C 
HETATM    2  C2  UNL     1      22.406   3.664  52.143  1.00  0.00     0.130 C 
HETATM    3  N1  UNL     1      23.162   2.957  50.890  1.00  0.00    -0.400 N 
HETATM    4  C3  UNL     1      24.552   3.158  50.218  1.00  0.00     0.062 A 
HETATM    5  C4  UNL     1      23.975   4.223  49.441  1.00  0.00     0.033 A 
HETATM    6  C5  UNL     1      24.410   5.451  48.814  1.00  0.00     0.054 A 
HETATM    7  C6  UNL     1      24.771   6.636  48.194  1.00  0.00     0.118 A 
HETATM    8  C7  UNL     1      25.472   5.589  48.953  1.00  0.00     0.093 A 
HETATM    9  C9  UNL     1      25.028   4.380  49.584  1.00  0.00     0.046 A 
HETATM   10  O3  UNL     1      23.620   7.362  47.561  1.00  0.00    -0.369 OA
HETATM   11  C10 UNL     1      22.937   8.187  48.792  1.00  0.00     0.233 C 
HETATM   12  C11 UNL     1      22.711   7.058  49.703  1.00  0.00     0.067 C 
HETATM   13  C12 UNL     1      23.246   6.861  50.936  1.00  0.00     0.036 C 
HETATM   14  C13 UNL     1      22.682   5.502  51.223  1.00  0.00     0.036 C 
HETATM   15  C14 UNL     1      23.117   4.917  52.327  1.00  0.00     0.065 C 
HETATM   16  H5  UNL     1      22.712   2.155  50.341  1.00  0.00     0.154 HD
ENDROOT
BRANCH   8  17
HETATM   17  C8  UNL     1      26.837   6.045  48.963  1.00  0.00     0.152 C 
HETATM   18  O1  UNL     1      27.325   4.988  48.489  1.00  0.00    -0.649 OA
BRANCH  17  19
HETATM   19  O2  UNL     1      27.982   6.796  49.116  1.00  0.00    -0.776 OA
HETATM   20  H8  UNL     1      27.936   7.530  49.839  1.00  0.00     0.167 HD
ENDBRANCH  17  19
ENDBRANCH   8  17
BRANCH  12  21
HETATM   21  O4  UNL     1      21.752   6.255  48.978  1.00  0.00    -0.363 OA
HETATM   22  H12 UNL     1      21.388   6.451  48.101  1.00  0.00     0.217 HD
ENDBRANCH  12  21
BRANCH  15  23
HETATM   23  O5  UNL     1      23.971   5.481  53.246  1.00  0.00    -0.363 OA
HETATM   24  H15 UNL     1      24.489   5.029  53.973  1.00  0.00     0.217 HD
ENDBRANCH  15  23
TORSDOF 5
ENDMDL
MODEL 9
REMARK VINA RESULT:      -6.0      9.138     11.300
REMARK  5 active torsions:
REMARK  status: ('A' for Active; 'I' for Inactive)
REMARK    1  A    between atoms: C7_8  and  C8_9 
REMARK    2  A    between atoms: C7_8  and  C9_12 
REMARK    3  A    between atoms: C8_9  and  O2_11 
REMARK    4  A    between atoms: C11_15  and  O4_16 
REMARK    5  A    between atoms: C14_19  and  O5_20 
ROOT
HETATM    1  C1  UNL     1      34.256   9.362  44.321  1.00  0.00     0.039 C 
HETATM    2  C2  UNL     1      34.274   8.068  44.958  1.00  0.00     0.130 C 
HETATM    3  N1  UNL     1      34.887   8.222  46.454  1.00  0.00    -0.400 N 
HETATM    4  C3  UNL     1      34.669   7.454  47.791  1.00  0.00     0.062 A 
HETATM    5  C4  UNL     1      33.519   8.284  48.033  1.00  0.00     0.033 A 
HETATM    6  C5  UNL     1      32.252   8.189  48.724  1.00  0.00     0.054 A 
HETATM    7  C6  UNL     1      31.028   8.154  49.371  1.00  0.00     0.118 A 
HETATM    8  C7  UNL     1      32.162   7.231  49.214  1.00  0.00     0.093 A 
HETATM    9  C9  UNL     1      33.410   7.329  48.512  1.00  0.00     0.046 A 
HETATM   10  O3  UNL     1      30.210   9.398  49.182  1.00  0.00    -0.369 OA
HETATM   11  C10 UNL     1      29.480   9.188  47.739  1.00  0.00     0.233 C 
HETATM   12  C11 UNL     1      30.681   8.942  46.929  1.00  0.00     0.067 C 
HETATM   13  C12 UNL     1      31.009   7.817  46.243  1.00  0.00     0.036 C 
HETATM   14  C13 UNL     1      32.369   8.222  45.761  1.00  0.00     0.036 C 
HETATM   15  C14 UNL     1      33.067   7.282  45.144  1.00  0.00     0.065 C 
HETATM   16  H5  UNL     1      35.619   8.967  46.689  1.00  0.00     0.154 HD
ENDROOT
BRANCH   8  17
HETATM   17  C8  UNL     1      31.754   6.074  49.965  1.00  0.00     0.152 C 
HETATM   18  O1  UNL     1      31.686   5.300  48.977  1.00  0.00    -0.649 OA
BRANCH  17  19
HETATM   19  O2  UNL     1      31.388   5.212  50.976  1.00  0.00    -0.776 OA
HETATM   20  H8  UNL     1      31.865   5.359  51.878  1.00  0.00     0.167 HD
ENDBRANCH  17  19
ENDBRANCH   8  17
BRANCH  12  21
HETATM   21  O4  UNL     1      31.382  10.203  47.015  1.00  0.00    -0.363 OA
HETATM   22  H12 UNL     1      31.038  11.025  47.399  1.00  0.00     0.217 HD
ENDBRANCH  12  21
BRANCH  15  23
HETATM   23  O5  UNL     1      32.618   6.015  44.854  1.00  0.00    -0.363 OA
HETATM   24  H15 UNL     1      32.978   5.139  45.175  1.00  0.00     0.217 HD
ENDBRANCH  15  23
TORSDOF 5
ENDMDL
