MODEL 1
REMARK VINA RESULT:      -8.9      0.000      0.000
REMARK  6 active torsions:
REMARK  status: ('A' for Active; 'I' for Inactive)
REMARK    1  A    between atoms: C5_5  and  C6_6 
REMARK       I    between atoms: C6_6  and  N1_8 
REMARK    2  A    between atoms: N1_8  and  C7_9 
REMARK    3  A    between atoms: C8_10  and  N2_11 
REMARK    4  A    between atoms: C8_10  and  C18_24 
REMARK    5  A    between atoms: N2_11  and  C9_12 
REMARK    6  A    between atoms: C12_16  and  C13_17 
ROOT
HETATM    1  C7  UNL     1      23.825   2.559  49.865  1.00  0.00     0.122 C 
HETATM    2  C8  UNL     1      23.085   2.622  50.958  1.00  0.00     0.071 C 
ENDROOT
BRANCH   2   3
HETATM    3  N2  UNL     1      22.477   1.375  51.357  1.00  0.00    -0.186 N 
HETATM    4  H7  UNL     1      21.663   0.878  50.932  1.00  0.00     0.184 HD
BRANCH   3   5
HETATM    5  C9  UNL     1      22.921   0.594  52.445  1.00  0.00     0.727 A 
HETATM    6  N3  UNL     1      22.176  -0.084  53.324  1.00  0.00    -0.075 NA
HETATM    7  C10 UNL     1      22.621  -0.808  54.345  1.00  0.00     0.139 A 
HETATM    8  C11 UNL     1      23.989  -0.923  54.593  1.00  0.00     0.053 A 
HETATM    9  C12 UNL     1      24.772  -0.230  53.697  1.00  0.00     0.089 A 
HETATM   10  N5  UNL     1      24.225   0.458  52.719  1.00  0.00    -0.062 NA
BRANCH   9  11
HETATM   11  C13 UNL     1      26.215  -0.264  53.843  1.00  0.00     0.011 A 
HETATM   12  C14 UNL     1      27.076  -1.003  53.069  1.00  0.00     0.017 A 
HETATM   13  C15 UNL     1      28.461  -1.008  53.242  1.00  0.00     0.020 A 
HETATM   14  C16 UNL     1      29.013  -0.240  54.234  1.00  0.00     0.116 A 
HETATM   15  N4  UNL     1      28.200   0.485  55.000  1.00  0.00    -0.272 NA
HETATM   16  C17 UNL     1      26.846   0.488  54.828  1.00  0.00     0.130 A 
ENDBRANCH   9  11
ENDBRANCH   3   5
ENDBRANCH   2   3
BRANCH   2  17
HETATM   17  C18 UNL     1      22.853   3.839  51.758  1.00  0.00    -0.029 A 
HETATM   18  C19 UNL     1      22.194   5.006  52.206  1.00  0.00    -0.012 A 
HETATM   19  C20 UNL     1      23.444   4.633  52.823  1.00  0.00     0.068 A 
ENDBRANCH   2  17
BRANCH   1  20
HETATM   20  N1  UNL     1      24.499   3.708  49.337  1.00  0.00    -0.331 N 
HETATM   21  C6  UNL     1      25.900   3.881  49.469  1.00  0.00     0.255 C 
HETATM   22  O1  UNL     1      26.546   2.954  50.086  1.00  0.00    -0.267 OA
HETATM   23  H5  UNL     1      24.111   4.523  48.826  1.00  0.00     0.168 HD
BRANCH  21  24
HETATM   24  C5  UNL     1      26.693   4.997  48.982  1.00  0.00     0.033 A 
HETATM   25  C4  UNL     1      26.209   6.365  48.890  1.00  0.00     0.018 A 
HETATM   26  C3  UNL     1      27.149   7.139  48.413  1.00  0.00     0.011 A 
HETATM   27  C2  UNL     1      28.307   6.298  48.169  1.00  0.00    -0.045 A 
HETATM   28  C1  UNL     1      29.543   6.502  47.688  1.00  0.00     0.023 C 
HETATM   29  C21 UNL     1      27.960   4.928  48.553  1.00  0.00     0.027 A 
ENDBRANCH  21  24
ENDBRANCH   1  20
TORSDOF 6
ENDMDL
MODEL 2
REMARK VINA RESULT:      -8.8      2.131      4.710
REMARK  6 active torsions:
REMARK  status: ('A' for Active; 'I' for Inactive)
REMARK    1  A    between atoms: C5_5  and  C6_6 
REMARK       I    between atoms: C6_6  and  N1_8 
REMARK    2  A    between atoms: N1_8  and  C7_9 
REMARK    3  A    between atoms: C8_10  and  N2_11 
REMARK    4  A    between atoms: C8_10  and  C18_24 
REMARK    5  A    between atoms: N2_11  and  C9_12 
REMARK    6  A    between atoms: C12_16  and  C13_17 
ROOT
HETATM    1  C7  UNL     1      26.357   1.530  51.470  1.00  0.00     0.122 C 
HETATM    2  C8  UNL     1      26.949   0.912  52.477  1.00  0.00     0.071 C 
ENDROOT
BRANCH   2   3
HETATM    3  N2  UNL     1      26.432  -0.402  52.775  1.00  0.00    -0.186 N 
HETATM    4  H7  UNL     1      26.755  -1.329  52.419  1.00  0.00     0.184 HD
BRANCH   3   5
HETATM    5  C9  UNL     1      25.347  -0.644  53.645  1.00  0.00     0.727 A 
HETATM    6  N3  UNL     1      25.395  -1.026  54.926  1.00  0.00    -0.075 NA
HETATM    7  C10 UNL     1      24.356  -1.252  55.722  1.00  0.00     0.139 A 
HETATM    8  C11 UNL     1      23.051  -1.097  55.252  1.00  0.00     0.053 A 
HETATM    9  C12 UNL     1      22.984  -0.704  53.933  1.00  0.00     0.089 A 
HETATM   10  N5  UNL     1      24.080  -0.507  53.234  1.00  0.00    -0.062 NA
BRANCH   9  11
HETATM   11  C13 UNL     1      21.685  -0.508  53.319  1.00  0.00     0.011 A 
HETATM   12  C14 UNL     1      20.480  -0.858  53.877  1.00  0.00     0.017 A 
HETATM   13  C15 UNL     1      19.248  -0.652  53.253  1.00  0.00     0.020 A 
HETATM   14  C16 UNL     1      19.218  -0.069  52.012  1.00  0.00     0.116 A 
HETATM   15  N4  UNL     1      20.373   0.280  51.448  1.00  0.00    -0.272 NA
HETATM   16  C17 UNL     1      21.575   0.077  52.062  1.00  0.00     0.130 A 
ENDBRANCH   9  11
ENDBRANCH   3   5
ENDBRANCH   2   3
BRANCH   2  17
HETATM   17  C18 UNL     1      28.056   1.463  53.280  1.00  0.00    -0.029 A 
HETATM   18  C19 UNL     1      28.959   2.429  53.776  1.00  0.00    -0.012 A 
HETATM   19  C20 UNL     1      29.048   1.076  54.270  1.00  0.00     0.068 A 
ENDBRANCH   2  17
BRANCH   1  20
HETATM   20  N1  UNL     1      26.752   2.841  51.046  1.00  0.00    -0.331 N 
HETATM   21  C6  UNL     1      26.125   3.496  49.956  1.00  0.00     0.255 C 
HETATM   22  O1  UNL     1      25.177   2.860  49.361  1.00  0.00    -0.267 OA
HETATM   23  H5  UNL     1      27.491   3.461  51.425  1.00  0.00     0.168 HD
BRANCH  21  24
HETATM   24  C5  UNL     1      26.437   4.814  49.433  1.00  0.00     0.033 A 
HETATM   25  C4  UNL     1      25.655   6.009  49.706  1.00  0.00     0.018 A 
HETATM   26  C3  UNL     1      26.182   7.038  49.094  1.00  0.00     0.011 A 
HETATM   27  C2  UNL     1      27.351   6.553  48.382  1.00  0.00    -0.045 A 
HETATM   28  C1  UNL     1      28.277   7.111  47.587  1.00  0.00     0.023 C 
HETATM   29  C21 UNL     1      27.470   5.115  48.634  1.00  0.00     0.027 A 
ENDBRANCH  21  24
ENDBRANCH   1  20
TORSDOF 6
ENDMDL
MODEL 3
REMARK VINA RESULT:      -8.8      1.234      2.109
REMARK  6 active torsions:
REMARK  status: ('A' for Active; 'I' for Inactive)
REMARK    1  A    between atoms: C5_5  and  C6_6 
REMARK       I    between atoms: C6_6  and  N1_8 
REMARK    2  A    between atoms: N1_8  and  C7_9 
REMARK    3  A    between atoms: C8_10  and  N2_11 
REMARK    4  A    between atoms: C8_10  and  C18_24 
REMARK    5  A    between atoms: N2_11  and  C9_12 
REMARK    6  A    between atoms: C12_16  and  C13_17 
ROOT
HETATM    1  C7  UNL     1      22.833   3.319  51.794  1.00  0.00     0.122 C 
HETATM    2  C8  UNL     1      22.117   2.315  51.319  1.00  0.00     0.071 C 
ENDROOT
BRANCH   2   3
HETATM    3  N2  UNL     1      21.378   1.570  52.311  1.00  0.00    -0.186 N 
HETATM    4  H7  UNL     1      20.355   1.591  52.518  1.00  0.00     0.184 HD
BRANCH   3   5
HETATM    5  C9  UNL     1      21.964   0.646  53.202  1.00  0.00     0.727 A 
HETATM    6  N3  UNL     1      21.349  -0.125  54.104  1.00  0.00    -0.075 NA
HETATM    7  C10 UNL     1      21.928  -0.984  54.935  1.00  0.00     0.139 A 
HETATM    8  C11 UNL     1      23.312  -1.159  54.929  1.00  0.00     0.053 A 
HETATM    9  C12 UNL     1      23.963  -0.371  54.005  1.00  0.00     0.089 A 
HETATM   10  N5  UNL     1      23.289   0.448  53.228  1.00  0.00    -0.062 NA
BRANCH   9  11
HETATM   11  C13 UNL     1      25.407  -0.454  53.896  1.00  0.00     0.011 A 
HETATM   12  C14 UNL     1      26.095  -0.974  52.828  1.00  0.00     0.017 A 
HETATM   13  C15 UNL     1      27.489  -1.035  52.761  1.00  0.00     0.020 A 
HETATM   14  C16 UNL     1      28.229  -0.554  53.810  1.00  0.00     0.116 A 
HETATM   15  N4  UNL     1      27.586  -0.044  54.858  1.00  0.00    -0.272 NA
HETATM   16  C17 UNL     1      26.223   0.014  54.920  1.00  0.00     0.130 A 
ENDBRANCH   9  11
ENDBRANCH   3   5
ENDBRANCH   2   3
BRANCH   2  17
HETATM   17  C18 UNL     1      22.034   1.926  49.899  1.00  0.00    -0.029 A 
HETATM   18  C19 UNL     1      22.315   1.954  48.516  1.00  0.00    -0.012 A 
HETATM   19  C20 UNL     1      21.364   0.990  49.012  1.00  0.00     0.068 A 
ENDBRANCH   2  17
BRANCH   1  20
HETATM   20  N1  UNL     1      23.622   4.158  50.942  1.00  0.00    -0.331 N 
HETATM   21  C6  UNL     1      24.969   3.848  50.626  1.00  0.00     0.255 C 
HETATM   22  O1  UNL     1      25.456   2.774  51.140  1.00  0.00    -0.267 OA
HETATM   23  H5  UNL     1      23.365   5.042  50.466  1.00  0.00     0.168 HD
BRANCH  21  24
HETATM   24  C5  UNL     1      25.868   4.617  49.782  1.00  0.00     0.033 A 
HETATM   25  C4  UNL     1      27.106   4.100  49.221  1.00  0.00     0.018 A 
HETATM   26  C3  UNL     1      27.694   5.027  48.510  1.00  0.00     0.011 A 
HETATM   27  C2  UNL     1      26.854   6.210  48.576  1.00  0.00    -0.045 A 
HETATM   28  C1  UNL     1      26.924   7.453  48.074  1.00  0.00     0.023 C 
HETATM   29  C21 UNL     1      25.690   5.891  49.407  1.00  0.00     0.027 A 
ENDBRANCH  21  24
ENDBRANCH   1  20
TORSDOF 6
ENDMDL
MODEL 4
REMARK VINA RESULT:      -8.5      1.848      6.827
REMARK  6 active torsions:
REMARK  status: ('A' for Active; 'I' for Inactive)
REMARK    1  A    between atoms: C5_5  and  C6_6 
REMARK       I    between atoms: C6_6  and  N1_8 
REMARK    2  A    between atoms: N1_8  and  C7_9 
REMARK    3  A    between atoms: C8_10  and  N2_11 
REMARK    4  A    between atoms: C8_10  and  C18_24 
REMARK    5  A    between atoms: N2_11  and  C9_12 
REMARK    6  A    between atoms: C12_16  and  C13_17 
ROOT
HETATM    1  C7  UNL     1      24.837   2.771  52.877  1.00  0.00     0.122 C 
HETATM    2  C8  UNL     1      23.550   2.628  52.619  1.00  0.00     0.071 C 
ENDROOT
BRANCH   2   3
HETATM    3  N2  UNL     1      22.862   3.844  52.254  1.00  0.00    -0.186 N 
HETATM    4  H7  UNL     1      22.195   4.414  52.819  1.00  0.00     0.184 HD
BRANCH   3   5
HETATM    5  C9  UNL     1      23.000   4.482  51.002  1.00  0.00     0.727 A 
HETATM    6  N3  UNL     1      22.028   4.879  50.174  1.00  0.00    -0.075 NA
HETATM    7  C10 UNL     1      22.187   5.474  48.997  1.00  0.00     0.139 A 
HETATM    8  C11 UNL     1      23.463   5.748  48.504  1.00  0.00     0.053 A 
HETATM    9  C12 UNL     1      24.477   5.346  49.345  1.00  0.00     0.089 A 
HETATM   10  N5  UNL     1      24.207   4.764  50.493  1.00  0.00    -0.062 NA
BRANCH   9  11
HETATM   11  C13 UNL     1      25.855   5.571  48.951  1.00  0.00     0.011 A 
HETATM   12  C14 UNL     1      26.367   6.759  48.492  1.00  0.00     0.017 A 
HETATM   13  C15 UNL     1      27.702   6.936  48.123  1.00  0.00     0.020 A 
HETATM   14  C16 UNL     1      28.566   5.875  48.216  1.00  0.00     0.116 A 
HETATM   15  N4  UNL     1      28.095   4.711  48.658  1.00  0.00    -0.272 NA
HETATM   16  C17 UNL     1      26.789   4.542  49.018  1.00  0.00     0.130 A 
ENDBRANCH   9  11
ENDBRANCH   3   5
ENDBRANCH   2   3
BRANCH   2  17
HETATM   17  C18 UNL     1      22.806   1.356  52.680  1.00  0.00    -0.029 A 
HETATM   18  C19 UNL     1      22.247   0.143  52.222  1.00  0.00    -0.012 A 
HETATM   19  C20 UNL     1      22.058   0.518  53.602  1.00  0.00     0.068 A 
ENDBRANCH   2  17
BRANCH   1  20
HETATM   20  N1  UNL     1      25.664   1.661  53.252  1.00  0.00    -0.331 N 
HETATM   21  C6  UNL     1      26.980   1.504  52.749  1.00  0.00     0.255 C 
HETATM   22  O1  UNL     1      27.404   2.408  51.936  1.00  0.00    -0.267 OA
HETATM   23  H5  UNL     1      25.455   0.869  53.887  1.00  0.00     0.168 HD
BRANCH  21  24
HETATM   24  C5  UNL     1      27.908   0.428  53.050  1.00  0.00     0.033 A 
HETATM   25  C4  UNL     1      29.250   0.627  53.570  1.00  0.00     0.018 A 
HETATM   26  C3  UNL     1      29.841  -0.528  53.736  1.00  0.00     0.011 A 
HETATM   27  C2  UNL     1      28.895  -1.550  53.324  1.00  0.00    -0.045 A 
HETATM   28  C1  UNL     1      28.917  -2.890  53.254  1.00  0.00     0.023 C 
HETATM   29  C21 UNL     1      27.665  -0.881  52.892  1.00  0.00     0.027 A 
ENDBRANCH  21  24
ENDBRANCH   1  20
TORSDOF 6
ENDMDL
MODEL 5
REMARK VINA RESULT:      -8.0      2.221      7.052
REMARK  6 active torsions:
REMARK  status: ('A' for Active; 'I' for Inactive)
REMARK    1  A    between atoms: C5_5  and  C6_6 
REMARK       I    between atoms: C6_6  and  N1_8 
REMARK    2  A    between atoms: N1_8  and  C7_9 
REMARK    3  A    between atoms: C8_10  and  N2_11 
REMARK    4  A    between atoms: C8_10  and  C18_24 
REMARK    5  A    between atoms: N2_11  and  C9_12 
REMARK    6  A    between atoms: C12_16  and  C13_17 
ROOT
HETATM    1  C7  UNL     1      23.978   2.722  52.586  1.00  0.00     0.122 C 
HETATM    2  C8  UNL     1      22.876   2.901  51.878  1.00  0.00     0.071 C 
ENDROOT
BRANCH   2   3
HETATM    3  N2  UNL     1      22.197   4.153  52.112  1.00  0.00    -0.186 N 
HETATM    4  H7  UNL     1      21.420   4.363  52.776  1.00  0.00     0.184 HD
BRANCH   3   5
HETATM    5  C9  UNL     1      22.504   5.354  51.436  1.00  0.00     0.727 A 
HETATM    6  N3  UNL     1      21.723   6.428  51.280  1.00  0.00    -0.075 NA
HETATM    7  C10 UNL     1      22.037   7.545  50.633  1.00  0.00     0.139 A 
HETATM    8  C11 UNL     1      23.286   7.692  50.029  1.00  0.00     0.053 A 
HETATM    9  C12 UNL     1      24.104   6.594  50.181  1.00  0.00     0.089 A 
HETATM   10  N5  UNL     1      23.691   5.536  50.843  1.00  0.00    -0.062 NA
BRANCH   9  11
HETATM   11  C13 UNL     1      25.432   6.616  49.599  1.00  0.00     0.011 A 
HETATM   12  C14 UNL     1      26.085   5.532  49.066  1.00  0.00     0.017 A 
HETATM   13  C15 UNL     1      27.366   5.594  48.513  1.00  0.00     0.020 A 
HETATM   14  C16 UNL     1      28.026   6.795  48.491  1.00  0.00     0.116 A 
HETATM   15  N4  UNL     1      27.415   7.863  49.002  1.00  0.00    -0.272 NA
HETATM   16  C17 UNL     1      26.163   7.798  49.541  1.00  0.00     0.130 A 
ENDBRANCH   9  11
ENDBRANCH   3   5
ENDBRANCH   2   3
BRANCH   2  17
HETATM   17  C18 UNL     1      22.323   1.937  50.909  1.00  0.00    -0.029 A 
HETATM   18  C19 UNL     1      22.037   1.364  49.650  1.00  0.00    -0.012 A 
HETATM   19  C20 UNL     1      21.544   0.712  50.838  1.00  0.00     0.068 A 
ENDBRANCH   2  17
BRANCH   1  20
HETATM   20  N1  UNL     1      24.769   1.533  52.470  1.00  0.00    -0.331 N 
HETATM   21  C6  UNL     1      25.978   1.366  53.192  1.00  0.00     0.255 C 
HETATM   22  O1  UNL     1      26.336   2.333  53.962  1.00  0.00    -0.267 OA
HETATM   23  H5  UNL     1      24.607   0.686  51.895  1.00  0.00     0.168 HD
BRANCH  21  24
HETATM   24  C5  UNL     1      26.865   0.215  53.156  1.00  0.00     0.033 A 
HETATM   25  C4  UNL     1      26.463  -1.114  52.724  1.00  0.00     0.018 A 
HETATM   26  C3  UNL     1      27.477  -1.936  52.807  1.00  0.00     0.011 A 
HETATM   27  C2  UNL     1      28.605  -1.168  53.306  1.00  0.00    -0.045 A 
HETATM   28  C1  UNL     1      29.883  -1.445  53.604  1.00  0.00     0.023 C 
HETATM   29  C21 UNL     1      28.156   0.211  53.514  1.00  0.00     0.027 A 
ENDBRANCH  21  24
ENDBRANCH   1  20
TORSDOF 6
ENDMDL
MODEL 6
REMARK VINA RESULT:      -8.0      2.731      6.707
REMARK  6 active torsions:
REMARK  status: ('A' for Active; 'I' for Inactive)
REMARK    1  A    between atoms: C5_5  and  C6_6 
REMARK       I    between atoms: C6_6  and  N1_8 
REMARK    2  A    between atoms: N1_8  and  C7_9 
REMARK    3  A    between atoms: C8_10  and  N2_11 
REMARK    4  A    between atoms: C8_10  and  C18_24 
REMARK    5  A    between atoms: N2_11  and  C9_12 
REMARK    6  A    between atoms: C12_16  and  C13_17 
ROOT
HETATM    1  C7  UNL     1      24.455   2.977  52.556  1.00  0.00     0.122 C 
HETATM    2  C8  UNL     1      24.204   3.553  51.394  1.00  0.00     0.071 C 
ENDROOT
BRANCH   2   3
HETATM    3  N2  UNL     1      22.835   3.971  51.204  1.00  0.00    -0.186 N 
HETATM    4  H7  UNL     1      22.368   4.849  51.520  1.00  0.00     0.184 HD
BRANCH   3   5
HETATM    5  C9  UNL     1      21.866   3.206  50.519  1.00  0.00     0.727 A 
HETATM    6  N3  UNL     1      21.541   3.267  49.223  1.00  0.00    -0.075 NA
HETATM    7  C10 UNL     1      20.618   2.538  48.605  1.00  0.00     0.139 A 
HETATM    8  C11 UNL     1      19.871   1.592  49.306  1.00  0.00     0.053 A 
HETATM    9  C12 UNL     1      20.193   1.515  50.643  1.00  0.00     0.089 A 
HETATM   10  N5  UNL     1      21.127   2.287  51.154  1.00  0.00    -0.062 NA
BRANCH   9  11
HETATM   11  C13 UNL     1      19.488   0.571  51.488  1.00  0.00     0.011 A 
HETATM   12  C14 UNL     1      18.224   0.086  51.257  1.00  0.00     0.017 A 
HETATM   13  C15 UNL     1      17.579  -0.825  52.097  1.00  0.00     0.020 A 
HETATM   14  C16 UNL     1      18.227  -1.273  53.218  1.00  0.00     0.116 A 
HETATM   15  N4  UNL     1      19.454  -0.819  53.466  1.00  0.00    -0.272 NA
HETATM   16  C17 UNL     1      20.081   0.071  52.643  1.00  0.00     0.130 A 
ENDBRANCH   9  11
ENDBRANCH   3   5
ENDBRANCH   2   3
BRANCH   2  17
HETATM   17  C18 UNL     1      25.195   3.782  50.327  1.00  0.00    -0.029 A 
HETATM   18  C19 UNL     1      26.290   3.512  49.476  1.00  0.00    -0.012 A 
HETATM   19  C20 UNL     1      25.594   4.768  49.335  1.00  0.00     0.068 A 
ENDBRANCH   2  17
BRANCH   1  20
HETATM   20  N1  UNL     1      25.764   2.506  52.903  1.00  0.00    -0.331 N 
HETATM   21  C6  UNL     1      26.127   1.142  52.775  1.00  0.00     0.255 C 
HETATM   22  O1  UNL     1      25.226   0.338  52.329  1.00  0.00    -0.267 OA
HETATM   23  H5  UNL     1      26.577   3.033  53.271  1.00  0.00     0.168 HD
BRANCH  21  24
HETATM   24  C5  UNL     1      27.414   0.547  53.094  1.00  0.00     0.033 A 
HETATM   25  C4  UNL     1      28.569   1.297  53.559  1.00  0.00     0.018 A 
HETATM   26  C3  UNL     1      29.576   0.487  53.759  1.00  0.00     0.011 A 
HETATM   27  C2  UNL     1      29.116  -0.850  53.428  1.00  0.00    -0.045 A 
HETATM   28  C1  UNL     1      29.675  -2.071  53.420  1.00  0.00     0.023 C 
HETATM   29  C21 UNL     1      27.716  -0.755  53.006  1.00  0.00     0.027 A 
ENDBRANCH  21  24
ENDBRANCH   1  20
TORSDOF 6
ENDMDL
MODEL 7
REMARK VINA RESULT:      -8.0      2.169      6.066
REMARK  6 active torsions:
REMARK  status: ('A' for Active; 'I' for Inactive)
REMARK    1  A    between atoms: C5_5  and  C6_6 
REMARK       I    between atoms: C6_6  and  N1_8 
REMARK    2  A    between atoms: N1_8  and  C7_9 
REMARK    3  A    between atoms: C8_10  and  N2_11 
REMARK    4  A    between atoms: C8_10  and  C18_24 
REMARK    5  A    between atoms: N2_11  and  C9_12 
REMARK    6  A    between atoms: C12_16  and  C13_17 
ROOT
HETATM    1  C7  UNL     1      24.834   3.429  51.238  1.00  0.00     0.122 C 
HETATM    2  C8  UNL     1      24.818   4.120  50.111  1.00  0.00     0.071 C 
ENDROOT
BRANCH   2   3
HETATM    3  N2  UNL     1      23.504   4.374  49.571  1.00  0.00    -0.186 N 
HETATM    4  H7  UNL     1      23.092   5.277  49.248  1.00  0.00     0.184 HD
BRANCH   3   5
HETATM    5  C9  UNL     1      22.521   3.378  49.386  1.00  0.00     0.727 A 
HETATM    6  N3  UNL     1      21.797   3.136  48.289  1.00  0.00    -0.075 NA
HETATM    7  C10 UNL     1      20.872   2.193  48.145  1.00  0.00     0.139 A 
HETATM    8  C11 UNL     1      20.568   1.327  49.196  1.00  0.00     0.053 A 
HETATM    9  C12 UNL     1      21.305   1.563  50.335  1.00  0.00     0.089 A 
HETATM   10  N5  UNL     1      22.198   2.527  50.369  1.00  0.00    -0.062 NA
BRANCH   9  11
HETATM   11  C13 UNL     1      21.085   0.734  51.505  1.00  0.00     0.011 A 
HETATM   12  C14 UNL     1      22.065   0.089  52.218  1.00  0.00     0.017 A 
HETATM   13  C15 UNL     1      21.811  -0.702  53.341  1.00  0.00     0.020 A 
HETATM   14  C16 UNL     1      20.519  -0.855  53.772  1.00  0.00     0.116 A 
HETATM   15  N4  UNL     1      19.549  -0.239  53.097  1.00  0.00    -0.272 NA
HETATM   16  C17 UNL     1      19.801   0.532  52.000  1.00  0.00     0.130 A 
ENDBRANCH   9  11
ENDBRANCH   3   5
ENDBRANCH   2   3
BRANCH   2  17
HETATM   17  C18 UNL     1      26.011   4.621  49.404  1.00  0.00    -0.029 A 
HETATM   18  C19 UNL     1      27.293   4.589  48.814  1.00  0.00    -0.012 A 
HETATM   19  C20 UNL     1      26.551   5.825  48.794  1.00  0.00     0.068 A 
ENDBRANCH   2  17
BRANCH   1  20
HETATM   20  N1  UNL     1      26.058   3.094  51.905  1.00  0.00    -0.331 N 
HETATM   21  C6  UNL     1      26.392   1.754  52.226  1.00  0.00     0.255 C 
HETATM   22  O1  UNL     1      25.546   0.845  51.889  1.00  0.00    -0.267 OA
HETATM   23  H5  UNL     1      26.821   3.714  52.233  1.00  0.00     0.168 HD
BRANCH  21  24
HETATM   24  C5  UNL     1      27.594   1.291  52.899  1.00  0.00     0.033 A 
HETATM   25  C4  UNL     1      28.492   2.152  53.652  1.00  0.00     0.018 A 
HETATM   26  C3  UNL     1      29.483   1.447  54.136  1.00  0.00     0.011 A 
HETATM   27  C2  UNL     1      29.271   0.074  53.715  1.00  0.00    -0.045 A 
HETATM   28  C1  UNL     1      29.931  -1.083  53.884  1.00  0.00     0.023 C 
HETATM   29  C21 UNL     1      28.040   0.028  52.921  1.00  0.00     0.027 A 
ENDBRANCH  21  24
ENDBRANCH   1  20
TORSDOF 6
ENDMDL
MODEL 8
REMARK VINA RESULT:      -7.9      2.585      4.237
REMARK  6 active torsions:
REMARK  status: ('A' for Active; 'I' for Inactive)
REMARK    1  A    between atoms: C5_5  and  C6_6 
REMARK       I    between atoms: C6_6  and  N1_8 
REMARK    2  A    between atoms: N1_8  and  C7_9 
REMARK    3  A    between atoms: C8_10  and  N2_11 
REMARK    4  A    between atoms: C8_10  and  C18_24 
REMARK    5  A    between atoms: N2_11  and  C9_12 
REMARK    6  A    between atoms: C12_16  and  C13_17 
ROOT
HETATM    1  C7  UNL     1      27.948   5.001  48.630  1.00  0.00     0.122 C 
HETATM    2  C8  UNL     1      26.739   4.911  49.154  1.00  0.00     0.071 C 
ENDROOT
BRANCH   2   3
HETATM    3  N2  UNL     1      26.264   3.565  49.365  1.00  0.00    -0.186 N 
HETATM    4  H7  UNL     1      26.059   2.824  48.659  1.00  0.00     0.184 HD
BRANCH   3   5
HETATM    5  C9  UNL     1      25.989   3.017  50.637  1.00  0.00     0.727 A 
HETATM    6  N3  UNL     1      24.945   3.274  51.431  1.00  0.00    -0.075 NA
HETATM    7  C10 UNL     1      24.714   2.747  52.628  1.00  0.00     0.139 A 
HETATM    8  C11 UNL     1      25.601   1.824  53.183  1.00  0.00     0.053 A 
HETATM    9  C12 UNL     1      26.683   1.546  52.377  1.00  0.00     0.089 A 
HETATM   10  N5  UNL     1      26.814   2.128  51.205  1.00  0.00    -0.062 NA
BRANCH   9  11
HETATM   11  C13 UNL     1      27.684   0.602  52.837  1.00  0.00     0.011 A 
HETATM   12  C14 UNL     1      28.939   0.930  53.286  1.00  0.00     0.017 A 
HETATM   13  C15 UNL     1      29.875  -0.011  53.722  1.00  0.00     0.020 A 
HETATM   14  C16 UNL     1      29.542  -1.340  53.708  1.00  0.00     0.116 A 
HETATM   15  N4  UNL     1      28.330  -1.685  53.276  1.00  0.00    -0.272 NA
HETATM   16  C17 UNL     1      27.417  -0.763  52.852  1.00  0.00     0.130 A 
ENDBRANCH   9  11
ENDBRANCH   3   5
ENDBRANCH   2   3
BRANCH   2  17
HETATM   17  C18 UNL     1      25.883   6.056  49.517  1.00  0.00    -0.029 A 
HETATM   18  C19 UNL     1      25.310   7.055  50.334  1.00  0.00    -0.012 A 
HETATM   19  C20 UNL     1      24.902   6.969  48.953  1.00  0.00     0.068 A 
ENDBRANCH   2  17
BRANCH   1  20
HETATM   20  N1  UNL     1      28.567   6.265  48.359  1.00  0.00    -0.331 N 
HETATM   21  C6  UNL     1      29.957   6.473  48.542  1.00  0.00     0.255 C 
HETATM   22  O1  UNL     1      30.646   5.471  48.963  1.00  0.00    -0.267 OA
HETATM   23  H5  UNL     1      28.141   7.148  48.022  1.00  0.00     0.168 HD
BRANCH  21  24
HETATM   24  C5  UNL     1      30.695   7.702  48.306  1.00  0.00     0.033 A 
HETATM   25  C4  UNL     1      32.033   7.757  47.739  1.00  0.00     0.018 A 
HETATM   26  C3  UNL     1      32.430   9.000  47.653  1.00  0.00     0.011 A 
HETATM   27  C2  UNL     1      31.352   9.826  48.168  1.00  0.00    -0.045 A 
HETATM   28  C1  UNL     1      31.169  11.144  48.345  1.00  0.00     0.023 C 
HETATM   29  C21 UNL     1      30.259   8.940  48.575  1.00  0.00     0.027 A 
ENDBRANCH  21  24
ENDBRANCH   1  20
TORSDOF 6
ENDMDL
MODEL 9
REMARK VINA RESULT:      -7.9      2.303      3.765
REMARK  6 active torsions:
REMARK  status: ('A' for Active; 'I' for Inactive)
REMARK    1  A    between atoms: C5_5  and  C6_6 
REMARK       I    between atoms: C6_6  and  N1_8 
REMARK    2  A    between atoms: N1_8  and  C7_9 
REMARK    3  A    between atoms: C8_10  and  N2_11 
REMARK    4  A    between atoms: C8_10  and  C18_24 
REMARK    5  A    between atoms: N2_11  and  C9_12 
REMARK    6  A    between atoms: C12_16  and  C13_17 
ROOT
HETATM    1  C7  UNL     1      27.307   4.931  48.856  1.00  0.00     0.122 C 
HETATM    2  C8  UNL     1      26.107   5.052  49.393  1.00  0.00     0.071 C 
ENDROOT
BRANCH   2   3
HETATM    3  N2  UNL     1      25.304   3.852  49.370  1.00  0.00    -0.186 N 
HETATM    4  H7  UNL     1      24.917   3.339  48.548  1.00  0.00     0.184 HD
BRANCH   3   5
HETATM    5  C9  UNL     1      24.900   3.152  50.527  1.00  0.00     0.727 A 
HETATM    6  N3  UNL     1      23.653   2.923  50.952  1.00  0.00    -0.075 NA
HETATM    7  C10 UNL     1      23.302   2.264  52.051  1.00  0.00     0.139 A 
HETATM    8  C11 UNL     1      24.269   1.725  52.898  1.00  0.00     0.053 A 
HETATM    9  C12 UNL     1      25.561   1.950  52.475  1.00  0.00     0.089 A 
HETATM   10  N5  UNL     1      25.797   2.618  51.367  1.00  0.00    -0.062 NA
BRANCH   9  11
HETATM   11  C13 UNL     1      26.664   1.443  53.267  1.00  0.00     0.011 A 
HETATM   12  C14 UNL     1      27.940   1.952  53.273  1.00  0.00     0.017 A 
HETATM   13  C15 UNL     1      28.976   1.434  54.053  1.00  0.00     0.020 A 
HETATM   14  C16 UNL     1      28.727   0.358  54.865  1.00  0.00     0.116 A 
HETATM   15  N4  UNL     1      27.498  -0.155  54.878  1.00  0.00    -0.272 NA
HETATM   16  C17 UNL     1      26.487   0.354  54.114  1.00  0.00     0.130 A 
ENDBRANCH   9  11
ENDBRANCH   3   5
ENDBRANCH   2   3
BRANCH   2  17
HETATM   17  C18 UNL     1      25.562   6.287  49.987  1.00  0.00    -0.029 A 
HETATM   18  C19 UNL     1      25.429   7.670  50.242  1.00  0.00    -0.012 A 
HETATM   19  C20 UNL     1      24.540   6.751  50.912  1.00  0.00     0.068 A 
ENDBRANCH   2  17
BRANCH   1  20
HETATM   20  N1  UNL     1      28.228   6.028  48.801  1.00  0.00    -0.331 N 
HETATM   21  C6  UNL     1      29.548   5.874  48.305  1.00  0.00     0.255 C 
HETATM   22  O1  UNL     1      29.885   4.699  47.902  1.00  0.00    -0.267 OA
HETATM   23  H5  UNL     1      28.096   7.015  49.089  1.00  0.00     0.168 HD
BRANCH  21  24
HETATM   24  C5  UNL     1      30.568   6.903  48.203  1.00  0.00     0.033 A 
HETATM   25  C4  UNL     1      31.528   7.210  49.251  1.00  0.00     0.018 A 
HETATM   26  C3  UNL     1      32.313   8.183  48.865  1.00  0.00     0.011 A 
HETATM   27  C2  UNL     1      31.894   8.560  47.527  1.00  0.00    -0.045 A 
HETATM   28  C1  UNL     1      32.293   9.476  46.631  1.00  0.00     0.023 C 
HETATM   29  C21 UNL     1      30.767   7.704  47.148  1.00  0.00     0.027 A 
ENDBRANCH  21  24
ENDBRANCH   1  20
TORSDOF 6
ENDMDL
