MODEL 1
REMARK VINA RESULT:      -7.5      0.000      0.000
REMARK  4 active torsions:
REMARK  status: ('A' for Active; 'I' for Inactive)
REMARK    1  A    between atoms: N1_6  and  C6_7 
REMARK    2  A    between atoms: C6_7  and  C12_15 
REMARK    3  A    between atoms: C7_8  and  C8_9 
REMARK    4  A    between atoms: C12_15  and  N2_16 
ROOT
HETATM    1  C6  UNL     1      23.679   1.270  52.330  1.00  0.00     0.057 C 
HETATM    2  C7  UNL     1      23.271   1.996  51.297  1.00  0.00     0.067 C 
ENDROOT
BRANCH   1   3
HETATM    3  N1  UNL     1      24.918   1.626  52.873  1.00  0.00    -0.256 NA
HETATM    4  C5  UNL     1      25.970   0.932  52.983  1.00  0.00     0.040 A 
HETATM    5  C4  UNL     1      26.214  -0.475  52.570  1.00  0.00     0.087 A 
HETATM    6  C14 UNL     1      27.056   1.700  53.620  1.00  0.00     0.051 A 
HETATM    7  C3  UNL     1      27.599  -0.899  52.887  1.00  0.00    -0.012 A 
HETATM    8  C2  UNL     1      28.561  -0.194  53.459  1.00  0.00    -0.044 A 
HETATM    9  C1  UNL     1      29.881  -0.837  53.677  1.00  0.00     0.049 C 
HETATM   10  C15 UNL     1      28.264   1.179  53.843  1.00  0.00     0.041 A 
HETATM   11 CL2  UNL     1      29.562   2.068  54.594  1.00  0.00    -0.084 Cl
ENDBRANCH   1   3
BRANCH   1  12
HETATM   12  C12 UNL     1      22.749   0.179  52.761  1.00  0.00     0.208 C 
BRANCH  12  13
HETATM   13  N2  UNL     1      21.796   0.673  53.714  1.00  0.00    -0.284 NA
HETATM   14  C13 UNL     1      21.229  -0.071  54.584  1.00  0.00     0.195 C 
HETATM   15 CL1  UNL     1      21.643  -1.770  54.601  1.00  0.00    -0.077 Cl
ENDBRANCH  12  13
ENDBRANCH   1  12
BRANCH   2  16
HETATM   16  C8  UNL     1      24.119   3.076  50.821  1.00  0.00     0.092 C 
HETATM   17  C9  UNL     1      23.913   4.363  51.146  1.00  0.00     0.171 C 
HETATM   18  O1  UNL     1      24.689   5.436  50.720  1.00  0.00    -0.358 OA
HETATM   19  C10 UNL     1      25.620   5.166  49.687  1.00  0.00     0.201 C 
HETATM   20  C11 UNL     1      26.260   3.834  50.021  1.00  0.00     0.202 C 
HETATM   21  O2  UNL     1      25.204   2.873  49.998  1.00  0.00    -0.347 OA
ENDBRANCH   2  16
TORSDOF 4
ENDMDL
MODEL 2
REMARK VINA RESULT:      -7.4      2.792      5.207
REMARK  4 active torsions:
REMARK  status: ('A' for Active; 'I' for Inactive)
REMARK    1  A    between atoms: N1_6  and  C6_7 
REMARK    2  A    between atoms: C6_7  and  C12_15 
REMARK    3  A    between atoms: C7_8  and  C8_9 
REMARK    4  A    between atoms: C12_15  and  N2_16 
ROOT
HETATM    1  C6  UNL     1      24.852   0.066  53.006  1.00  0.00     0.057 C 
HETATM    2  C7  UNL     1      25.594  -0.582  53.894  1.00  0.00     0.067 C 
ENDROOT
BRANCH   1   3
HETATM    3  N1  UNL     1      25.552   0.864  52.095  1.00  0.00    -0.256 NA
HETATM    4  C5  UNL     1      25.246   2.001  51.632  1.00  0.00     0.040 A 
HETATM    5  C4  UNL     1      24.050   2.839  51.912  1.00  0.00     0.087 A 
HETATM    6  C14 UNL     1      26.270   2.492  50.691  1.00  0.00     0.051 A 
HETATM    7  C3  UNL     1      24.090   4.110  51.149  1.00  0.00    -0.012 A 
HETATM    8  C2  UNL     1      25.019   4.533  50.309  1.00  0.00    -0.044 A 
HETATM    9  C1  UNL     1      24.842   5.854  49.656  1.00  0.00     0.049 C 
HETATM   10  C15 UNL     1      26.169   3.669  50.073  1.00  0.00     0.041 A 
HETATM   11 CL2  UNL     1      27.368   4.269  48.958  1.00  0.00    -0.084 Cl
ENDBRANCH   1   3
BRANCH   1  12
HETATM   12  C12 UNL     1      23.376  -0.156  53.111  1.00  0.00     0.208 C 
BRANCH  12  13
HETATM   13  N2  UNL     1      23.065  -0.959  54.261  1.00  0.00    -0.284 NA
HETATM   14  C13 UNL     1      21.959  -0.874  54.893  1.00  0.00     0.195 C 
HETATM   15 CL1  UNL     1      20.777   0.280  54.321  1.00  0.00    -0.077 Cl
ENDBRANCH  12  13
ENDBRANCH   1  12
BRANCH   2  16
HETATM   16  C8  UNL     1      27.037  -0.419  53.854  1.00  0.00     0.092 C 
HETATM   17  C9  UNL     1      27.698   0.435  54.653  1.00  0.00     0.171 C 
HETATM   18  O1  UNL     1      29.074   0.633  54.659  1.00  0.00    -0.358 OA
HETATM   19  C10 UNL     1      29.795   0.057  53.583  1.00  0.00     0.201 C 
HETATM   20  C11 UNL     1      29.215  -1.325  53.366  1.00  0.00     0.202 C 
HETATM   21  O2  UNL     1      27.850  -1.124  52.995  1.00  0.00    -0.347 OA
ENDBRANCH   2  16
TORSDOF 4
ENDMDL
MODEL 3
REMARK VINA RESULT:      -7.4      3.062      6.045
REMARK  4 active torsions:
REMARK  status: ('A' for Active; 'I' for Inactive)
REMARK    1  A    between atoms: N1_6  and  C6_7 
REMARK    2  A    between atoms: C6_7  and  C12_15 
REMARK    3  A    between atoms: C7_8  and  C8_9 
REMARK    4  A    between atoms: C12_15  and  N2_16 
ROOT
HETATM    1  C6  UNL     1      25.927   0.178  54.050  1.00  0.00     0.057 C 
HETATM    2  C7  UNL     1      25.220  -0.896  54.375  1.00  0.00     0.067 C 
ENDROOT
BRANCH   1   3
HETATM    3  N1  UNL     1      25.193   1.269  53.572  1.00  0.00    -0.256 NA
HETATM    4  C5  UNL     1      25.398   1.980  52.547  1.00  0.00     0.040 A 
HETATM    5  C4  UNL     1      26.481   1.877  51.533  1.00  0.00     0.087 A 
HETATM    6  C14 UNL     1      24.376   3.035  52.411  1.00  0.00     0.051 A 
HETATM    7  C3  UNL     1      26.343   2.920  50.487  1.00  0.00    -0.012 A 
HETATM    8  C2  UNL     1      25.418   3.859  50.383  1.00  0.00    -0.044 A 
HETATM    9  C1  UNL     1      25.484   4.801  49.238  1.00  0.00     0.049 C 
HETATM   10  C15 UNL     1      24.382   3.912  51.406  1.00  0.00     0.041 A 
HETATM   11 CL2  UNL     1      23.184   5.166  51.226  1.00  0.00    -0.084 Cl
ENDBRANCH   1   3
BRANCH   1  12
HETATM   12  C12 UNL     1      27.406   0.061  54.245  1.00  0.00     0.208 C 
BRANCH  12  13
HETATM   13  N2  UNL     1      27.884  -1.200  53.751  1.00  0.00    -0.284 NA
HETATM   14  C13 UNL     1      29.092  -1.393  53.383  1.00  0.00     0.195 C 
HETATM   15 CL1  UNL     1      30.204  -0.048  53.489  1.00  0.00    -0.077 Cl
ENDBRANCH  12  13
ENDBRANCH   1  12
BRANCH   2  16
HETATM   16  C8  UNL     1      23.776  -0.859  54.215  1.00  0.00     0.092 C 
HETATM   17  C9  UNL     1      22.923  -1.047  55.236  1.00  0.00     0.171 C 
HETATM   18  O1  UNL     1      21.536  -1.024  55.141  1.00  0.00    -0.358 OA
HETATM   19  C10 UNL     1      20.995  -1.031  53.831  1.00  0.00     0.201 C 
HETATM   20  C11 UNL     1      21.841  -0.079  53.011  1.00  0.00     0.202 C 
HETATM   21  O2  UNL     1      23.159  -0.629  53.005  1.00  0.00    -0.347 OA
ENDBRANCH   2  16
TORSDOF 4
ENDMDL
MODEL 4
REMARK VINA RESULT:      -7.3      2.739      6.387
REMARK  4 active torsions:
REMARK  status: ('A' for Active; 'I' for Inactive)
REMARK    1  A    between atoms: N1_6  and  C6_7 
REMARK    2  A    between atoms: C6_7  and  C12_15 
REMARK    3  A    between atoms: C7_8  and  C8_9 
REMARK    4  A    between atoms: C12_15  and  N2_16 
ROOT
HETATM    1  C6  UNL     1      25.488   2.637  50.966  1.00  0.00     0.057 C 
HETATM    2  C7  UNL     1      26.775   2.393  51.171  1.00  0.00     0.067 C 
ENDROOT
BRANCH   1   3
HETATM    3  N1  UNL     1      24.610   2.126  51.928  1.00  0.00    -0.256 NA
HETATM    4  C5  UNL     1      23.442   1.664  51.777  1.00  0.00     0.040 A 
HETATM    5  C4  UNL     1      22.642   1.522  50.532  1.00  0.00     0.087 A 
HETATM    6  C14 UNL     1      22.866   1.230  53.063  1.00  0.00     0.051 A 
HETATM    7  C3  UNL     1      21.312   0.927  50.810  1.00  0.00    -0.012 A 
HETATM    8  C2  UNL     1      20.813   0.543  51.973  1.00  0.00    -0.044 A 
HETATM    9  C1  UNL     1      19.444  -0.031  52.006  1.00  0.00     0.049 C 
HETATM   10  C15 UNL     1      21.642   0.708  53.159  1.00  0.00     0.041 A 
HETATM   11 CL2  UNL     1      20.941   0.187  54.668  1.00  0.00    -0.084 Cl
ENDBRANCH   1   3
BRANCH   1  12
HETATM   12  C12 UNL     1      25.168   3.424  49.734  1.00  0.00     0.208 C 
BRANCH  12  13
HETATM   13  N2  UNL     1      25.097   4.826  50.034  1.00  0.00    -0.284 NA
HETATM   14  C13 UNL     1      25.963   5.672  49.627  1.00  0.00     0.195 C 
HETATM   15 CL1  UNL     1      27.294   5.078  48.661  1.00  0.00    -0.077 Cl
ENDBRANCH  12  13
ENDBRANCH   1  12
BRANCH   2  16
HETATM   16  C8  UNL     1      27.166   1.635  52.348  1.00  0.00     0.092 C 
HETATM   17  C9  UNL     1      27.717   2.203  53.433  1.00  0.00     0.171 C 
HETATM   18  O1  UNL     1      28.110   1.529  54.584  1.00  0.00    -0.358 OA
HETATM   19  C10 UNL     1      28.140   0.115  54.504  1.00  0.00     0.201 C 
HETATM   20  C11 UNL     1      26.890  -0.301  53.754  1.00  0.00     0.202 C 
HETATM   21  O2  UNL     1      27.006   0.271  52.451  1.00  0.00    -0.347 OA
ENDBRANCH   2  16
TORSDOF 4
ENDMDL
MODEL 5
REMARK VINA RESULT:      -6.9      2.930      5.548
REMARK  4 active torsions:
REMARK  status: ('A' for Active; 'I' for Inactive)
REMARK    1  A    between atoms: N1_6  and  C6_7 
REMARK    2  A    between atoms: C6_7  and  C12_15 
REMARK    3  A    between atoms: C7_8  and  C8_9 
REMARK    4  A    between atoms: C12_15  and  N2_16 
ROOT
HETATM    1  C6  UNL     1      24.138   2.189  51.334  1.00  0.00     0.057 C 
HETATM    2  C7  UNL     1      24.374   1.479  52.428  1.00  0.00     0.067 C 
ENDROOT
BRANCH   1   3
HETATM    3  N1  UNL     1      25.267   2.689  50.676  1.00  0.00    -0.256 NA
HETATM    4  C5  UNL     1      25.414   3.789  50.069  1.00  0.00     0.040 A 
HETATM    5  C4  UNL     1      24.434   4.889  49.866  1.00  0.00     0.087 A 
HETATM    6  C14 UNL     1      26.775   3.919  49.515  1.00  0.00     0.051 A 
HETATM    7  C3  UNL     1      25.028   6.005  49.091  1.00  0.00    -0.012 A 
HETATM    8  C2  UNL     1      26.253   6.103  48.603  1.00  0.00    -0.044 A 
HETATM    9  C1  UNL     1      26.625   7.329  47.852  1.00  0.00     0.049 C 
HETATM   10  C15 UNL     1      27.169   4.994  48.832  1.00  0.00     0.041 A 
HETATM   11 CL2  UNL     1      28.772   5.169  48.169  1.00  0.00    -0.084 Cl
ENDBRANCH   1   3
BRANCH   1  12
HETATM   12  C12 UNL     1      22.696   2.347  50.965  1.00  0.00     0.208 C 
BRANCH  12  13
HETATM   13  N2  UNL     1      22.432   1.753  49.685  1.00  0.00    -0.284 NA
HETATM   14  C13 UNL     1      21.487   0.918  49.484  1.00  0.00     0.195 C 
HETATM   15 CL1  UNL     1      20.475   0.486  50.843  1.00  0.00    -0.077 Cl
ENDBRANCH  12  13
ENDBRANCH   1  12
BRANCH   2  16
HETATM   16  C8  UNL     1      25.750   1.279  52.850  1.00  0.00     0.092 C 
HETATM   17  C9  UNL     1      26.340   2.027  53.797  1.00  0.00     0.171 C 
HETATM   18  O1  UNL     1      27.650   1.881  54.239  1.00  0.00    -0.358 OA
HETATM   19  C10 UNL     1      28.483   1.033  53.468  1.00  0.00     0.201 C 
HETATM   20  C11 UNL     1      27.649  -0.180  53.111  1.00  0.00     0.202 C 
HETATM   21  O2  UNL     1      26.566   0.306  52.316  1.00  0.00    -0.347 OA
ENDBRANCH   2  16
TORSDOF 4
ENDMDL
MODEL 6
REMARK VINA RESULT:      -6.9      1.793      5.289
REMARK  4 active torsions:
REMARK  status: ('A' for Active; 'I' for Inactive)
REMARK    1  A    between atoms: N1_6  and  C6_7 
REMARK    2  A    between atoms: C6_7  and  C12_15 
REMARK    3  A    between atoms: C7_8  and  C8_9 
REMARK    4  A    between atoms: C12_15  and  N2_16 
ROOT
HETATM    1  C6  UNL     1      26.234   0.847  52.309  1.00  0.00     0.057 C 
HETATM    2  C7  UNL     1      26.911   1.909  51.893  1.00  0.00     0.067 C 
ENDROOT
BRANCH   1   3
HETATM    3  N1  UNL     1      24.873   0.829  51.991  1.00  0.00    -0.256 NA
HETATM    4  C5  UNL     1      23.918   0.267  52.601  1.00  0.00     0.040 A 
HETATM    5  C4  UNL     1      23.949  -0.548  53.845  1.00  0.00     0.087 A 
HETATM    6  C14 UNL     1      22.631   0.501  51.920  1.00  0.00     0.051 A 
HETATM    7  C3  UNL     1      22.592  -1.019  54.216  1.00  0.00    -0.012 A 
HETATM    8  C2  UNL     1      21.448  -0.798  53.590  1.00  0.00    -0.044 A 
HETATM    9  C1  UNL     1      20.203  -1.377  54.155  1.00  0.00     0.049 C 
HETATM   10  C15 UNL     1      21.480   0.008  52.376  1.00  0.00     0.041 A 
HETATM   11 CL2  UNL     1      19.948   0.272  51.587  1.00  0.00    -0.084 Cl
ENDBRANCH   1   3
BRANCH   1  12
HETATM   12  C12 UNL     1      27.032  -0.175  53.057  1.00  0.00     0.208 C 
BRANCH  12  13
HETATM   13  N2  UNL     1      27.491   0.356  54.309  1.00  0.00    -0.284 NA
HETATM   14  C13 UNL     1      28.688   0.218  54.730  1.00  0.00     0.195 C 
HETATM   15 CL1  UNL     1      29.812  -0.665  53.722  1.00  0.00    -0.077 Cl
ENDBRANCH  12  13
ENDBRANCH   1  12
BRANCH   2  16
HETATM   16  C8  UNL     1      26.206   2.945  51.157  1.00  0.00     0.092 C 
HETATM   17  C9  UNL     1      26.537   3.307  49.907  1.00  0.00     0.171 C 
HETATM   18  O1  UNL     1      25.900   4.290  49.157  1.00  0.00    -0.358 OA
HETATM   19  C10 UNL     1      24.988   5.119  49.855  1.00  0.00     0.201 C 
HETATM   20  C11 UNL     1      24.194   4.211  50.772  1.00  0.00     0.202 C 
HETATM   21  O2  UNL     1      25.140   3.643  51.678  1.00  0.00    -0.347 OA
ENDBRANCH   2  16
TORSDOF 4
ENDMDL
MODEL 7
REMARK VINA RESULT:      -6.7      2.230      5.845
REMARK  4 active torsions:
REMARK  status: ('A' for Active; 'I' for Inactive)
REMARK    1  A    between atoms: N1_6  and  C6_7 
REMARK    2  A    between atoms: C6_7  and  C12_15 
REMARK    3  A    between atoms: C7_8  and  C8_9 
REMARK    4  A    between atoms: C12_15  and  N2_16 
ROOT
HETATM    1  C6  UNL     1      24.496   0.806  52.918  1.00  0.00     0.057 C 
HETATM    2  C7  UNL     1      25.130   1.970  52.951  1.00  0.00     0.067 C 
ENDROOT
BRANCH   1   3
HETATM    3  N1  UNL     1      23.279   0.795  52.228  1.00  0.00    -0.256 NA
HETATM    4  C5  UNL     1      22.158   0.339  52.596  1.00  0.00     0.040 A 
HETATM    5  C4  UNL     1      21.787  -0.326  53.873  1.00  0.00     0.087 A 
HETATM    6  C14 UNL     1      21.131   0.532  51.555  1.00  0.00     0.051 A 
HETATM    7  C3  UNL     1      20.353  -0.707  53.888  1.00  0.00    -0.012 A 
HETATM    8  C2  UNL     1      19.447  -0.523  52.943  1.00  0.00    -0.044 A 
HETATM    9  C1  UNL     1      18.060  -0.993  53.185  1.00  0.00     0.049 C 
HETATM   10  C15 UNL     1      19.869   0.132  51.712  1.00  0.00     0.041 A 
HETATM   11 CL2  UNL     1      18.639   0.352  50.496  1.00  0.00    -0.084 Cl
ENDBRANCH   1   3
BRANCH   1  12
HETATM   12  C12 UNL     1      25.180  -0.323  53.624  1.00  0.00     0.208 C 
BRANCH  12  13
HETATM   13  N2  UNL     1      26.192  -0.903  52.789  1.00  0.00    -0.284 NA
HETATM   14  C13 UNL     1      27.439  -0.852  53.064  1.00  0.00     0.195 C 
HETATM   15 CL1  UNL     1      27.918  -0.031  54.531  1.00  0.00    -0.077 Cl
ENDBRANCH  12  13
ENDBRANCH   1  12
BRANCH   2  16
HETATM   16  C8  UNL     1      24.530   3.115  52.286  1.00  0.00     0.092 C 
HETATM   17  C9  UNL     1      23.732   3.991  52.918  1.00  0.00     0.171 C 
HETATM   18  O1  UNL     1      23.131   5.101  52.334  1.00  0.00    -0.358 OA
HETATM   19  C10 UNL     1      23.185   5.172  50.919  1.00  0.00     0.201 C 
HETATM   20  C11 UNL     1      24.584   4.751  50.520  1.00  0.00     0.202 C 
HETATM   21  O2  UNL     1      24.727   3.397  50.953  1.00  0.00    -0.347 OA
ENDBRANCH   2  16
TORSDOF 4
ENDMDL
MODEL 8
REMARK VINA RESULT:      -6.4      3.082      4.951
REMARK  4 active torsions:
REMARK  status: ('A' for Active; 'I' for Inactive)
REMARK    1  A    between atoms: N1_6  and  C6_7 
REMARK    2  A    between atoms: C6_7  and  C12_15 
REMARK    3  A    between atoms: C7_8  and  C8_9 
REMARK    4  A    between atoms: C12_15  and  N2_16 
ROOT
HETATM    1  C6  UNL     1      23.899   2.022  52.034  1.00  0.00     0.057 C 
HETATM    2  C7  UNL     1      22.676   1.974  52.545  1.00  0.00     0.067 C 
ENDROOT
BRANCH   1   3
HETATM    3  N1  UNL     1      24.652   0.848  52.144  1.00  0.00    -0.256 NA
HETATM    4  C5  UNL     1      25.851   0.702  52.516  1.00  0.00     0.040 A 
HETATM    5  C4  UNL     1      26.832   1.731  52.953  1.00  0.00     0.087 A 
HETATM    6  C14 UNL     1      26.255  -0.716  52.484  1.00  0.00     0.051 A 
HETATM    7  C3  UNL     1      28.136   1.120  53.306  1.00  0.00    -0.012 A 
HETATM    8  C2  UNL     1      28.479  -0.157  53.271  1.00  0.00    -0.044 A 
HETATM    9  C1  UNL     1      29.856  -0.536  53.675  1.00  0.00     0.049 C 
HETATM   10  C15 UNL     1      27.477  -1.120  52.834  1.00  0.00     0.041 A 
HETATM   11 CL2  UNL     1      27.976  -2.791  52.804  1.00  0.00    -0.084 Cl
ENDBRANCH   1   3
BRANCH   1  12
HETATM   12  C12 UNL     1      24.290   3.328  51.416  1.00  0.00     0.208 C 
BRANCH  12  13
HETATM   13  N2  UNL     1      23.485   4.396  51.936  1.00  0.00    -0.284 NA
HETATM   14  C13 UNL     1      23.328   5.511  51.333  1.00  0.00     0.195 C 
HETATM   15 CL1  UNL     1      24.142   5.732  49.802  1.00  0.00    -0.077 Cl
ENDBRANCH  12  13
ENDBRANCH   1  12
BRANCH   2  16
HETATM   16  C8  UNL     1      22.222   0.739  53.161  1.00  0.00     0.092 C 
HETATM   17  C9  UNL     1      22.734   0.264  54.309  1.00  0.00     0.171 C 
HETATM   18  O1  UNL     1      22.340  -0.909  54.943  1.00  0.00    -0.358 OA
HETATM   19  C10 UNL     1      21.502  -1.775  54.197  1.00  0.00     0.201 C 
HETATM   20  C11 UNL     1      20.485  -0.895  53.500  1.00  0.00     0.202 C 
HETATM   21  O2  UNL     1      21.231  -0.051  52.622  1.00  0.00    -0.347 OA
ENDBRANCH   2  16
TORSDOF 4
ENDMDL
MODEL 9
REMARK VINA RESULT:      -6.3      6.847      8.706
REMARK  4 active torsions:
REMARK  status: ('A' for Active; 'I' for Inactive)
REMARK    1  A    between atoms: N1_6  and  C6_7 
REMARK    2  A    between atoms: C6_7  and  C12_15 
REMARK    3  A    between atoms: C7_8  and  C8_9 
REMARK    4  A    between atoms: C12_15  and  N2_16 
ROOT
HETATM    1  C6  UNL     1      29.270   6.503  48.409  1.00  0.00     0.057 C 
HETATM    2  C7  UNL     1      28.765   7.703  48.156  1.00  0.00     0.067 C 
ENDROOT
BRANCH   1   3
HETATM    3  N1  UNL     1      30.639   6.466  48.692  1.00  0.00    -0.256 NA
HETATM    4  C5  UNL     1      31.525   5.682  48.245  1.00  0.00     0.040 A 
HETATM    5  C4  UNL     1      31.385   4.558  47.280  1.00  0.00     0.087 A 
HETATM    6  C14 UNL     1      32.853   5.993  48.807  1.00  0.00     0.051 A 
HETATM    7  C3  UNL     1      32.689   3.896  47.029  1.00  0.00    -0.012 A 
HETATM    8  C2  UNL     1      33.870   4.191  47.544  1.00  0.00    -0.044 A 
HETATM    9  C1  UNL     1      35.046   3.380  47.140  1.00  0.00     0.049 C 
HETATM   10  C15 UNL     1      33.946   5.302  48.484  1.00  0.00     0.041 A 
HETATM   11 CL2  UNL     1      35.525   5.652  49.136  1.00  0.00    -0.084 Cl
ENDBRANCH   1   3
BRANCH   1  12
HETATM   12  C12 UNL     1      28.296   5.368  48.355  1.00  0.00     0.208 C 
BRANCH  12  13
HETATM   13  N2  UNL     1      26.988   5.804  48.752  1.00  0.00    -0.284 NA
HETATM   14  C13 UNL     1      26.106   5.017  49.236  1.00  0.00     0.195 C 
HETATM   15 CL1  UNL     1      26.528   3.329  49.415  1.00  0.00    -0.077 Cl
ENDBRANCH  12  13
ENDBRANCH   1  12
BRANCH   2  16
HETATM   16  C8  UNL     1      29.648   8.857  48.191  1.00  0.00     0.092 C 
HETATM   17  C9  UNL     1      29.759   9.659  49.263  1.00  0.00     0.171 C 
HETATM   18  O1  UNL     1      30.585  10.775  49.352  1.00  0.00    -0.358 OA
HETATM   19  C10 UNL     1      31.172  11.220  48.142  1.00  0.00     0.201 C 
HETATM   20  C11 UNL     1      31.628   9.979  47.402  1.00  0.00     0.202 C 
HETATM   21  O2  UNL     1      30.445   9.226  47.131  1.00  0.00    -0.347 OA
ENDBRANCH   2  16
TORSDOF 4
ENDMDL
