MODEL 1
REMARK VINA RESULT:      -9.3      0.000      0.000
REMARK  4 active torsions:
REMARK  status: ('A' for Active; 'I' for Inactive)
REMARK    1  A    between atoms: C3_3  and  C4_5 
REMARK    2  A    between atoms: C4_5  and  O1_6 
REMARK    3  A    between atoms: O1_6  and  C5_7 
REMARK    4  A    between atoms: C5_7  and  C6_8 
ROOT
HETATM    1  C6  UNL     1      24.923   0.239  52.985  1.00  0.00    -0.031 C 
HETATM    2  C7  UNL     1      25.610   1.097  52.132  1.00  0.00     0.104 C 
HETATM    3  C8  UNL     1      25.740   2.025  51.343  1.00  0.00     0.066 C 
HETATM    4  N1  UNL     1      26.233   2.972  50.454  1.00  0.00    -0.415 N 
HETATM    5  C9  UNL     1      26.763   3.852  49.559  1.00  0.00     0.174 C 
HETATM    6  C10 UNL     1      26.191   5.217  49.467  1.00  0.00     0.060 C 
HETATM    7  C11 UNL     1      24.958   5.656  49.612  1.00  0.00     0.097 C 
HETATM    8  C12 UNL     1      24.622   7.107  49.462  1.00  0.00     0.066 C 
HETATM    9  C13 UNL     1      25.477   7.875  48.731  1.00  0.00     0.018 C 
HETATM   10  C14 UNL     1      26.726   7.698  49.141  1.00  0.00     0.071 C 
HETATM   11  N2  UNL     1      27.098   6.311  49.220  1.00  0.00    -0.369 N 
HETATM   12  O2  UNL     1      23.581   5.453  49.873  1.00  0.00    -0.309 OA
HETATM   13  C15 UNL     1      23.121   4.170  49.734  1.00  0.00     0.078 A 
HETATM   14  C16 UNL     1      23.044   3.382  48.617  1.00  0.00     0.037 A 
HETATM   15  C17 UNL     1      22.513   2.112  48.859  1.00  0.00     0.005 A 
HETATM   16  C18 UNL     1      22.146   1.819  50.133  1.00  0.00     0.029 A 
HETATM   17  C19 UNL     1      22.173   2.537  51.362  1.00  0.00     0.031 A 
HETATM   18  C20 UNL     1      22.714   3.741  50.956  1.00  0.00     0.066 A 
HETATM   19  N3  UNL     1      21.661   1.580  52.258  1.00  0.00    -0.380 N 
HETATM   20  C21 UNL     1      22.719   0.823  52.798  1.00  0.00     0.132 C 
HETATM   21  C22 UNL     1      23.518  -0.011  53.449  1.00  0.00     0.010 C 
HETATM   22  H10 UNL     1      25.539   3.527  51.047  1.00  0.00     0.153 HD
HETATM   23  H15 UNL     1      28.098   6.056  49.097  1.00  0.00     0.165 HD
HETATM   24  H20 UNL     1      20.625   1.612  52.263  1.00  0.00     0.160 HD
ENDROOT
BRANCH   1  25
HETATM   25  C5  UNL     1      25.920  -0.470  53.438  1.00  0.00     0.142 C 
BRANCH  25  26
HETATM   26  O1  UNL     1      26.816  -0.791  54.398  1.00  0.00    -0.357 OA
BRANCH  26  27
HETATM   27  C4  UNL     1      27.682   0.251  54.881  1.00  0.00     0.225 C 
BRANCH  27  28
HETATM   28  C3  UNL     1      28.791   0.480  53.896  1.00  0.00     0.032 C 
HETATM   29  C2  UNL     1      29.482  -0.567  53.490  1.00  0.00    -0.009 C 
HETATM   30  C1  UNL     1      29.797  -2.003  53.440  1.00  0.00     0.037 C 
HETATM   31 CL1  UNL     1      28.690   2.258  53.729  1.00  0.00    -0.087 Cl
ENDBRANCH  27  28
ENDBRANCH  26  27
ENDBRANCH  25  26
ENDBRANCH   1  25
TORSDOF 4
ENDMDL
MODEL 2
REMARK VINA RESULT:      -9.2      1.633      1.897
REMARK  4 active torsions:
REMARK  status: ('A' for Active; 'I' for Inactive)
REMARK    1  A    between atoms: C3_3  and  C4_5 
REMARK    2  A    between atoms: C4_5  and  O1_6 
REMARK    3  A    between atoms: O1_6  and  C5_7 
REMARK    4  A    between atoms: C5_7  and  C6_8 
ROOT
HETATM    1  C6  UNL     1      24.154  -0.319  53.742  1.00  0.00    -0.031 C 
HETATM    2  C7  UNL     1      24.616   0.797  53.052  1.00  0.00     0.104 C 
HETATM    3  C8  UNL     1      24.522   1.814  52.375  1.00  0.00     0.066 C 
HETATM    4  N1  UNL     1      24.775   2.964  51.638  1.00  0.00    -0.415 N 
HETATM    5  C9  UNL     1      25.084   4.062  50.893  1.00  0.00     0.174 C 
HETATM    6  C10 UNL     1      24.143   5.208  50.876  1.00  0.00     0.060 C 
HETATM    7  C11 UNL     1      22.829   5.257  50.935  1.00  0.00     0.097 C 
HETATM    8  C12 UNL     1      22.092   6.559  50.894  1.00  0.00     0.066 C 
HETATM    9  C13 UNL     1      22.732   7.622  50.333  1.00  0.00     0.018 C 
HETATM   10  C14 UNL     1      23.945   7.759  50.850  1.00  0.00     0.071 C 
HETATM   11  N2  UNL     1      24.703   6.537  50.832  1.00  0.00    -0.369 N 
HETATM   12  O2  UNL     1      21.558   4.640  51.033  1.00  0.00    -0.309 OA
HETATM   13  C15 UNL     1      21.507   3.306  50.722  1.00  0.00     0.078 A 
HETATM   14  C16 UNL     1      21.744   2.674  49.531  1.00  0.00     0.037 A 
HETATM   15  C17 UNL     1      21.595   1.285  49.592  1.00  0.00     0.005 A 
HETATM   16  C18 UNL     1      21.242   0.744  50.787  1.00  0.00     0.029 A 
HETATM   17  C19 UNL     1      20.970   1.283  52.076  1.00  0.00     0.031 A 
HETATM   18  C20 UNL     1      21.160   2.631  51.848  1.00  0.00     0.066 A 
HETATM   19  N3  UNL     1      20.701   0.117  52.817  1.00  0.00    -0.380 N 
HETATM   20  C21 UNL     1      21.895  -0.368  53.387  1.00  0.00     0.132 C 
HETATM   21  C22 UNL     1      22.855  -1.014  54.032  1.00  0.00     0.010 C 
HETATM   22  H10 UNL     1      23.909   3.221  52.208  1.00  0.00     0.153 HD
HETATM   23  H15 UNL     1      25.740   6.595  50.788  1.00  0.00     0.165 HD
HETATM   24  H20 UNL     1      19.704  -0.148  52.719  1.00  0.00     0.160 HD
ENDROOT
BRANCH   1  25
HETATM   25  C5  UNL     1      25.281  -0.765  54.223  1.00  0.00     0.142 C 
BRANCH  25  26
HETATM   26  O1  UNL     1      26.631  -0.841  54.224  1.00  0.00    -0.357 OA
BRANCH  26  27
HETATM   27  C4  UNL     1      27.361   0.245  54.822  1.00  0.00     0.225 C 
BRANCH  27  28
HETATM   28  C3  UNL     1      28.458   0.684  53.896  1.00  0.00     0.032 C 
HETATM   29  C2  UNL     1      29.405  -0.187  53.604  1.00  0.00    -0.009 C 
HETATM   30  C1  UNL     1      30.049  -1.508  53.667  1.00  0.00     0.037 C 
HETATM   31 CL1  UNL     1      27.958   2.376  53.609  1.00  0.00    -0.087 Cl
ENDBRANCH  27  28
ENDBRANCH  26  27
ENDBRANCH  25  26
ENDBRANCH   1  25
TORSDOF 4
ENDMDL
MODEL 3
REMARK VINA RESULT:      -9.1      2.833      6.053
REMARK  4 active torsions:
REMARK  status: ('A' for Active; 'I' for Inactive)
REMARK    1  A    between atoms: C3_3  and  C4_5 
REMARK    2  A    between atoms: C4_5  and  O1_6 
REMARK    3  A    between atoms: O1_6  and  C5_7 
REMARK    4  A    between atoms: C5_7  and  C6_8 
ROOT
HETATM    1  C6  UNL     1      25.712   0.376  52.759  1.00  0.00    -0.031 C 
HETATM    2  C7  UNL     1      24.490   0.042  53.334  1.00  0.00     0.104 C 
HETATM    3  C8  UNL     1      23.271   0.038  53.452  1.00  0.00     0.066 C 
HETATM    4  N1  UNL     1      21.963  -0.174  53.871  1.00  0.00    -0.415 N 
HETATM    5  C9  UNL     1      20.704  -0.381  54.349  1.00  0.00     0.174 C 
HETATM    6  C10 UNL     1      19.576  -0.468  53.390  1.00  0.00     0.060 C 
HETATM    7  C11 UNL     1      19.355   0.146  52.247  1.00  0.00     0.097 C 
HETATM    8  C12 UNL     1      18.115  -0.110  51.449  1.00  0.00     0.066 C 
HETATM    9  C13 UNL     1      17.032  -0.597  52.116  1.00  0.00     0.018 C 
HETATM   10  C14 UNL     1      17.372  -1.649  52.848  1.00  0.00     0.071 C 
HETATM   11  N2  UNL     1      18.518  -1.404  53.681  1.00  0.00    -0.369 N 
HETATM   12  O2  UNL     1      19.725   1.050  51.221  1.00  0.00    -0.309 OA
HETATM   13  C15 UNL     1      20.688   1.971  51.543  1.00  0.00     0.078 A 
HETATM   14  C16 UNL     1      20.656   2.990  52.457  1.00  0.00     0.037 A 
HETATM   15  C17 UNL     1      21.838   3.733  52.512  1.00  0.00     0.005 A 
HETATM   16  C18 UNL     1      22.847   3.370  51.679  1.00  0.00     0.029 A 
HETATM   17  C19 UNL     1      23.002   2.348  50.699  1.00  0.00     0.031 A 
HETATM   18  C20 UNL     1      21.775   1.720  50.771  1.00  0.00     0.066 A 
HETATM   19  N3  UNL     1      24.323   2.573  50.267  1.00  0.00    -0.380 N 
HETATM   20  C21 UNL     1      25.213   1.812  51.050  1.00  0.00     0.132 C 
HETATM   21  C22 UNL     1      26.240   1.201  51.622  1.00  0.00     0.010 C 
HETATM   22  H10 UNL     1      21.897  -0.249  52.806  1.00  0.00     0.153 HD
HETATM   23  H15 UNL     1      18.612  -1.939  54.568  1.00  0.00     0.165 HD
HETATM   24  H20 UNL     1      24.338   3.290  49.519  1.00  0.00     0.160 HD
ENDROOT
BRANCH   1  25
HETATM   25  C5  UNL     1      26.514  -0.310  53.526  1.00  0.00     0.142 C 
BRANCH  25  26
HETATM   26  O1  UNL     1      27.178  -0.502  54.688  1.00  0.00    -0.357 OA
BRANCH  26  27
HETATM   27  C4  UNL     1      28.117   0.508  55.097  1.00  0.00     0.225 C 
BRANCH  27  28
HETATM   28  C3  UNL     1      29.126   0.728  54.007  1.00  0.00     0.032 C 
HETATM   29  C2  UNL     1      29.806  -0.317  53.575  1.00  0.00    -0.009 C 
HETATM   30  C1  UNL     1      30.153  -1.746  53.544  1.00  0.00     0.037 C 
HETATM   31 CL1  UNL     1      28.962   2.495  53.791  1.00  0.00    -0.087 Cl
ENDBRANCH  27  28
ENDBRANCH  26  27
ENDBRANCH  25  26
ENDBRANCH   1  25
TORSDOF 4
ENDMDL
MODEL 4
REMARK VINA RESULT:      -8.9      2.725      6.003
REMARK  4 active torsions:
REMARK  status: ('A' for Active; 'I' for Inactive)
REMARK    1  A    between atoms: C3_3  and  C4_5 
REMARK    2  A    between atoms: C4_5  and  O1_6 
REMARK    3  A    between atoms: O1_6  and  C5_7 
REMARK    4  A    between atoms: C5_7  and  C6_8 
ROOT
HETATM    1  C6  UNL     1      25.836   2.050  51.451  1.00  0.00    -0.031 C 
HETATM    2  C7  UNL     1      24.896   1.463  52.293  1.00  0.00     0.104 C 
HETATM    3  C8  UNL     1      23.774   1.170  52.687  1.00  0.00     0.066 C 
HETATM    4  N1  UNL     1      22.687   0.673  53.396  1.00  0.00    -0.415 N 
HETATM    5  C9  UNL     1      21.659   0.195  54.151  1.00  0.00     0.174 C 
HETATM    6  C10 UNL     1      20.404  -0.218  53.478  1.00  0.00     0.060 C 
HETATM    7  C11 UNL     1      19.788   0.257  52.416  1.00  0.00     0.097 C 
HETATM    8  C12 UNL     1      18.505  -0.337  51.926  1.00  0.00     0.066 C 
HETATM    9  C13 UNL     1      17.754  -1.033  52.824  1.00  0.00     0.018 C 
HETATM   10  C14 UNL     1      18.500  -1.927  53.458  1.00  0.00     0.071 C 
HETATM   11  N2  UNL     1      19.705  -1.365  54.005  1.00  0.00    -0.369 N 
HETATM   12  O2  UNL     1      19.682   1.164  51.333  1.00  0.00    -0.309 OA
HETATM   13  C15 UNL     1      20.433   2.307  51.424  1.00  0.00     0.078 A 
HETATM   14  C16 UNL     1      20.352   3.338  52.321  1.00  0.00     0.037 A 
HETATM   15  C17 UNL     1      21.293   4.348  52.103  1.00  0.00     0.005 A 
HETATM   16  C18 UNL     1      22.149   4.193  51.059  1.00  0.00     0.029 A 
HETATM   17  C19 UNL     1      22.332   3.185  50.070  1.00  0.00     0.031 A 
HETATM   18  C20 UNL     1      21.348   2.283  50.423  1.00  0.00     0.066 A 
HETATM   19  N3  UNL     1      23.424   3.698  49.346  1.00  0.00    -0.380 N 
HETATM   20  C21 UNL     1      24.627   3.222  49.903  1.00  0.00     0.132 C 
HETATM   21  C22 UNL     1      25.875   2.912  50.223  1.00  0.00     0.010 C 
HETATM   22  H10 UNL     1      22.407   0.523  52.376  1.00  0.00     0.153 HD
HETATM   23  H15 UNL     1      20.124  -1.809  54.846  1.00  0.00     0.165 HD
HETATM   24  H20 UNL     1      23.093   4.353  48.614  1.00  0.00     0.160 HD
ENDROOT
BRANCH   1  25
HETATM   25  C5  UNL     1      26.934   1.624  52.013  1.00  0.00     0.142 C 
BRANCH  25  26
HETATM   26  O1  UNL     1      28.080   1.832  52.700  1.00  0.00    -0.357 OA
BRANCH  26  27
HETATM   27  C4  UNL     1      28.039   1.682  54.130  1.00  0.00     0.225 C 
BRANCH  27  28
HETATM   28  C3  UNL     1      27.916   0.228  54.481  1.00  0.00     0.032 C 
HETATM   29  C2  UNL     1      28.882  -0.584  54.094  1.00  0.00    -0.009 C 
HETATM   30  C1  UNL     1      30.171  -0.894  53.458  1.00  0.00     0.037 C 
HETATM   31 CL1  UNL     1      26.336   0.247  55.316  1.00  0.00    -0.087 Cl
ENDBRANCH  27  28
ENDBRANCH  26  27
ENDBRANCH  25  26
ENDBRANCH   1  25
TORSDOF 4
ENDMDL
MODEL 5
REMARK VINA RESULT:      -8.6      2.534      6.767
REMARK  4 active torsions:
REMARK  status: ('A' for Active; 'I' for Inactive)
REMARK    1  A    between atoms: C3_3  and  C4_5 
REMARK    2  A    between atoms: C4_5  and  O1_6 
REMARK    3  A    between atoms: O1_6  and  C5_7 
REMARK    4  A    between atoms: C5_7  and  C6_8 
ROOT
HETATM    1  C6  UNL     1      22.405   3.288  52.187  1.00  0.00    -0.031 C 
HETATM    2  C7  UNL     1      23.685   3.208  52.726  1.00  0.00     0.104 C 
HETATM    3  C8  UNL     1      24.685   2.650  53.161  1.00  0.00     0.066 C 
HETATM    4  N1  UNL     1      25.932   2.356  53.697  1.00  0.00    -0.415 N 
HETATM    5  C9  UNL     1      27.151   2.127  54.262  1.00  0.00     0.174 C 
HETATM    6  C10 UNL     1      27.911   0.917  53.866  1.00  0.00     0.060 C 
HETATM    7  C11 UNL     1      27.512  -0.293  53.535  1.00  0.00     0.097 C 
HETATM    8  C12 UNL     1      28.490  -1.367  53.173  1.00  0.00     0.066 C 
HETATM    9  C13 UNL     1      29.764  -1.234  53.636  1.00  0.00     0.018 C 
HETATM   10  C14 UNL     1      30.235  -0.026  53.358  1.00  0.00     0.071 C 
HETATM   11  N2  UNL     1      29.346   1.029  53.765  1.00  0.00    -0.369 N 
HETATM   12  O2  UNL     1      26.500  -1.256  53.304  1.00  0.00    -0.309 OA
HETATM   13  C15 UNL     1      25.272  -0.988  53.849  1.00  0.00     0.078 A 
HETATM   14  C16 UNL     1      24.901  -0.884  55.163  1.00  0.00     0.037 A 
HETATM   15  C17 UNL     1      23.545  -0.596  55.343  1.00  0.00     0.005 A 
HETATM   16  C18 UNL     1      22.780  -0.458  54.229  1.00  0.00     0.029 A 
HETATM   17  C19 UNL     1      23.041  -0.540  52.832  1.00  0.00     0.031 A 
HETATM   18  C20 UNL     1      24.392  -0.822  52.829  1.00  0.00     0.066 A 
HETATM   19  N3  UNL     1      21.773  -0.256  52.292  1.00  0.00    -0.380 N 
HETATM   20  C21 UNL     1      21.649   1.131  52.081  1.00  0.00     0.132 C 
HETATM   21  C22 UNL     1      21.288   2.371  51.780  1.00  0.00     0.010 C 
HETATM   22  H10 UNL     1      25.816   1.626  52.925  1.00  0.00     0.153 HD
HETATM   23  H15 UNL     1      29.750   1.955  54.006  1.00  0.00     0.165 HD
HETATM   24  H20 UNL     1      21.205  -1.121  52.236  1.00  0.00     0.160 HD
ENDROOT
BRANCH   1  25
HETATM   25  C5  UNL     1      22.306   4.580  52.039  1.00  0.00     0.142 C 
BRANCH  25  26
HETATM   26  O1  UNL     1      22.249   5.692  51.271  1.00  0.00    -0.357 OA
BRANCH  26  27
HETATM   27  C4  UNL     1      22.974   5.684  50.029  1.00  0.00     0.225 C 
BRANCH  27  28
HETATM   28  C3  UNL     1      24.393   6.107  50.271  1.00  0.00     0.032 C 
HETATM   29  C2  UNL     1      25.348   5.227  50.037  1.00  0.00    -0.009 C 
HETATM   30  C1  UNL     1      25.860   3.919  49.600  1.00  0.00     0.037 C 
HETATM   31 CL1  UNL     1      24.120   7.771  50.866  1.00  0.00    -0.087 Cl
ENDBRANCH  27  28
ENDBRANCH  26  27
ENDBRANCH  25  26
ENDBRANCH   1  25
TORSDOF 4
ENDMDL
MODEL 6
REMARK VINA RESULT:      -8.5      2.208      3.465
REMARK  4 active torsions:
REMARK  status: ('A' for Active; 'I' for Inactive)
REMARK    1  A    between atoms: C3_3  and  C4_5 
REMARK    2  A    between atoms: C4_5  and  O1_6 
REMARK    3  A    between atoms: O1_6  and  C5_7 
REMARK    4  A    between atoms: C5_7  and  C6_8 
ROOT
HETATM    1  C6  UNL     1      25.650   2.607  51.215  1.00  0.00    -0.031 C 
HETATM    2  C7  UNL     1      26.561   3.273  50.401  1.00  0.00     0.104 C 
HETATM    3  C8  UNL     1      27.030   4.226  49.791  1.00  0.00     0.066 C 
HETATM    4  N1  UNL     1      27.811   5.063  49.004  1.00  0.00    -0.415 N 
HETATM    5  C9  UNL     1      28.591   5.828  48.191  1.00  0.00     0.174 C 
HETATM    6  C10 UNL     1      28.745   7.272  48.492  1.00  0.00     0.060 C 
HETATM    7  C11 UNL     1      27.906   8.150  49.000  1.00  0.00     0.097 C 
HETATM    8  C12 UNL     1      28.301   9.579  49.207  1.00  0.00     0.066 C 
HETATM    9  C13 UNL     1      29.327  10.060  48.452  1.00  0.00     0.018 C 
HETATM   10  C14 UNL     1      30.372   9.247  48.518  1.00  0.00     0.071 C 
HETATM   11  N2  UNL     1      30.033   7.876  48.247  1.00  0.00    -0.369 N 
HETATM   12  O2  UNL     1      26.646   8.511  49.534  1.00  0.00    -0.309 OA
HETATM   13  C15 UNL     1      25.608   7.655  49.270  1.00  0.00     0.078 A 
HETATM   14  C16 UNL     1      25.029   7.323  48.074  1.00  0.00     0.037 A 
HETATM   15  C17 UNL     1      23.982   6.405  48.193  1.00  0.00     0.005 A 
HETATM   16  C18 UNL     1      23.671   5.964  49.439  1.00  0.00     0.029 A 
HETATM   17  C19 UNL     1      24.188   6.228  50.740  1.00  0.00     0.031 A 
HETATM   18  C20 UNL     1      25.192   7.130  50.451  1.00  0.00     0.066 A 
HETATM   19  N3  UNL     1      23.386   5.389  51.536  1.00  0.00    -0.380 N 
HETATM   20  C21 UNL     1      24.001   4.127  51.662  1.00  0.00     0.132 C 
HETATM   21  C22 UNL     1      24.366   2.885  51.941  1.00  0.00     0.010 C 
HETATM   22  H10 UNL     1      27.548   5.680  49.836  1.00  0.00     0.153 HD
HETATM   23  H15 UNL     1      30.762   7.252  47.848  1.00  0.00     0.165 HD
HETATM   24  H20 UNL     1      22.505   5.871  51.790  1.00  0.00     0.160 HD
ENDROOT
BRANCH   1  25
HETATM   25  C5  UNL     1      26.224   1.437  51.282  1.00  0.00     0.142 C 
BRANCH  25  26
HETATM   26  O1  UNL     1      26.851   0.453  51.965  1.00  0.00    -0.357 OA
BRANCH  26  27
HETATM   27  C4  UNL     1      27.170   0.697  53.346  1.00  0.00     0.225 C 
BRANCH  27  28
HETATM   28  C3  UNL     1      28.654   0.863  53.498  1.00  0.00     0.032 C 
HETATM   29  C2  UNL     1      29.397  -0.227  53.526  1.00  0.00    -0.009 C 
HETATM   30  C1  UNL     1      29.612  -1.681  53.460  1.00  0.00     0.037 C 
HETATM   31 CL1  UNL     1      28.753   2.643  53.627  1.00  0.00    -0.087 Cl
ENDBRANCH  27  28
ENDBRANCH  26  27
ENDBRANCH  25  26
ENDBRANCH   1  25
TORSDOF 4
ENDMDL
MODEL 7
REMARK VINA RESULT:      -8.0      4.576      7.508
REMARK  4 active torsions:
REMARK  status: ('A' for Active; 'I' for Inactive)
REMARK    1  A    between atoms: C3_3  and  C4_5 
REMARK    2  A    between atoms: C4_5  and  O1_6 
REMARK    3  A    between atoms: O1_6  and  C5_7 
REMARK    4  A    between atoms: C5_7  and  C6_8 
ROOT
HETATM    1  C6  UNL     1      26.623   5.318  49.057  1.00  0.00    -0.031 C 
HETATM    2  C7  UNL     1      27.908   5.000  48.629  1.00  0.00     0.104 C 
HETATM    3  C8  UNL     1      29.061   5.226  48.282  1.00  0.00     0.066 C 
HETATM    4  N1  UNL     1      30.380   5.122  47.855  1.00  0.00    -0.415 N 
HETATM    5  C9  UNL     1      31.653   4.966  47.396  1.00  0.00     0.174 C 
HETATM    6  C10 UNL     1      32.704   5.905  47.856  1.00  0.00     0.060 C 
HETATM    7  C11 UNL     1      32.657   7.187  48.151  1.00  0.00     0.097 C 
HETATM    8  C12 UNL     1      33.877   7.932  48.595  1.00  0.00     0.066 C 
HETATM    9  C13 UNL     1      35.088   7.415  48.244  1.00  0.00     0.018 C 
HETATM   10  C14 UNL     1      35.153   6.130  48.562  1.00  0.00     0.071 C 
HETATM   11  N2  UNL     1      34.027   5.376  48.080  1.00  0.00    -0.369 N 
HETATM   12  O2  UNL     1      31.963   8.413  48.294  1.00  0.00    -0.309 OA
HETATM   13  C15 UNL     1      30.759   8.507  47.645  1.00  0.00     0.078 A 
HETATM   14  C16 UNL     1      30.482   8.483  46.304  1.00  0.00     0.037 A 
HETATM   15  C17 UNL     1      29.122   8.606  46.009  1.00  0.00     0.005 A 
HETATM   16  C18 UNL     1      28.262   8.730  47.052  1.00  0.00     0.029 A 
HETATM   17  C19 UNL     1      28.421   8.767  48.467  1.00  0.00     0.031 A 
HETATM   18  C20 UNL     1      29.790   8.636  48.586  1.00  0.00     0.066 A 
HETATM   19  N3  UNL     1      27.086   8.886  48.896  1.00  0.00    -0.380 N 
HETATM   20  C21 UNL     1      26.537   7.603  49.097  1.00  0.00     0.132 C 
HETATM   21  C22 UNL     1      25.801   6.535  49.366  1.00  0.00     0.010 C 
HETATM   22  H10 UNL     1      30.423   5.874  48.614  1.00  0.00     0.153 HD
HETATM   23  H15 UNL     1      34.156   4.365  47.875  1.00  0.00     0.165 HD
HETATM   24  H20 UNL     1      26.798   9.881  48.903  1.00  0.00     0.160 HD
ENDROOT
BRANCH   1  25
HETATM   25  C5  UNL     1      26.132   4.117  49.196  1.00  0.00     0.142 C 
BRANCH  25  26
HETATM   26  O1  UNL     1      25.667   3.100  49.956  1.00  0.00    -0.357 OA
BRANCH  26  27
HETATM   27  C4  UNL     1      26.472   2.673  51.068  1.00  0.00     0.225 C 
BRANCH  27  28
HETATM   28  C3  UNL     1      25.617   1.933  52.054  1.00  0.00     0.032 C 
HETATM   29  C2  UNL     1      25.930   0.680  52.325  1.00  0.00    -0.009 C 
HETATM   30  C1  UNL     1      26.757  -0.531  52.203  1.00  0.00     0.037 C 
HETATM   31 CL1  UNL     1      24.412   3.200  52.427  1.00  0.00    -0.087 Cl
ENDBRANCH  27  28
ENDBRANCH  26  27
ENDBRANCH  25  26
ENDBRANCH   1  25
TORSDOF 4
ENDMDL
MODEL 8
REMARK VINA RESULT:      -8.0      3.025      5.110
REMARK  4 active torsions:
REMARK  status: ('A' for Active; 'I' for Inactive)
REMARK    1  A    between atoms: C3_3  and  C4_5 
REMARK    2  A    between atoms: C4_5  and  O1_6 
REMARK    3  A    between atoms: O1_6  and  C5_7 
REMARK    4  A    between atoms: C5_7  and  C6_8 
ROOT
HETATM    1  C6  UNL     1      24.572   3.739  50.890  1.00  0.00    -0.031 C 
HETATM    2  C7  UNL     1      25.725   3.939  50.138  1.00  0.00     0.104 C 
HETATM    3  C8  UNL     1      26.591   4.592  49.569  1.00  0.00     0.066 C 
HETATM    4  N1  UNL     1      27.700   5.003  48.840  1.00  0.00    -0.415 N 
HETATM    5  C9  UNL     1      28.778   5.351  48.083  1.00  0.00     0.174 C 
HETATM    6  C10 UNL     1      29.519   6.592  48.412  1.00  0.00     0.060 C 
HETATM    7  C11 UNL     1      29.110   7.751  48.884  1.00  0.00     0.097 C 
HETATM    8  C12 UNL     1      30.066   8.875  49.133  1.00  0.00     0.066 C 
HETATM    9  C13 UNL     1      31.242   8.860  48.444  1.00  0.00     0.018 C 
HETATM   10  C14 UNL     1      31.831   7.678  48.558  1.00  0.00     0.071 C 
HETATM   11  N2  UNL     1      30.953   6.582  48.250  1.00  0.00    -0.369 N 
HETATM   12  O2  UNL     1      28.098   8.624  49.350  1.00  0.00    -0.309 OA
HETATM   13  C15 UNL     1      26.810   8.293  49.015  1.00  0.00     0.078 A 
HETATM   14  C16 UNL     1      26.215   8.227  47.784  1.00  0.00     0.037 A 
HETATM   15  C17 UNL     1      24.870   7.849  47.830  1.00  0.00     0.005 A 
HETATM   16  C18 UNL     1      24.330   7.599  49.051  1.00  0.00     0.029 A 
HETATM   17  C19 UNL     1      24.834   7.631  50.382  1.00  0.00     0.031 A 
HETATM   18  C20 UNL     1      26.143   8.012  50.163  1.00  0.00     0.066 A 
HETATM   19  N3  UNL     1      23.706   7.227  51.119  1.00  0.00    -0.380 N 
HETATM   20  C21 UNL     1      23.711   5.825  51.263  1.00  0.00     0.132 C 
HETATM   21  C22 UNL     1      23.491   4.549  51.544  1.00  0.00     0.010 C 
HETATM   22  H10 UNL     1      27.679   5.683  49.664  1.00  0.00     0.153 HD
HETATM   23  H15 UNL     1      31.365   5.701  47.884  1.00  0.00     0.165 HD
HETATM   24  H20 UNL     1      23.103   8.043  51.329  1.00  0.00     0.160 HD
ENDROOT
BRANCH   1  25
HETATM   25  C5  UNL     1      24.584   2.437  50.972  1.00  0.00     0.142 C 
BRANCH  25  26
HETATM   26  O1  UNL     1      24.222   1.276  51.564  1.00  0.00    -0.357 OA
BRANCH  26  27
HETATM   27  C4  UNL     1      24.209   1.234  53.002  1.00  0.00     0.225 C 
BRANCH  27  28
HETATM   28  C3  UNL     1      24.216  -0.194  53.464  1.00  0.00     0.032 C 
HETATM   29  C2  UNL     1      23.144  -0.648  54.085  1.00  0.00    -0.009 C 
HETATM   30  C1  UNL     1      21.779  -0.530  54.619  1.00  0.00     0.037 C 
HETATM   31 CL1  UNL     1      25.859  -0.675  52.946  1.00  0.00    -0.087 Cl
ENDBRANCH  27  28
ENDBRANCH  26  27
ENDBRANCH  25  26
ENDBRANCH   1  25
TORSDOF 4
ENDMDL
MODEL 9
REMARK VINA RESULT:      -7.7      4.372      7.725
REMARK  4 active torsions:
REMARK  status: ('A' for Active; 'I' for Inactive)
REMARK    1  A    between atoms: C3_3  and  C4_5 
REMARK    2  A    between atoms: C4_5  and  O1_6 
REMARK    3  A    between atoms: O1_6  and  C5_7 
REMARK    4  A    between atoms: C5_7  and  C6_8 
ROOT
HETATM    1  C6  UNL     1      30.332   6.187  47.499  1.00  0.00    -0.031 C 
HETATM    2  C7  UNL     1      29.356   5.425  48.134  1.00  0.00     0.104 C 
HETATM    3  C8  UNL     1      28.241   5.175  48.574  1.00  0.00     0.066 C 
HETATM    4  N1  UNL     1      27.135   4.583  49.172  1.00  0.00    -0.415 N 
HETATM    5  C9  UNL     1      26.095   3.973  49.806  1.00  0.00     0.174 C 
HETATM    6  C10 UNL     1      24.715   4.207  49.314  1.00  0.00     0.060 C 
HETATM    7  C11 UNL     1      24.149   5.270  48.784  1.00  0.00     0.097 C 
HETATM    8  C12 UNL     1      22.712   5.263  48.364  1.00  0.00     0.066 C 
HETATM    9  C13 UNL     1      21.894   4.346  48.952  1.00  0.00     0.018 C 
HETATM   10  C14 UNL     1      22.431   3.136  48.888  1.00  0.00     0.071 C 
HETATM   11  N2  UNL     1      23.790   3.101  49.358  1.00  0.00    -0.369 N 
HETATM   12  O2  UNL     1      24.184   6.612  48.332  1.00  0.00    -0.309 OA
HETATM   13  C15 UNL     1      25.218   7.381  48.798  1.00  0.00     0.078 A 
HETATM   14  C16 UNL     1      25.505   7.783  50.075  1.00  0.00     0.037 A 
HETATM   15  C17 UNL     1      26.655   8.570  50.173  1.00  0.00     0.005 A 
HETATM   16  C18 UNL     1      27.332   8.836  49.026  1.00  0.00     0.029 A 
HETATM   17  C19 UNL     1      27.142   8.483  47.659  1.00  0.00     0.031 A 
HETATM   18  C20 UNL     1      25.992   7.724  47.737  1.00  0.00     0.066 A 
HETATM   19  N3  UNL     1      28.255   9.095  47.054  1.00  0.00    -0.380 N 
HETATM   20  C21 UNL     1      29.336   8.191  47.027  1.00  0.00     0.132 C 
HETATM   21  C22 UNL     1      30.481   7.542  46.871  1.00  0.00     0.010 C 
HETATM   22  H10 UNL     1      26.727   5.045  48.299  1.00  0.00     0.153 HD
HETATM   23  H15 UNL     1      24.155   2.215  49.760  1.00  0.00     0.165 HD
HETATM   24  H20 UNL     1      28.043  10.084  46.827  1.00  0.00     0.160 HD
ENDROOT
BRANCH   1  25
HETATM   25  C5  UNL     1      31.325   5.342  47.524  1.00  0.00     0.142 C 
BRANCH  25  26
HETATM   26  O1  UNL     1      31.980   4.286  48.059  1.00  0.00    -0.357 OA
BRANCH  26  27
HETATM   27  C4  UNL     1      32.509   3.300  47.155  1.00  0.00     0.225 C 
BRANCH  27  28
HETATM   28  C3  UNL     1      33.832   3.766  46.620  1.00  0.00     0.032 C 
HETATM   29  C2  UNL     1      33.861   4.268  45.400  1.00  0.00    -0.009 C 
HETATM   30  C1  UNL     1      33.248   4.697  44.133  1.00  0.00     0.037 C 
HETATM   31 CL1  UNL     1      34.886   3.353  48.003  1.00  0.00    -0.087 Cl
ENDBRANCH  27  28
ENDBRANCH  26  27
ENDBRANCH  25  26
ENDBRANCH   1  25
TORSDOF 4
ENDMDL
