MODEL 1
REMARK VINA RESULT:      -7.9      0.000      0.000
REMARK  4 active torsions:
REMARK  status: ('A' for Active; 'I' for Inactive)
REMARK    1  A    between atoms: N1_2  and  C3_4 
REMARK    2  A    between atoms: C3_4  and  C4_5 
REMARK    3  A    between atoms: C4_5  and  C5_6 
REMARK    4  A    between atoms: C7_9  and  C8_10 
ROOT
HETATM    1  C8  UNL     1      25.858   4.071  49.535  1.00  0.00     0.017 C 
HETATM    2  C9  UNL     1      24.528   3.627  49.329  1.00  0.00     0.098 C 
HETATM    3  N2  UNL     1      23.233   3.046  49.239  1.00  0.00    -0.250 N 
HETATM    4  O2  UNL     1      22.837   3.112  50.578  1.00  0.00    -0.113 OA
HETATM    5  O3  UNL     1      23.581   2.223  51.115  1.00  0.00    -0.213 OA
HETATM    6  C10 UNL     1      23.762   2.220  52.462  1.00  0.00     0.251 C 
HETATM    7  C11 UNL     1      24.744   1.050  52.722  1.00  0.00    -0.025 A 
HETATM    8  C12 UNL     1      24.430   0.138  53.687  1.00  0.00     0.010 A 
HETATM    9  C13 UNL     1      25.367  -0.858  53.707  1.00  0.00     0.001 A 
HETATM   10  C14 UNL     1      26.491  -1.055  52.953  1.00  0.00     0.001 A 
HETATM   11  C15 UNL     1      26.676  -0.054  52.025  1.00  0.00     0.008 A 
HETATM   12  C16 UNL     1      25.841   1.070  51.824  1.00  0.00    -0.044 A 
HETATM   13  C17 UNL     1      25.855   2.226  50.940  1.00  0.00     0.057 C 
HETATM   14  C18 UNL     1      26.691   3.201  50.546  1.00  0.00    -0.006 C 
HETATM   15  H14 UNL     1      22.822   2.698  48.374  1.00  0.00     0.196 HD
ENDROOT
BRANCH   1  16
HETATM   16  C7  UNL     1      26.638   5.303  48.932  1.00  0.00     0.204 A 
HETATM   17  C6  UNL     1      27.844   4.898  48.588  1.00  0.00     0.038 A 
HETATM   18  C5  UNL     1      28.285   6.188  48.096  1.00  0.00     0.047 A 
HETATM   19  O1  UNL     1      27.135   6.557  48.431  1.00  0.00    -0.345 OA
BRANCH  18  20
HETATM   20  C4  UNL     1      29.000   7.364  47.532  1.00  0.00     0.094 C 
BRANCH  20  21
HETATM   21  C3  UNL     1      30.483   7.070  47.608  1.00  0.00     0.277 C 
BRANCH  21  22
HETATM   22  N1  UNL     1      30.880   7.002  48.995  1.00  0.00     0.080 N 
HETATM   23  C1  UNL     1      31.451   8.276  49.397  1.00  0.00     0.309 C 
HETATM   24  C2  UNL     1      31.852   5.941  49.216  1.00  0.00     0.309 C 
ENDBRANCH  21  22
ENDBRANCH  20  21
ENDBRANCH  18  20
ENDBRANCH   1  16
TORSDOF 4
ENDMDL
MODEL 2
REMARK VINA RESULT:      -7.6      2.689      3.913
REMARK  4 active torsions:
REMARK  status: ('A' for Active; 'I' for Inactive)
REMARK    1  A    between atoms: N1_2  and  C3_4 
REMARK    2  A    between atoms: C3_4  and  C4_5 
REMARK    3  A    between atoms: C4_5  and  C5_6 
REMARK    4  A    between atoms: C7_9  and  C8_10 
ROOT
HETATM    1  C8  UNL     1      25.677   2.415  51.898  1.00  0.00     0.017 C 
HETATM    2  C9  UNL     1      26.149   2.022  53.175  1.00  0.00     0.098 C 
HETATM    3  N2  UNL     1      26.459   1.553  54.481  1.00  0.00    -0.250 N 
HETATM    4  O2  UNL     1      26.265   0.180  54.304  1.00  0.00    -0.113 OA
HETATM    5  O3  UNL     1      24.993   0.107  54.200  1.00  0.00    -0.213 OA
HETATM    6  C10 UNL     1      24.424  -1.005  53.664  1.00  0.00     0.251 C 
HETATM    7  C11 UNL     1      22.904  -0.704  53.662  1.00  0.00    -0.025 A 
HETATM    8  C12 UNL     1      22.054  -1.638  54.177  1.00  0.00     0.010 A 
HETATM    9  C13 UNL     1      20.773  -1.157  54.166  1.00  0.00     0.001 A 
HETATM   10  C14 UNL     1      20.263   0.039  53.743  1.00  0.00     0.001 A 
HETATM   11  C15 UNL     1      21.240   0.875  53.247  1.00  0.00     0.008 A 
HETATM   12  C16 UNL     1      22.623   0.591  53.160  1.00  0.00    -0.044 A 
HETATM   13  C17 UNL     1      23.796   1.299  52.669  1.00  0.00     0.057 C 
HETATM   14  C18 UNL     1      24.207   1.960  51.574  1.00  0.00    -0.006 C 
HETATM   15  H14 UNL     1      26.723   2.157  55.258  1.00  0.00     0.196 HD
ENDROOT
BRANCH   1  16
HETATM   16  C7  UNL     1      26.386   3.217  50.739  1.00  0.00     0.204 A 
HETATM   17  C6  UNL     1      25.646   4.270  50.456  1.00  0.00     0.038 A 
HETATM   18  C5  UNL     1      26.518   4.772  49.412  1.00  0.00     0.047 A 
HETATM   19  O1  UNL     1      27.210   3.765  49.694  1.00  0.00    -0.345 OA
BRANCH  18  20
HETATM   20  C4  UNL     1      27.205   5.511  48.319  1.00  0.00     0.094 C 
BRANCH  20  21
HETATM   21  C3  UNL     1      27.209   6.977  48.699  1.00  0.00     0.277 C 
BRANCH  21  22
HETATM   22  N1  UNL     1      28.543   7.504  48.532  1.00  0.00     0.080 N 
HETATM   23  C1  UNL     1      28.597   8.856  49.058  1.00  0.00     0.309 C 
HETATM   24  C2  UNL     1      28.939   7.509  47.132  1.00  0.00     0.309 C 
ENDBRANCH  21  22
ENDBRANCH  20  21
ENDBRANCH  18  20
ENDBRANCH   1  16
TORSDOF 4
ENDMDL
MODEL 3
REMARK VINA RESULT:      -7.5      2.407      7.789
REMARK  4 active torsions:
REMARK  status: ('A' for Active; 'I' for Inactive)
REMARK    1  A    between atoms: N1_2  and  C3_4 
REMARK    2  A    between atoms: C3_4  and  C4_5 
REMARK    3  A    between atoms: C4_5  and  C5_6 
REMARK    4  A    between atoms: C7_9  and  C8_10 
ROOT
HETATM    1  C8  UNL     1      24.818   4.190  50.785  1.00  0.00     0.017 C 
HETATM    2  C9  UNL     1      24.481   5.484  51.257  1.00  0.00     0.098 C 
HETATM    3  N2  UNL     1      24.262   6.845  51.606  1.00  0.00    -0.250 N 
HETATM    4  O2  UNL     1      23.813   7.346  50.380  1.00  0.00    -0.113 OA
HETATM    5  O3  UNL     1      24.884   7.333  49.684  1.00  0.00    -0.213 OA
HETATM    6  C10 UNL     1      24.808   7.408  48.329  1.00  0.00     0.251 C 
HETATM    7  C11 UNL     1      26.278   7.316  47.849  1.00  0.00    -0.025 A 
HETATM    8  C12 UNL     1      26.731   8.241  46.955  1.00  0.00     0.010 A 
HETATM    9  C13 UNL     1      28.065   8.048  46.722  1.00  0.00     0.001 A 
HETATM   10  C14 UNL     1      28.944   7.128  47.221  1.00  0.00     0.001 A 
HETATM   11  C15 UNL     1      28.342   6.262  48.108  1.00  0.00     0.008 A 
HETATM   12  C16 UNL     1      26.982   6.271  48.498  1.00  0.00    -0.044 A 
HETATM   13  C17 UNL     1      26.153   5.463  49.379  1.00  0.00     0.057 C 
HETATM   14  C18 UNL     1      25.859   4.171  49.607  1.00  0.00    -0.006 C 
HETATM   15  H14 UNL     1      24.438   7.233  52.531  1.00  0.00     0.196 HD
ENDROOT
BRANCH   1  16
HETATM   16  C7  UNL     1      24.308   2.766  51.233  1.00  0.00     0.204 A 
HETATM   17  C6  UNL     1      24.454   2.669  52.540  1.00  0.00     0.038 A 
HETATM   18  C5  UNL     1      23.926   1.322  52.636  1.00  0.00     0.047 A 
HETATM   19  O1  UNL     1      23.796   1.430  51.394  1.00  0.00    -0.345 OA
BRANCH  18  20
HETATM   20  C4  UNL     1      23.441  -0.026  53.035  1.00  0.00     0.094 C 
BRANCH  20  21
HETATM   21  C3  UNL     1      24.414  -0.572  54.058  1.00  0.00     0.277 C 
BRANCH  21  22
HETATM   22  N1  UNL     1      25.756  -0.196  53.680  1.00  0.00     0.080 N 
HETATM   23  C1  UNL     1      26.383  -1.296  52.968  1.00  0.00     0.309 C 
HETATM   24  C2  UNL     1      26.556   0.150  54.845  1.00  0.00     0.309 C 
ENDBRANCH  21  22
ENDBRANCH  20  21
ENDBRANCH  18  20
ENDBRANCH   1  16
TORSDOF 4
ENDMDL
MODEL 4
REMARK VINA RESULT:      -7.4      2.135      3.016
REMARK  4 active torsions:
REMARK  status: ('A' for Active; 'I' for Inactive)
REMARK    1  A    between atoms: N1_2  and  C3_4 
REMARK    2  A    between atoms: C3_4  and  C4_5 
REMARK    3  A    between atoms: C4_5  and  C5_6 
REMARK    4  A    between atoms: C7_9  and  C8_10 
ROOT
HETATM    1  C8  UNL     1      23.611   2.862  49.897  1.00  0.00     0.017 C 
HETATM    2  C9  UNL     1      22.624   2.088  49.237  1.00  0.00     0.098 C 
HETATM    3  N2  UNL     1      21.618   1.219  48.732  1.00  0.00    -0.250 N 
HETATM    4  O2  UNL     1      20.578   1.498  49.623  1.00  0.00    -0.113 OA
HETATM    5  O3  UNL     1      21.002   0.954  50.699  1.00  0.00    -0.213 OA
HETATM    6  C10 UNL     1      20.453   1.302  51.892  1.00  0.00     0.251 C 
HETATM    7  C11 UNL     1      21.245   0.483  52.941  1.00  0.00    -0.025 A 
HETATM    8  C12 UNL     1      20.549  -0.229  53.873  1.00  0.00     0.010 A 
HETATM    9  C13 UNL     1      21.415  -0.949  54.650  1.00  0.00     0.001 A 
HETATM   10  C14 UNL     1      22.778  -1.050  54.625  1.00  0.00     0.001 A 
HETATM   11  C15 UNL     1      23.339  -0.274  53.634  1.00  0.00     0.008 A 
HETATM   12  C16 UNL     1      22.643   0.549  52.718  1.00  0.00    -0.044 A 
HETATM   13  C17 UNL     1      23.023   1.441  51.633  1.00  0.00     0.057 C 
HETATM   14  C18 UNL     1      23.861   2.466  51.398  1.00  0.00    -0.006 C 
HETATM   15  H14 UNL     1      21.748   0.595  47.936  1.00  0.00     0.196 HD
ENDROOT
BRANCH   1  16
HETATM   16  C7  UNL     1      24.488   4.068  49.382  1.00  0.00     0.204 A 
HETATM   17  C6  UNL     1      25.753   3.794  49.635  1.00  0.00     0.038 A 
HETATM   18  C5  UNL     1      26.273   5.026  49.075  1.00  0.00     0.047 A 
HETATM   19  O1  UNL     1      25.066   5.271  48.843  1.00  0.00    -0.345 OA
BRANCH  18  20
HETATM   20  C4  UNL     1      27.080   6.174  48.582  1.00  0.00     0.094 C 
BRANCH  20  21
HETATM   21  C3  UNL     1      28.477   5.661  48.309  1.00  0.00     0.277 C 
BRANCH  21  22
HETATM   22  N1  UNL     1      29.410   6.760  48.398  1.00  0.00     0.080 N 
HETATM   23  C1  UNL     1      28.678   8.000  48.584  1.00  0.00     0.309 C 
HETATM   24  C2  UNL     1      30.232   6.854  47.201  1.00  0.00     0.309 C 
ENDBRANCH  21  22
ENDBRANCH  20  21
ENDBRANCH  18  20
ENDBRANCH   1  16
TORSDOF 4
ENDMDL
MODEL 5
REMARK VINA RESULT:      -7.3      2.760      8.520
REMARK  4 active torsions:
REMARK  status: ('A' for Active; 'I' for Inactive)
REMARK    1  A    between atoms: N1_2  and  C3_4 
REMARK    2  A    between atoms: C3_4  and  C4_5 
REMARK    3  A    between atoms: C4_5  and  C5_6 
REMARK    4  A    between atoms: C7_9  and  C8_10 
ROOT
HETATM    1  C8  UNL     1      24.507   4.136  50.723  1.00  0.00     0.017 C 
HETATM    2  C9  UNL     1      24.347   5.451  51.227  1.00  0.00     0.098 C 
HETATM    3  N2  UNL     1      24.321   6.818  51.618  1.00  0.00    -0.250 N 
HETATM    4  O2  UNL     1      24.037   7.423  50.390  1.00  0.00    -0.113 OA
HETATM    5  O3  UNL     1      25.135   7.261  49.758  1.00  0.00    -0.213 OA
HETATM    6  C10 UNL     1      25.160   7.390  48.405  1.00  0.00     0.251 C 
HETATM    7  C11 UNL     1      26.625   7.081  48.009  1.00  0.00    -0.025 A 
HETATM    8  C12 UNL     1      27.274   7.951  47.183  1.00  0.00     0.010 A 
HETATM    9  C13 UNL     1      28.574   7.556  47.020  1.00  0.00     0.001 A 
HETATM   10  C14 UNL     1      29.264   6.492  47.532  1.00  0.00     0.001 A 
HETATM   11  C15 UNL     1      28.477   5.705  48.345  1.00  0.00     0.008 A 
HETATM   12  C16 UNL     1      27.113   5.918  48.655  1.00  0.00    -0.044 A 
HETATM   13  C17 UNL     1      26.112   5.225  49.452  1.00  0.00     0.057 C 
HETATM   14  C18 UNL     1      25.606   3.989  49.608  1.00  0.00    -0.006 C 
HETATM   15  H14 UNL     1      24.496   7.144  52.568  1.00  0.00     0.196 HD
ENDROOT
BRANCH   1  16
HETATM   16  C7  UNL     1      23.753   2.797  51.081  1.00  0.00     0.204 A 
HETATM   17  C6  UNL     1      23.122   2.974  52.224  1.00  0.00     0.038 A 
HETATM   18  C5  UNL     1      22.558   1.640  52.276  1.00  0.00     0.047 A 
HETATM   19  O1  UNL     1      23.165   1.488  51.190  1.00  0.00    -0.345 OA
BRANCH  18  20
HETATM   20  C4  UNL     1      21.856   0.367  52.593  1.00  0.00     0.094 C 
BRANCH  20  21
HETATM   21  C3  UNL     1      21.223   0.529  53.958  1.00  0.00     0.277 C 
BRANCH  21  22
HETATM   22  N1  UNL     1      21.465  -0.665  54.735  1.00  0.00     0.080 N 
HETATM   23  C1  UNL     1      22.874  -1.009  54.665  1.00  0.00     0.309 C 
HETATM   24  C2  UNL     1      20.665  -1.781  54.253  1.00  0.00     0.309 C 
ENDBRANCH  21  22
ENDBRANCH  20  21
ENDBRANCH  18  20
ENDBRANCH   1  16
TORSDOF 4
ENDMDL
MODEL 6
REMARK VINA RESULT:      -7.2      2.415      3.065
REMARK  4 active torsions:
REMARK  status: ('A' for Active; 'I' for Inactive)
REMARK    1  A    between atoms: N1_2  and  C3_4 
REMARK    2  A    between atoms: C3_4  and  C4_5 
REMARK    3  A    between atoms: C4_5  and  C5_6 
REMARK    4  A    between atoms: C7_9  and  C8_10 
ROOT
HETATM    1  C8  UNL     1      25.334   5.161  49.863  1.00  0.00     0.017 C 
HETATM    2  C9  UNL     1      24.539   5.657  50.926  1.00  0.00     0.098 C 
HETATM    3  N2  UNL     1      23.642   6.004  51.974  1.00  0.00    -0.250 N 
HETATM    4  O2  UNL     1      23.821   4.911  52.826  1.00  0.00    -0.113 OA
HETATM    5  O3  UNL     1      23.249   3.973  52.173  1.00  0.00    -0.213 OA
HETATM    6  C10 UNL     1      23.510   2.677  52.487  1.00  0.00     0.251 C 
HETATM    7  C11 UNL     1      22.686   1.853  51.466  1.00  0.00    -0.025 A 
HETATM    8  C12 UNL     1      21.893   0.846  51.931  1.00  0.00     0.010 A 
HETATM    9  C13 UNL     1      21.184   0.298  50.897  1.00  0.00     0.001 A 
HETATM   10  C14 UNL     1      21.159   0.596  49.562  1.00  0.00     0.001 A 
HETATM   11  C15 UNL     1      22.011   1.632  49.246  1.00  0.00     0.008 A 
HETATM   12  C16 UNL     1      22.838   2.344  50.145  1.00  0.00    -0.044 A 
HETATM   13  C17 UNL     1      23.801   3.429  50.029  1.00  0.00     0.057 C 
HETATM   14  C18 UNL     1      24.880   3.764  49.301  1.00  0.00    -0.006 C 
HETATM   15  H14 UNL     1      23.066   6.844  51.978  1.00  0.00     0.196 HD
ENDROOT
BRANCH   1  16
HETATM   16  C7  UNL     1      26.609   5.768  49.160  1.00  0.00     0.204 A 
HETATM   17  C6  UNL     1      27.448   4.783  48.909  1.00  0.00     0.038 A 
HETATM   18  C5  UNL     1      28.461   5.619  48.297  1.00  0.00     0.047 A 
HETATM   19  O1  UNL     1      27.652   6.545  48.543  1.00  0.00    -0.345 OA
BRANCH  18  20
HETATM   20  C4  UNL     1      29.654   6.214  47.636  1.00  0.00     0.094 C 
BRANCH  20  21
HETATM   21  C3  UNL     1      30.855   5.892  48.498  1.00  0.00     0.277 C 
BRANCH  21  22
HETATM   22  N1  UNL     1      31.987   5.613  47.646  1.00  0.00     0.080 N 
HETATM   23  C1  UNL     1      31.960   4.216  47.250  1.00  0.00     0.309 C 
HETATM   24  C2  UNL     1      33.243   5.903  48.322  1.00  0.00     0.309 C 
ENDBRANCH  21  22
ENDBRANCH  20  21
ENDBRANCH  18  20
ENDBRANCH   1  16
TORSDOF 4
ENDMDL
MODEL 7
REMARK VINA RESULT:      -7.0      5.276     10.484
REMARK  4 active torsions:
REMARK  status: ('A' for Active; 'I' for Inactive)
REMARK    1  A    between atoms: N1_2  and  C3_4 
REMARK    2  A    between atoms: C3_4  and  C4_5 
REMARK    3  A    between atoms: C4_5  and  C5_6 
REMARK    4  A    between atoms: C7_9  and  C8_10 
ROOT
HETATM    1  C8  UNL     1      20.889   0.707  52.645  1.00  0.00     0.017 C 
HETATM    2  C9  UNL     1      21.157   2.088  52.471  1.00  0.00     0.098 C 
HETATM    3  N2  UNL     1      21.602   3.431  52.323  1.00  0.00    -0.250 N 
HETATM    4  O2  UNL     1      22.473   3.286  51.240  1.00  0.00    -0.113 OA
HETATM    5  O3  UNL     1      23.447   2.652  51.770  1.00  0.00    -0.213 OA
HETATM    6  C10 UNL     1      24.341   2.005  50.977  1.00  0.00     0.251 C 
HETATM    7  C11 UNL     1      25.325   1.330  51.966  1.00  0.00    -0.025 A 
HETATM    8  C12 UNL     1      26.664   1.497  51.769  1.00  0.00     0.010 A 
HETATM    9  C13 UNL     1      27.360   0.904  52.786  1.00  0.00     0.001 A 
HETATM   10  C14 UNL     1      26.936   0.219  53.891  1.00  0.00     0.001 A 
HETATM   11  C15 UNL     1      25.562   0.131  53.951  1.00  0.00     0.008 A 
HETATM   12  C16 UNL     1      24.645   0.665  53.017  1.00  0.00    -0.044 A 
HETATM   13  C17 UNL     1      23.196   0.676  52.878  1.00  0.00     0.057 C 
HETATM   14  C18 UNL     1      22.161  -0.182  52.894  1.00  0.00    -0.006 C 
HETATM   15  H14 UNL     1      21.304   4.200  52.921  1.00  0.00     0.196 HD
ENDROOT
BRANCH   1  16
HETATM   16  C7  UNL     1      19.528  -0.090  52.612  1.00  0.00     0.204 A 
HETATM   17  C6  UNL     1      19.602  -1.067  53.493  1.00  0.00     0.038 A 
HETATM   18  C5  UNL     1      18.273  -1.584  53.234  1.00  0.00     0.047 A 
HETATM   19  O1  UNL     1      18.219  -0.650  52.400  1.00  0.00    -0.345 OA
BRANCH  18  20
HETATM   20  C4  UNL     1      16.981  -2.321  53.185  1.00  0.00     0.094 C 
BRANCH  20  21
HETATM   21  C3  UNL     1      17.251  -3.737  53.645  1.00  0.00     0.277 C 
BRANCH  21  22
HETATM   22  N1  UNL     1      16.166  -4.588  53.216  1.00  0.00     0.080 N 
HETATM   23  C1  UNL     1      15.113  -3.772  52.636  1.00  0.00     0.309 C 
HETATM   24  C2  UNL     1      15.629  -5.361  54.326  1.00  0.00     0.309 C 
ENDBRANCH  21  22
ENDBRANCH  20  21
ENDBRANCH  18  20
ENDBRANCH   1  16
TORSDOF 4
ENDMDL
MODEL 8
REMARK VINA RESULT:      -7.0      2.351      2.951
REMARK  4 active torsions:
REMARK  status: ('A' for Active; 'I' for Inactive)
REMARK    1  A    between atoms: N1_2  and  C3_4 
REMARK    2  A    between atoms: C3_4  and  C4_5 
REMARK    3  A    between atoms: C4_5  and  C5_6 
REMARK    4  A    between atoms: C7_9  and  C8_10 
ROOT
HETATM    1  C8  UNL     1      25.457   4.666  49.777  1.00  0.00     0.017 C 
HETATM    2  C9  UNL     1      24.726   5.335  50.790  1.00  0.00     0.098 C 
HETATM    3  N2  UNL     1      23.879   5.863  51.804  1.00  0.00    -0.250 N 
HETATM    4  O2  UNL     1      23.978   4.850  52.762  1.00  0.00    -0.113 OA
HETATM    5  O3  UNL     1      23.316   3.905  52.213  1.00  0.00    -0.213 OA
HETATM    6  C10 UNL     1      23.470   2.630  52.657  1.00  0.00     0.251 C 
HETATM    7  C11 UNL     1      22.561   1.782  51.732  1.00  0.00    -0.025 A 
HETATM    8  C12 UNL     1      21.692   0.899  52.303  1.00  0.00     0.010 A 
HETATM    9  C13 UNL     1      20.921   0.314  51.336  1.00  0.00     0.001 A 
HETATM   10  C14 UNL     1      20.901   0.476  49.978  1.00  0.00     0.001 A 
HETATM   11  C15 UNL     1      21.833   1.396  49.551  1.00  0.00     0.008 A 
HETATM   12  C16 UNL     1      22.733   2.120  50.366  1.00  0.00    -0.044 A 
HETATM   13  C17 UNL     1      23.784   3.100  50.132  1.00  0.00     0.057 C 
HETATM   14  C18 UNL     1      24.875   3.264  49.365  1.00  0.00    -0.006 C 
HETATM   15  H14 UNL     1      23.377   6.747  51.725  1.00  0.00     0.196 HD
ENDROOT
BRANCH   1  16
HETATM   16  C7  UNL     1      26.768   5.084  49.006  1.00  0.00     0.204 A 
HETATM   17  C6  UNL     1      26.719   6.383  48.786  1.00  0.00     0.038 A 
HETATM   18  C5  UNL     1      27.994   6.452  48.100  1.00  0.00     0.047 A 
HETATM   19  O1  UNL     1      28.024   5.218  48.316  1.00  0.00    -0.345 OA
BRANCH  18  20
HETATM   20  C4  UNL     1      29.238   6.823  47.373  1.00  0.00     0.094 C 
BRANCH  20  21
HETATM   21  C3  UNL     1      29.474   8.300  47.606  1.00  0.00     0.277 C 
BRANCH  21  22
HETATM   22  N1  UNL     1      29.752   8.518  49.006  1.00  0.00     0.080 N 
HETATM   23  C1  UNL     1      29.372   9.872  49.369  1.00  0.00     0.309 C 
HETATM   24  C2  UNL     1      31.161   8.311  49.304  1.00  0.00     0.309 C 
ENDBRANCH  21  22
ENDBRANCH  20  21
ENDBRANCH  18  20
ENDBRANCH   1  16
TORSDOF 4
ENDMDL
MODEL 9
REMARK VINA RESULT:      -6.9      5.066      9.936
REMARK  4 active torsions:
REMARK  status: ('A' for Active; 'I' for Inactive)
REMARK    1  A    between atoms: N1_2  and  C3_4 
REMARK    2  A    between atoms: C3_4  and  C4_5 
REMARK    3  A    between atoms: C4_5  and  C5_6 
REMARK    4  A    between atoms: C7_9  and  C8_10 
ROOT
HETATM    1  C8  UNL     1      20.940   0.563  52.966  1.00  0.00     0.017 C 
HETATM    2  C9  UNL     1      21.189   1.925  52.665  1.00  0.00     0.098 C 
HETATM    3  N2  UNL     1      21.616   3.253  52.385  1.00  0.00    -0.250 N 
HETATM    4  O2  UNL     1      22.435   3.021  51.276  1.00  0.00    -0.113 OA
HETATM    5  O3  UNL     1      23.438   2.437  51.809  1.00  0.00    -0.213 OA
HETATM    6  C10 UNL     1      24.298   1.730  51.029  1.00  0.00     0.251 C 
HETATM    7  C11 UNL     1      25.333   1.143  52.021  1.00  0.00    -0.025 A 
HETATM    8  C12 UNL     1      26.660   1.297  51.746  1.00  0.00     0.010 A 
HETATM    9  C13 UNL     1      27.409   0.793  52.774  1.00  0.00     0.001 A 
HETATM   10  C14 UNL     1      27.044   0.201  53.950  1.00  0.00     0.001 A 
HETATM   11  C15 UNL     1      25.675   0.114  54.085  1.00  0.00     0.008 A 
HETATM   12  C16 UNL     1      24.710   0.565  53.156  1.00  0.00    -0.044 A 
HETATM   13  C17 UNL     1      23.256   0.559  53.087  1.00  0.00     0.057 C 
HETATM   14  C18 UNL     1      22.230  -0.299  53.225  1.00  0.00    -0.006 C 
HETATM   15  H14 UNL     1      21.342   4.068  52.931  1.00  0.00     0.196 HD
ENDROOT
BRANCH   1  16
HETATM   16  C7  UNL     1      19.585  -0.239  53.065  1.00  0.00     0.204 A 
HETATM   17  C6  UNL     1      18.900  -0.027  51.959  1.00  0.00     0.038 A 
HETATM   18  C5  UNL     1      17.771  -0.853  52.338  1.00  0.00     0.047 A 
HETATM   19  O1  UNL     1      18.435  -1.044  53.385  1.00  0.00    -0.345 OA
BRANCH  18  20
HETATM   20  C4  UNL     1      16.500  -1.617  52.454  1.00  0.00     0.094 C 
BRANCH  20  21
HETATM   21  C3  UNL     1      15.467  -0.908  51.605  1.00  0.00     0.277 C 
BRANCH  21  22
HETATM   22  N1  UNL     1      15.270   0.427  52.120  1.00  0.00     0.080 N 
HETATM   23  C1  UNL     1      14.245   0.401  53.150  1.00  0.00     0.309 C 
HETATM   24  C2  UNL     1      14.876   1.348  51.065  1.00  0.00     0.309 C 
ENDBRANCH  21  22
ENDBRANCH  20  21
ENDBRANCH  18  20
ENDBRANCH   1  16
TORSDOF 4
ENDMDL
