MODEL 1
REMARK VINA RESULT:      -7.8      0.000      0.000
REMARK  2 active torsions:
REMARK  status: ('A' for Active; 'I' for Inactive)
REMARK    1  A    between atoms: C12_16  and  C13_17 
REMARK    2  A    between atoms: C15_19  and  C16_20 
ROOT
HETATM    1  C1  UNL     1      21.566  -0.016  54.566  1.00  0.00     0.083 C 
HETATM    2  C2  UNL     1      21.755   0.424  53.334  1.00  0.00     0.075 C 
HETATM    3  N1  UNL     1      21.277  -0.051  52.089  1.00  0.00    -0.380 N 
HETATM    4  C3  UNL     1      20.295   0.243  51.083  1.00  0.00     0.126 C 
HETATM    5  C4  UNL     1      20.626   1.491  50.365  1.00  0.00     0.018 C 
HETATM    6  C5  UNL     1      21.770   2.084  50.797  1.00  0.00     0.033 C 
HETATM    7  C6  UNL     1      22.646   3.247  50.572  1.00  0.00    -0.029 C 
HETATM    8  C7  UNL     1      23.574   2.966  51.517  1.00  0.00     0.107 C 
HETATM    9  O1  UNL     1      24.572   3.966  51.493  1.00  0.00    -0.329 OA
HETATM   10  C8  UNL     1      25.631   3.837  50.507  1.00  0.00     0.324 C 
HETATM   11  N2  UNL     1      25.914   5.077  49.936  1.00  0.00    -0.265 NA
HETATM   12  C9  UNL     1      25.969   5.439  48.737  1.00  0.00     0.165 C 
HETATM   13  N3  UNL     1      26.286   6.736  49.308  1.00  0.00    -0.295 NA
HETATM   14  C10 UNL     1      25.382   7.235  50.110  1.00  0.00     0.258 C 
HETATM   15  C11 UNL     1      24.213   6.496  50.337  1.00  0.00     0.000 C 
HETATM   16  C12 UNL     1      23.192   5.697  50.426  1.00  0.00    -0.070 C 
HETATM   17  C15 UNL     1      22.716   4.504  49.742  1.00  0.00     0.068 C 
HETATM   18  C19 UNL     1      23.827   1.934  52.537  1.00  0.00     0.194 A 
HETATM   19  C20 UNL     1      24.380   0.673  51.996  1.00  0.00     0.037 A 
HETATM   20  C21 UNL     1      25.554   0.450  52.585  1.00  0.00     0.020 A 
HETATM   21  C22 UNL     1      25.795   1.546  53.515  1.00  0.00     0.114 A 
HETATM   22  N4  UNL     1      24.823   2.367  53.477  1.00  0.00    -0.259 NA
HETATM   23  N5  UNL     1      22.579   1.572  53.234  1.00  0.00    -0.343 N 
HETATM   24  H3  UNL     1      21.976  -0.844  52.093  1.00  0.00     0.160 HD
HETATM   25  H27 UNL     1      22.193   2.357  53.805  1.00  0.00     0.164 HD
ENDROOT
BRANCH  17  26
HETATM   26  C16 UNL     1      22.979   4.275  48.330  1.00  0.00    -0.018 C 
HETATM   27  C17 UNL     1      22.122   3.945  47.355  1.00  0.00    -0.034 C 
HETATM   28  C18 UNL     1      22.069   3.658  45.913  1.00  0.00     0.036 C 
ENDBRANCH  17  26
BRANCH  16  29
HETATM   29  C13 UNL     1      22.174   6.180  51.446  1.00  0.00     0.030 C 
HETATM   30  C14 UNL     1      21.463   7.368  50.869  1.00  0.00     0.010 C 
ENDBRANCH  16  29
TORSDOF 2
ENDMDL
MODEL 2
REMARK VINA RESULT:      -7.7      2.661      5.411
REMARK  2 active torsions:
REMARK  status: ('A' for Active; 'I' for Inactive)
REMARK    1  A    between atoms: C12_16  and  C13_17 
REMARK    2  A    between atoms: C15_19  and  C16_20 
ROOT
HETATM    1  C1  UNL     1      26.386  -1.575  53.076  1.00  0.00     0.083 C 
HETATM    2  C2  UNL     1      25.710  -0.445  52.961  1.00  0.00     0.075 C 
HETATM    3  N1  UNL     1      26.076   0.895  53.235  1.00  0.00    -0.380 N 
HETATM    4  C3  UNL     1      26.465   2.106  52.568  1.00  0.00     0.126 C 
HETATM    5  C4  UNL     1      25.338   2.678  51.803  1.00  0.00     0.018 C 
HETATM    6  C5  UNL     1      24.192   1.953  51.893  1.00  0.00     0.033 C 
HETATM    7  C6  UNL     1      22.790   1.913  51.441  1.00  0.00    -0.029 C 
HETATM    8  C7  UNL     1      22.423   0.774  52.075  1.00  0.00     0.107 C 
HETATM    9  O1  UNL     1      21.061   0.515  51.801  1.00  0.00    -0.329 OA
HETATM   10  C8  UNL     1      20.069   1.205  52.606  1.00  0.00     0.324 C 
HETATM   11  N2  UNL     1      19.018   1.647  51.804  1.00  0.00    -0.265 NA
HETATM   12  C9  UNL     1      18.500   2.782  51.675  1.00  0.00     0.165 C 
HETATM   13  N3  UNL     1      17.647   2.109  50.711  1.00  0.00    -0.295 NA
HETATM   14  C10 UNL     1      18.267   1.545  49.708  1.00  0.00     0.258 C 
HETATM   15  C11 UNL     1      19.663   1.643  49.647  1.00  0.00     0.000 C 
HETATM   16  C12 UNL     1      20.945   1.839  49.735  1.00  0.00    -0.070 C 
HETATM   17  C15 UNL     1      21.841   2.659  50.537  1.00  0.00     0.068 C 
HETATM   18  C19 UNL     1      23.033  -0.243  52.948  1.00  0.00     0.194 A 
HETATM   19  C20 UNL     1      23.180   0.180  54.357  1.00  0.00     0.037 A 
HETATM   20  C21 UNL     1      22.504  -0.678  55.120  1.00  0.00     0.020 A 
HETATM   21  C22 UNL     1      21.906  -1.673  54.239  1.00  0.00     0.114 A 
HETATM   22  N4  UNL     1      22.209  -1.417  53.029  1.00  0.00    -0.259 NA
HETATM   23  N5  UNL     1      24.385  -0.592  52.478  1.00  0.00    -0.343 N 
HETATM   24  H3  UNL     1      25.967   0.740  54.275  1.00  0.00     0.160 HD
HETATM   25  H27 UNL     1      24.381  -1.072  51.550  1.00  0.00     0.164 HD
ENDROOT
BRANCH  17  26
HETATM   26  C16 UNL     1      21.442   3.965  51.036  1.00  0.00    -0.018 C 
HETATM   27  C17 UNL     1      21.765   5.180  50.574  1.00  0.00    -0.034 C 
HETATM   28  C18 UNL     1      21.543   6.611  50.832  1.00  0.00     0.036 C 
ENDBRANCH  17  26
BRANCH  16  29
HETATM   29  C13 UNL     1      21.713   1.095  48.656  1.00  0.00     0.030 C 
HETATM   30  C14 UNL     1      22.386   2.107  47.778  1.00  0.00     0.010 C 
ENDBRANCH  16  29
TORSDOF 2
ENDMDL
MODEL 3
REMARK VINA RESULT:      -7.7      2.412      6.424
REMARK  2 active torsions:
REMARK  status: ('A' for Active; 'I' for Inactive)
REMARK    1  A    between atoms: C12_16  and  C13_17 
REMARK    2  A    between atoms: C15_19  and  C16_20 
ROOT
HETATM    1  C1  UNL     1      27.259   8.933  49.983  1.00  0.00     0.083 C 
HETATM    2  C2  UNL     1      26.702   7.792  49.614  1.00  0.00     0.075 C 
HETATM    3  N1  UNL     1      27.093   6.829  48.654  1.00  0.00    -0.380 N 
HETATM    4  C3  UNL     1      27.698   5.529  48.555  1.00  0.00     0.126 C 
HETATM    5  C4  UNL     1      26.800   4.484  49.088  1.00  0.00     0.018 C 
HETATM    6  C5  UNL     1      25.613   4.963  49.546  1.00  0.00     0.033 C 
HETATM    7  C6  UNL     1      24.339   4.550  50.160  1.00  0.00    -0.029 C 
HETATM    8  C7  UNL     1      23.769   5.775  50.247  1.00  0.00     0.107 C 
HETATM    9  O1  UNL     1      22.481   5.642  50.813  1.00  0.00    -0.329 OA
HETATM   10  C8  UNL     1      21.391   5.269  49.929  1.00  0.00     0.324 C 
HETATM   11  N2  UNL     1      20.567   4.330  50.546  1.00  0.00    -0.265 NA
HETATM   12  C9  UNL     1      20.167   3.205  50.164  1.00  0.00     0.165 C 
HETATM   13  N3  UNL     1      19.493   3.182  51.449  1.00  0.00    -0.295 NA
HETATM   14  C10 UNL     1      20.270   3.290  52.495  1.00  0.00     0.258 C 
HETATM   15  C11 UNL     1      21.651   3.407  52.289  1.00  0.00     0.000 C 
HETATM   16  C12 UNL     1      22.896   3.491  51.925  1.00  0.00    -0.070 C 
HETATM   17  C15 UNL     1      23.656   3.317  50.697  1.00  0.00     0.068 C 
HETATM   18  C19 UNL     1      24.108   7.170  49.923  1.00  0.00     0.194 A 
HETATM   19  C20 UNL     1      23.983   7.506  48.488  1.00  0.00     0.037 A 
HETATM   20  C21 UNL     1      23.104   8.499  48.370  1.00  0.00     0.020 A 
HETATM   21  C22 UNL     1      22.638   8.836  49.709  1.00  0.00     0.114 A 
HETATM   22  N4  UNL     1      23.207   8.085  50.566  1.00  0.00    -0.259 NA
HETATM   23  N5  UNL     1      25.503   7.469  50.297  1.00  0.00    -0.343 N 
HETATM   24  H3  UNL     1      26.757   7.443  47.862  1.00  0.00     0.160 HD
HETATM   25  H27 UNL     1      25.661   7.437  51.329  1.00  0.00     0.164 HD
ENDROOT
BRANCH  17  26
HETATM   26  C16 UNL     1      23.252   2.364  49.675  1.00  0.00    -0.018 C 
HETATM   27  C17 UNL     1      22.981   2.578  48.380  1.00  0.00    -0.034 C 
HETATM   28  C18 UNL     1      22.571   1.876  47.155  1.00  0.00     0.036 C 
ENDBRANCH  17  26
BRANCH  16  29
HETATM   29  C13 UNL     1      23.821   3.742  53.104  1.00  0.00     0.030 C 
HETATM   30  C14 UNL     1      24.757   2.575  53.221  1.00  0.00     0.010 C 
ENDBRANCH  16  29
TORSDOF 2
ENDMDL
MODEL 4
REMARK VINA RESULT:      -7.4      3.702      7.121
REMARK  2 active torsions:
REMARK  status: ('A' for Active; 'I' for Inactive)
REMARK    1  A    between atoms: C12_16  and  C13_17 
REMARK    2  A    between atoms: C15_19  and  C16_20 
ROOT
HETATM    1  C1  UNL     1      29.406   8.969  49.172  1.00  0.00     0.083 C 
HETATM    2  C2  UNL     1      28.574   8.019  48.781  1.00  0.00     0.075 C 
HETATM    3  N1  UNL     1      28.800   6.800  48.098  1.00  0.00    -0.380 N 
HETATM    4  C3  UNL     1      28.884   5.386  48.332  1.00  0.00     0.126 C 
HETATM    5  C4  UNL     1      27.561   4.826  48.680  1.00  0.00     0.018 C 
HETATM    6  C5  UNL     1      26.565   5.749  48.701  1.00  0.00     0.033 C 
HETATM    7  C6  UNL     1      25.120   5.912  48.942  1.00  0.00    -0.029 C 
HETATM    8  C7  UNL     1      25.042   7.244  48.715  1.00  0.00     0.107 C 
HETATM    9  O1  UNL     1      23.701   7.660  48.876  1.00  0.00    -0.329 OA
HETATM   10  C8  UNL     1      22.801   7.482  47.750  1.00  0.00     0.324 C 
HETATM   11  N2  UNL     1      21.564   7.014  48.189  1.00  0.00    -0.265 NA
HETATM   12  C9  UNL     1      20.881   6.025  47.831  1.00  0.00     0.165 C 
HETATM   13  N3  UNL     1      19.956   6.496  48.846  1.00  0.00    -0.295 NA
HETATM   14  C10 UNL     1      20.437   6.564  50.060  1.00  0.00     0.258 C 
HETATM   15  C11 UNL     1      21.769   6.181  50.270  1.00  0.00     0.000 C 
HETATM   16  C12 UNL     1      23.004   5.778  50.293  1.00  0.00    -0.070 C 
HETATM   17  C15 UNL     1      23.920   5.110  49.380  1.00  0.00     0.068 C 
HETATM   18  C19 UNL     1      25.943   8.352  48.357  1.00  0.00     0.194 A 
HETATM   19  C20 UNL     1      26.304   8.398  46.923  1.00  0.00     0.037 A 
HETATM   20  C21 UNL     1      25.914   9.574  46.435  1.00  0.00     0.020 A 
HETATM   21  C22 UNL     1      25.296  10.319  47.524  1.00  0.00     0.114 A 
HETATM   22  N4  UNL     1      25.318   9.624  48.590  1.00  0.00    -0.259 NA
HETATM   23  N5  UNL     1      27.212   8.255  49.100  1.00  0.00    -0.343 N 
HETATM   24  H3  UNL     1      28.919   7.308  47.178  1.00  0.00     0.160 HD
HETATM   25  H27 UNL     1      27.091   8.393  50.128  1.00  0.00     0.164 HD
ENDROOT
BRANCH  17  26
HETATM   26  C16 UNL     1      23.453   4.146  48.397  1.00  0.00    -0.018 C 
HETATM   27  C17 UNL     1      22.846   2.968  48.591  1.00  0.00    -0.034 C 
HETATM   28  C18 UNL     1      22.280   1.825  47.858  1.00  0.00     0.036 C 
ENDBRANCH  17  26
BRANCH  16  29
HETATM   29  C13 UNL     1      23.640   5.959  51.662  1.00  0.00     0.030 C 
HETATM   30  C14 UNL     1      23.497   4.672  52.418  1.00  0.00     0.010 C 
ENDBRANCH  16  29
TORSDOF 2
ENDMDL
MODEL 5
REMARK VINA RESULT:      -7.3      3.759      7.138
REMARK  2 active torsions:
REMARK  status: ('A' for Active; 'I' for Inactive)
REMARK    1  A    between atoms: C12_16  and  C13_17 
REMARK    2  A    between atoms: C15_19  and  C16_20 
ROOT
HETATM    1  C1  UNL     1      22.850   3.950  48.586  1.00  0.00     0.083 C 
HETATM    2  C2  UNL     1      24.011   4.496  48.900  1.00  0.00     0.075 C 
HETATM    3  N1  UNL     1      25.110   3.994  49.639  1.00  0.00    -0.380 N 
HETATM    4  C3  UNL     1      26.430   3.458  49.454  1.00  0.00     0.126 C 
HETATM    5  C4  UNL     1      27.362   4.496  48.967  1.00  0.00     0.018 C 
HETATM    6  C5  UNL     1      26.786   5.716  48.803  1.00  0.00     0.033 C 
HETATM    7  C6  UNL     1      27.069   7.101  48.389  1.00  0.00    -0.029 C 
HETATM    8  C7  UNL     1      25.825   7.606  48.569  1.00  0.00     0.107 C 
HETATM    9  O1  UNL     1      25.836   8.981  48.239  1.00  0.00    -0.329 OA
HETATM   10  C8  UNL     1      26.291   9.913  49.256  1.00  0.00     0.324 C 
HETATM   11  N2  UNL     1      27.109  10.888  48.686  1.00  0.00    -0.265 NA
HETATM   12  C9  UNL     1      28.262  11.276  48.987  1.00  0.00     0.165 C 
HETATM   13  N3  UNL     1      28.085  12.171  47.857  1.00  0.00    -0.295 NA
HETATM   14  C10 UNL     1      27.861  11.590  46.708  1.00  0.00     0.258 C 
HETATM   15  C11 UNL     1      27.818  10.190  46.667  1.00  0.00     0.000 C 
HETATM   16  C12 UNL     1      27.826   8.897  46.801  1.00  0.00    -0.070 C 
HETATM   17  C15 UNL     1      28.192   7.939  47.834  1.00  0.00     0.068 C 
HETATM   18  C19 UNL     1      24.499   7.134  49.002  1.00  0.00     0.194 A 
HETATM   19  C20 UNL     1      24.361   6.980  50.466  1.00  0.00     0.037 A 
HETATM   20  C21 UNL     1      23.365   7.765  50.873  1.00  0.00     0.020 A 
HETATM   21  C22 UNL     1      22.832   8.444  49.699  1.00  0.00     0.114 A 
HETATM   22  N4  UNL     1      23.475   8.083  48.661  1.00  0.00    -0.259 NA
HETATM   23  N5  UNL     1      24.198   5.815  48.417  1.00  0.00    -0.343 N 
HETATM   24  H3  UNL     1      24.600   4.147  50.552  1.00  0.00     0.160 HD
HETATM   25  H27 UNL     1      24.093   5.847  47.378  1.00  0.00     0.164 HD
ENDROOT
BRANCH  17  26
HETATM   26  C16 UNL     1      29.263   8.207  48.781  1.00  0.00    -0.018 C 
HETATM   27  C17 UNL     1      30.580   7.999  48.648  1.00  0.00    -0.034 C 
HETATM   28  C18 UNL     1      31.852   8.150  49.370  1.00  0.00     0.036 C 
ENDBRANCH  17  26
BRANCH  16  29
HETATM   29  C13 UNL     1      27.445   8.186  45.513  1.00  0.00     0.030 C 
HETATM   30  C14 UNL     1      26.293   8.920  44.896  1.00  0.00     0.010 C 
ENDBRANCH  16  29
TORSDOF 2
ENDMDL
MODEL 6
REMARK VINA RESULT:      -7.1      8.530     12.024
REMARK  2 active torsions:
REMARK  status: ('A' for Active; 'I' for Inactive)
REMARK    1  A    between atoms: C12_16  and  C13_17 
REMARK    2  A    between atoms: C15_19  and  C16_20 
ROOT
HETATM    1  C1  UNL     1      30.648  12.344  48.860  1.00  0.00     0.083 C 
HETATM    2  C2  UNL     1      31.070  11.526  47.911  1.00  0.00     0.075 C 
HETATM    3  N1  UNL     1      31.331  11.744  46.537  1.00  0.00    -0.380 N 
HETATM    4  C3  UNL     1      32.424  11.925  45.621  1.00  0.00     0.126 C 
HETATM    5  C4  UNL     1      33.197  10.676  45.465  1.00  0.00     0.018 C 
HETATM    6  C5  UNL     1      32.719   9.640  46.203  1.00  0.00     0.033 C 
HETATM    7  C6  UNL     1      32.954   8.221  46.525  1.00  0.00    -0.029 C 
HETATM    8  C7  UNL     1      31.921   8.051  47.383  1.00  0.00     0.107 C 
HETATM    9  O1  UNL     1      31.918   6.714  47.840  1.00  0.00    -0.329 OA
HETATM   10  C8  UNL     1      31.293   5.714  46.992  1.00  0.00     0.324 C 
HETATM   11  N2  UNL     1      32.065   4.554  46.963  1.00  0.00    -0.265 NA
HETATM   12  C9  UNL     1      32.521   3.891  46.002  1.00  0.00     0.165 C 
HETATM   13  N3  UNL     1      33.075   3.051  47.049  1.00  0.00    -0.295 NA
HETATM   14  C10 UNL     1      33.884   3.650  47.883  1.00  0.00     0.258 C 
HETATM   15  C11 UNL     1      34.144   5.014  47.694  1.00  0.00     0.000 C 
HETATM   16  C12 UNL     1      34.287   6.264  47.370  1.00  0.00    -0.070 C 
HETATM   17  C15 UNL     1      33.940   7.115  46.242  1.00  0.00     0.068 C 
HETATM   18  C19 UNL     1      30.827   8.852  47.958  1.00  0.00     0.194 A 
HETATM   19  C20 UNL     1      29.685   9.062  47.042  1.00  0.00     0.037 A 
HETATM   20  C21 UNL     1      28.594   8.563  47.619  1.00  0.00     0.020 A 
HETATM   21  C22 UNL     1      28.989   8.022  48.913  1.00  0.00     0.114 A 
HETATM   22  N4  UNL     1      30.239   8.189  49.089  1.00  0.00    -0.259 NA
HETATM   23  N5  UNL     1      31.306  10.194  48.336  1.00  0.00    -0.343 N 
HETATM   24  H3  UNL     1      30.298  11.742  46.313  1.00  0.00     0.160 HD
HETATM   25  H27 UNL     1      31.998  10.172  49.119  1.00  0.00     0.164 HD
ENDROOT
BRANCH  17  26
HETATM   26  C16 UNL     1      33.887   6.600  44.883  1.00  0.00    -0.018 C 
HETATM   27  C17 UNL     1      32.984   6.840  43.923  1.00  0.00    -0.034 C 
HETATM   28  C18 UNL     1      32.661   6.499  42.529  1.00  0.00     0.036 C 
ENDBRANCH  17  26
BRANCH  16  29
HETATM   29  C13 UNL     1      35.121   7.027  48.387  1.00  0.00     0.030 C 
HETATM   30  C14 UNL     1      35.939   6.035  49.159  1.00  0.00     0.010 C 
ENDBRANCH  16  29
TORSDOF 2
ENDMDL
MODEL 7
REMARK VINA RESULT:      -7.0      6.806     10.638
REMARK  2 active torsions:
REMARK  status: ('A' for Active; 'I' for Inactive)
REMARK    1  A    between atoms: C12_16  and  C13_17 
REMARK    2  A    between atoms: C15_19  and  C16_20 
ROOT
HETATM    1  C1  UNL     1      27.912  13.005  45.308  1.00  0.00     0.083 C 
HETATM    2  C2  UNL     1      27.842  11.838  45.924  1.00  0.00     0.075 C 
HETATM    3  N1  UNL     1      26.732  11.061  46.332  1.00  0.00    -0.380 N 
HETATM    4  C3  UNL     1      25.985   9.893  45.955  1.00  0.00     0.126 C 
HETATM    5  C4  UNL     1      26.785   8.666  46.149  1.00  0.00     0.018 C 
HETATM    6  C5  UNL     1      28.032   8.897  46.636  1.00  0.00     0.033 C 
HETATM    7  C6  UNL     1      29.276   8.221  47.044  1.00  0.00    -0.029 C 
HETATM    8  C7  UNL     1      29.976   9.322  47.404  1.00  0.00     0.107 C 
HETATM    9  O1  UNL     1      31.252   8.925  47.865  1.00  0.00    -0.329 OA
HETATM   10  C8  UNL     1      31.363   8.483  49.244  1.00  0.00     0.324 C 
HETATM   11  N2  UNL     1      32.188   7.363  49.328  1.00  0.00    -0.265 NA
HETATM   12  C9  UNL     1      32.000   6.237  49.848  1.00  0.00     0.165 C 
HETATM   13  N3  UNL     1      33.343   5.966  49.367  1.00  0.00    -0.295 NA
HETATM   14  C10 UNL     1      33.513   6.079  48.075  1.00  0.00     0.258 C 
HETATM   15  C11 UNL     1      32.411   6.437  47.288  1.00  0.00     0.000 C 
HETATM   16  C12 UNL     1      31.293   6.758  46.708  1.00  0.00    -0.070 C 
HETATM   17  C15 UNL     1      29.889   6.844  47.083  1.00  0.00     0.068 C 
HETATM   18  C19 UNL     1      29.783  10.781  47.449  1.00  0.00     0.194 A 
HETATM   19  C20 UNL     1      28.971  11.248  48.593  1.00  0.00     0.037 A 
HETATM   20  C21 UNL     1      29.709  12.097  49.307  1.00  0.00     0.020 A 
HETATM   21  C22 UNL     1      31.008  12.205  48.655  1.00  0.00     0.114 A 
HETATM   22  N4  UNL     1      31.035  11.464  47.620  1.00  0.00    -0.259 NA
HETATM   23  N5  UNL     1      29.097  11.254  46.234  1.00  0.00    -0.343 N 
HETATM   24  H3  UNL     1      26.556  11.698  47.158  1.00  0.00     0.160 HD
HETATM   25  H27 UNL     1      29.673  11.135  45.370  1.00  0.00     0.164 HD
ENDROOT
BRANCH  17  26
HETATM   26  C16 UNL     1      29.307   5.957  48.078  1.00  0.00    -0.018 C 
HETATM   27  C17 UNL     1      28.037   5.551  48.207  1.00  0.00    -0.034 C 
HETATM   28  C18 UNL     1      27.174   4.710  49.050  1.00  0.00     0.036 C 
ENDBRANCH  17  26
BRANCH  16  29
HETATM   29  C13 UNL     1      31.474   7.021  45.222  1.00  0.00     0.030 C 
HETATM   30  C14 UNL     1      32.728   7.823  45.039  1.00  0.00     0.010 C 
ENDBRANCH  16  29
TORSDOF 2
ENDMDL
MODEL 8
REMARK VINA RESULT:      -6.8      8.110     12.495
REMARK  2 active torsions:
REMARK  status: ('A' for Active; 'I' for Inactive)
REMARK    1  A    between atoms: C12_16  and  C13_17 
REMARK    2  A    between atoms: C15_19  and  C16_20 
ROOT
HETATM    1  C1  UNL     1      36.128   7.446  42.295  1.00  0.00     0.083 C 
HETATM    2  C2  UNL     1      34.993   7.093  42.871  1.00  0.00     0.075 C 
HETATM    3  N1  UNL     1      34.114   6.011  42.620  1.00  0.00    -0.380 N 
HETATM    4  C3  UNL     1      33.740   4.729  43.148  1.00  0.00     0.126 C 
HETATM    5  C4  UNL     1      33.032   4.871  44.437  1.00  0.00     0.018 C 
HETATM    6  C5  UNL     1      32.884   6.160  44.841  1.00  0.00     0.033 C 
HETATM    7  C6  UNL     1      32.333   6.996  45.923  1.00  0.00    -0.029 C 
HETATM    8  C7  UNL     1      32.682   8.204  45.420  1.00  0.00     0.107 C 
HETATM    9  O1  UNL     1      32.235   9.214  46.302  1.00  0.00    -0.329 OA
HETATM   10  C8  UNL     1      30.851   9.640  46.191  1.00  0.00     0.324 C 
HETATM   11  N2  UNL     1      30.294   9.809  47.458  1.00  0.00    -0.265 NA
HETATM   12  C9  UNL     1      29.247   9.343  47.968  1.00  0.00     0.165 C 
HETATM   13  N3  UNL     1      29.670  10.094  49.136  1.00  0.00    -0.295 NA
HETATM   14  C10 UNL     1      30.842   9.774  49.619  1.00  0.00     0.258 C 
HETATM   15  C11 UNL     1      31.566   8.754  48.987  1.00  0.00     0.000 C 
HETATM   16  C12 UNL     1      32.093   7.786  48.297  1.00  0.00    -0.070 C 
HETATM   17  C15 UNL     1      31.657   6.859  47.263  1.00  0.00     0.068 C 
HETATM   18  C19 UNL     1      33.379   8.744  44.241  1.00  0.00     0.194 A 
HETATM   19  C20 UNL     1      32.558   8.766  43.011  1.00  0.00     0.037 A 
HETATM   20  C21 UNL     1      32.480  10.026  42.587  1.00  0.00     0.020 A 
HETATM   21  C22 UNL     1      33.240  10.851  43.518  1.00  0.00     0.114 A 
HETATM   22  N4  UNL     1      33.735  10.122  44.437  1.00  0.00    -0.259 NA
HETATM   23  N5  UNL     1      34.574   7.940  43.927  1.00  0.00    -0.343 N 
HETATM   24  H3  UNL     1      33.725   6.492  41.762  1.00  0.00     0.160 HD
HETATM   25  H27 UNL     1      35.310   8.002  44.666  1.00  0.00     0.164 HD
ENDROOT
BRANCH  17  26
HETATM   26  C16 UNL     1      30.286   6.378  47.196  1.00  0.00    -0.018 C 
HETATM   27  C17 UNL     1      29.552   5.783  48.146  1.00  0.00    -0.034 C 
HETATM   28  C18 UNL     1      28.219   5.211  48.387  1.00  0.00     0.036 C 
ENDBRANCH  17  26
BRANCH  16  29
HETATM   29  C13 UNL     1      33.509   7.468  48.748  1.00  0.00     0.030 C 
HETATM   30  C14 UNL     1      33.614   5.985  48.945  1.00  0.00     0.010 C 
ENDBRANCH  16  29
TORSDOF 2
ENDMDL
MODEL 9
REMARK VINA RESULT:      -6.7      8.441     10.333
REMARK  2 active torsions:
REMARK  status: ('A' for Active; 'I' for Inactive)
REMARK    1  A    between atoms: C12_16  and  C13_17 
REMARK    2  A    between atoms: C15_19  and  C16_20 
ROOT
HETATM    1  C1  UNL     1      32.512   3.082  46.336  1.00  0.00     0.083 C 
HETATM    2  C2  UNL     1      32.484   4.383  46.103  1.00  0.00     0.075 C 
HETATM    3  N1  UNL     1      33.231   5.188  45.209  1.00  0.00    -0.380 N 
HETATM    4  C3  UNL     1      33.109   5.868  43.949  1.00  0.00     0.126 C 
HETATM    5  C4  UNL     1      32.187   7.018  44.053  1.00  0.00     0.018 C 
HETATM    6  C5  UNL     1      31.662   7.187  45.295  1.00  0.00     0.033 C 
HETATM    7  C6  UNL     1      30.752   8.042  46.078  1.00  0.00    -0.029 C 
HETATM    8  C7  UNL     1      30.872   7.403  47.266  1.00  0.00     0.107 C 
HETATM    9  O1  UNL     1      30.075   8.066  48.226  1.00  0.00    -0.329 OA
HETATM   10  C8  UNL     1      30.636   9.238  48.874  1.00  0.00     0.324 C 
HETATM   11  N2  UNL     1      29.672  10.239  48.983  1.00  0.00    -0.265 NA
HETATM   12  C9  UNL     1      29.689  11.442  48.633  1.00  0.00     0.165 C 
HETATM   13  N3  UNL     1      28.340  11.454  49.170  1.00  0.00    -0.295 NA
HETATM   14  C10 UNL     1      27.505  10.615  48.616  1.00  0.00     0.258 C 
HETATM   15  C11 UNL     1      27.971   9.802  47.574  1.00  0.00     0.000 C 
HETATM   16  C12 UNL     1      28.556   9.140  46.621  1.00  0.00    -0.070 C 
HETATM   17  C15 UNL     1      29.817   9.212  45.898  1.00  0.00     0.068 C 
HETATM   18  C19 UNL     1      31.584   6.240  47.820  1.00  0.00     0.194 A 
HETATM   19  C20 UNL     1      33.013   6.488  48.111  1.00  0.00     0.037 A 
HETATM   20  C21 UNL     1      33.218   6.263  49.407  1.00  0.00     0.020 A 
HETATM   21  C22 UNL     1      31.943   5.866  49.991  1.00  0.00     0.114 A 
HETATM   22  N4  UNL     1      31.040   5.858  49.094  1.00  0.00    -0.259 NA
HETATM   23  N5  UNL     1      31.545   5.106  46.879  1.00  0.00    -0.343 N 
HETATM   24  H3  UNL     1      34.079   5.148  45.839  1.00  0.00     0.160 HD
HETATM   25  H27 UNL     1      30.580   4.729  46.740  1.00  0.00     0.164 HD
ENDROOT
BRANCH  17  26
HETATM   26  C16 UNL     1      30.485  10.479  45.649  1.00  0.00    -0.018 C 
HETATM   27  C17 UNL     1      31.796  10.755  45.640  1.00  0.00    -0.034 C 
HETATM   28  C18 UNL     1      32.742  11.863  45.436  1.00  0.00     0.036 C 
ENDBRANCH  17  26
BRANCH  16  29
HETATM   29  C13 UNL     1      27.656   8.065  46.034  1.00  0.00     0.030 C 
HETATM   30  C14 UNL     1      27.188   8.531  44.688  1.00  0.00     0.010 C 
ENDBRANCH  16  29
TORSDOF 2
ENDMDL
