MODEL 1
REMARK VINA RESULT:      -8.3      0.000      0.000
REMARK  5 active torsions:
REMARK  status: ('A' for Active; 'I' for Inactive)
REMARK    1  A    between atoms: C4_4  and  N1_5 
REMARK    2  A    between atoms: N1_5  and  C5_6 
REMARK    3  A    between atoms: C6_8  and  C7_9 
REMARK    4  A    between atoms: C7_9  and  C9_11 
REMARK    5  A    between atoms: N5_23  and  N6_24 
ROOT
HETATM    1  C5  UNL     1      23.889  -0.562  53.904  1.00  0.00     0.145 A 
HETATM    2  N2  UNL     1      23.712   0.317  52.960  1.00  0.00    -0.234 NA
HETATM    3  C6  UNL     1      22.324   0.424  52.664  1.00  0.00     0.066 A 
HETATM    4  C14 UNL     1      21.649  -0.406  53.445  1.00  0.00     0.089 A 
HETATM    5  C15 UNL     1      20.218  -0.536  53.391  1.00  0.00     0.100 C 
HETATM    6  N4  UNL     1      19.056  -0.636  53.328  1.00  0.00    -0.191 NA
HETATM    7  C16 UNL     1      22.584  -1.143  54.340  1.00  0.00     0.285 A 
HETATM    8  F2  UNL     1      22.348  -0.918  55.671  1.00  0.00    -0.235 F 
ENDROOT
BRANCH   3   9
HETATM    9  C7  UNL     1      21.794   1.352  51.623  1.00  0.00     0.087 C 
HETATM   10  C8  UNL     1      21.545   0.609  50.316  1.00  0.00     0.023 C 
BRANCH   9  11
HETATM   11  C9  UNL     1      22.683   2.519  51.389  1.00  0.00     0.044 A 
HETATM   12  C10 UNL     1      23.438   2.552  50.225  1.00  0.00     0.031 A 
HETATM   13  C11 UNL     1      24.312   3.590  49.886  1.00  0.00     0.046 A 
HETATM   14  C12 UNL     1      24.386   4.617  50.800  1.00  0.00     0.133 A 
HETATM   15  F1  UNL     1      25.222   5.645  50.508  1.00  0.00    -0.205 F 
HETATM   16  C13 UNL     1      23.620   4.563  51.958  1.00  0.00     0.159 A 
HETATM   17  N3  UNL     1      22.793   3.535  52.234  1.00  0.00    -0.262 NA
ENDBRANCH   9  11
ENDBRANCH   3   9
BRANCH   1  18
HETATM   18  N1  UNL     1      25.132  -0.944  54.467  1.00  0.00    -0.325 N 
HETATM   19  H5  UNL     1      25.151  -1.686  55.167  1.00  0.00     0.169 HD
BRANCH  18  20
HETATM   20  C4  UNL     1      26.334  -0.299  54.062  1.00  0.00     0.150 A 
HETATM   21  C3  UNL     1      26.725   1.005  54.264  1.00  0.00     0.080 A 
HETATM   22  C2  UNL     1      27.972   1.203  53.700  1.00  0.00     0.056 A 
HETATM   23  C1  UNL     1      28.776   2.459  53.680  1.00  0.00     0.072 C 
HETATM   24  N7  UNL     1      28.317   0.008  53.163  1.00  0.00    -0.156 NA
HETATM   25  N5  UNL     1      27.346  -0.871  53.382  1.00  0.00    -0.163 N 
BRANCH  25  26
HETATM   26  N6  UNL     1      27.434  -2.198  52.934  1.00  0.00    -0.321 N 
HETATM   27  H14 UNL     1      27.064  -2.887  53.624  1.00  0.00     0.179 HD
HETATM   28  H15 UNL     1      27.768  -2.722  52.092  1.00  0.00     0.179 HD
ENDBRANCH  25  26
ENDBRANCH  18  20
ENDBRANCH   1  18
TORSDOF 5
ENDMDL
MODEL 2
REMARK VINA RESULT:      -8.3      2.076      4.909
REMARK  5 active torsions:
REMARK  status: ('A' for Active; 'I' for Inactive)
REMARK    1  A    between atoms: C4_4  and  N1_5 
REMARK    2  A    between atoms: N1_5  and  C5_6 
REMARK    3  A    between atoms: C6_8  and  C7_9 
REMARK    4  A    between atoms: C7_9  and  C9_11 
REMARK    5  A    between atoms: N5_23  and  N6_24 
ROOT
HETATM    1  C5  UNL     1      25.801   2.494  52.778  1.00  0.00     0.145 A 
HETATM    2  N2  UNL     1      24.548   2.273  53.054  1.00  0.00    -0.234 NA
HETATM    3  C6  UNL     1      23.760   2.480  51.888  1.00  0.00     0.066 A 
HETATM    4  C14 UNL     1      24.552   2.831  50.886  1.00  0.00     0.089 A 
HETATM    5  C15 UNL     1      24.059   3.111  49.565  1.00  0.00     0.100 C 
HETATM    6  N4  UNL     1      23.640   3.345  48.500  1.00  0.00    -0.191 NA
HETATM    7  C16 UNL     1      25.967   2.881  51.345  1.00  0.00     0.285 A 
HETATM    8  F2  UNL     1      26.784   2.009  50.675  1.00  0.00    -0.235 F 
ENDROOT
BRANCH   3   9
HETATM    9  C7  UNL     1      22.277   2.305  51.879  1.00  0.00     0.087 C 
HETATM   10  C8  UNL     1      21.583   3.579  52.345  1.00  0.00     0.023 C 
BRANCH   9  11
HETATM   11  C9  UNL     1      21.832   1.149  52.698  1.00  0.00     0.044 A 
HETATM   12  C10 UNL     1      22.519  -0.050  52.578  1.00  0.00     0.031 A 
HETATM   13  C11 UNL     1      22.201  -1.212  53.290  1.00  0.00     0.046 A 
HETATM   14  C12 UNL     1      21.132  -1.099  54.149  1.00  0.00     0.133 A 
HETATM   15  F1  UNL     1      20.791  -2.203  54.860  1.00  0.00    -0.205 F 
HETATM   16  C13 UNL     1      20.458   0.112  54.253  1.00  0.00     0.159 A 
HETATM   17  N3  UNL     1      20.809   1.201  53.541  1.00  0.00    -0.262 NA
ENDBRANCH   9  11
ENDBRANCH   3   9
BRANCH   1  18
HETATM   18  N1  UNL     1      26.887   2.391  53.682  1.00  0.00    -0.325 N 
HETATM   19  H5  UNL     1      27.052   3.149  54.345  1.00  0.00     0.169 HD
BRANCH  18  20
HETATM   20  C4  UNL     1      27.734   1.248  53.664  1.00  0.00     0.150 A 
HETATM   21  C3  UNL     1      27.455  -0.025  53.222  1.00  0.00     0.080 A 
HETATM   22  C2  UNL     1      28.573  -0.824  53.390  1.00  0.00     0.056 A 
HETATM   23  C1  UNL     1      28.721  -2.269  53.049  1.00  0.00     0.072 C 
HETATM   24  N7  UNL     1      29.513  -0.015  53.933  1.00  0.00    -0.156 NA
HETATM   25  N5  UNL     1      29.010   1.204  54.090  1.00  0.00    -0.163 N 
BRANCH  25  26
HETATM   26  N6  UNL     1      29.767   2.252  54.636  1.00  0.00    -0.321 N 
HETATM   27  H14 UNL     1      30.790   2.155  54.453  1.00  0.00     0.179 HD
HETATM   28  H15 UNL     1      29.613   3.129  55.187  1.00  0.00     0.179 HD
ENDBRANCH  25  26
ENDBRANCH  18  20
ENDBRANCH   1  18
TORSDOF 5
ENDMDL
MODEL 3
REMARK VINA RESULT:      -8.1      3.013      6.567
REMARK  5 active torsions:
REMARK  status: ('A' for Active; 'I' for Inactive)
REMARK    1  A    between atoms: C4_4  and  N1_5 
REMARK    2  A    between atoms: N1_5  and  C5_6 
REMARK    3  A    between atoms: C6_8  and  C7_9 
REMARK    4  A    between atoms: C7_9  and  C9_11 
REMARK    5  A    between atoms: N5_23  and  N6_24 
ROOT
HETATM    1  C5  UNL     1      25.021   3.700  50.693  1.00  0.00     0.145 A 
HETATM    2  N2  UNL     1      25.272   2.764  51.562  1.00  0.00    -0.234 NA
HETATM    3  C6  UNL     1      24.240   1.785  51.519  1.00  0.00     0.066 A 
HETATM    4  C14 UNL     1      23.349   2.135  50.603  1.00  0.00     0.089 A 
HETATM    5  C15 UNL     1      22.180   1.350  50.314  1.00  0.00     0.100 C 
HETATM    6  N4  UNL     1      21.230   0.705  50.099  1.00  0.00    -0.191 NA
HETATM    7  C16 UNL     1      23.750   3.417  49.961  1.00  0.00     0.285 A 
HETATM    8  F2  UNL     1      23.957   3.303  48.611  1.00  0.00    -0.235 F 
ENDROOT
BRANCH   3   9
HETATM    9  C7  UNL     1      24.238   0.580  52.399  1.00  0.00     0.087 C 
HETATM   10  C8  UNL     1      23.165   0.701  53.474  1.00  0.00     0.023 C 
BRANCH   9  11
HETATM   11  C9  UNL     1      25.561   0.323  53.022  1.00  0.00     0.044 A 
HETATM   12  C10 UNL     1      26.463  -0.488  52.347  1.00  0.00     0.031 A 
HETATM   13  C11 UNL     1      27.739  -0.808  52.823  1.00  0.00     0.046 A 
HETATM   14  C12 UNL     1      28.067  -0.256  54.041  1.00  0.00     0.133 A 
HETATM   15  F1  UNL     1      29.297  -0.541  54.538  1.00  0.00    -0.205 F 
HETATM   16  C13 UNL     1      27.149   0.554  54.698  1.00  0.00     0.159 A 
HETATM   17  N3  UNL     1      25.930   0.829  54.191  1.00  0.00    -0.262 NA
ENDBRANCH   9  11
ENDBRANCH   3   9
BRANCH   1  18
HETATM   18  N1  UNL     1      25.819   4.844  50.444  1.00  0.00    -0.325 N 
HETATM   19  H5  UNL     1      26.835   4.753  50.466  1.00  0.00     0.169 HD
BRANCH  18  20
HETATM   20  C4  UNL     1      25.210   6.100  50.168  1.00  0.00     0.150 A 
HETATM   21  C3  UNL     1      25.146   6.785  48.976  1.00  0.00     0.080 A 
HETATM   22  C2  UNL     1      24.456   7.970  49.165  1.00  0.00     0.056 A 
HETATM   23  C1  UNL     1      24.149   9.019  48.150  1.00  0.00     0.072 C 
HETATM   24  N7  UNL     1      24.113   7.980  50.475  1.00  0.00    -0.156 NA
HETATM   25  N5  UNL     1      24.561   6.875  51.058  1.00  0.00    -0.163 N 
BRANCH  25  26
HETATM   26  N6  UNL     1      24.349   6.619  52.422  1.00  0.00    -0.321 N 
HETATM   27  H14 UNL     1      24.613   5.649  52.700  1.00  0.00     0.179 HD
HETATM   28  H15 UNL     1      23.996   7.120  53.270  1.00  0.00     0.179 HD
ENDBRANCH  25  26
ENDBRANCH  18  20
ENDBRANCH   1  18
TORSDOF 5
ENDMDL
MODEL 4
REMARK VINA RESULT:      -8.0      2.634      6.183
REMARK  5 active torsions:
REMARK  status: ('A' for Active; 'I' for Inactive)
REMARK    1  A    between atoms: C4_4  and  N1_5 
REMARK    2  A    between atoms: N1_5  and  C5_6 
REMARK    3  A    between atoms: C6_8  and  C7_9 
REMARK    4  A    between atoms: C7_9  and  C9_11 
REMARK    5  A    between atoms: N5_23  and  N6_24 
ROOT
HETATM    1  C5  UNL     1      23.854   1.603  52.146  1.00  0.00     0.145 A 
HETATM    2  N2  UNL     1      24.821   0.980  52.756  1.00  0.00    -0.234 NA
HETATM    3  C6  UNL     1      24.281  -0.051  53.575  1.00  0.00     0.066 A 
HETATM    4  C14 UNL     1      22.962  -0.052  53.457  1.00  0.00     0.089 A 
HETATM    5  C15 UNL     1      22.117  -0.978  54.160  1.00  0.00     0.100 C 
HETATM    6  N4  UNL     1      21.445  -1.733  54.747  1.00  0.00    -0.191 NA
HETATM    7  C16 UNL     1      22.530   1.020  52.517  1.00  0.00     0.285 A 
HETATM    8  F2  UNL     1      21.861   0.541  51.422  1.00  0.00    -0.235 F 
ENDROOT
BRANCH   3   9
HETATM    9  C7  UNL     1      25.136  -0.948  54.406  1.00  0.00     0.087 C 
HETATM   10  C8  UNL     1      24.850  -0.743  55.888  1.00  0.00     0.023 C 
BRANCH   9  11
HETATM   11  C9  UNL     1      26.585  -0.772  54.133  1.00  0.00     0.044 A 
HETATM   12  C10 UNL     1      27.272   0.218  54.821  1.00  0.00     0.031 A 
HETATM   13  C11 UNL     1      28.635   0.487  54.657  1.00  0.00     0.046 A 
HETATM   14  C12 UNL     1      29.285  -0.313  53.744  1.00  0.00     0.133 A 
HETATM   15  F1  UNL     1      30.609  -0.085  53.556  1.00  0.00    -0.205 F 
HETATM   16  C13 UNL     1      28.577  -1.298  53.067  1.00  0.00     0.159 A 
HETATM   17  N3  UNL     1      27.262  -1.513  53.265  1.00  0.00    -0.262 NA
ENDBRANCH   9  11
ENDBRANCH   3   9
BRANCH   1  18
HETATM   18  N1  UNL     1      23.996   2.689  51.247  1.00  0.00    -0.325 N 
HETATM   19  H5  UNL     1      24.815   2.723  50.639  1.00  0.00     0.169 HD
BRANCH  18  20
HETATM   20  C4  UNL     1      23.012   3.714  51.195  1.00  0.00     0.150 A 
HETATM   21  C3  UNL     1      21.958   3.856  50.322  1.00  0.00     0.080 A 
HETATM   22  C2  UNL     1      21.252   5.003  50.637  1.00  0.00     0.056 A 
HETATM   23  C1  UNL     1      20.039   5.545  49.956  1.00  0.00     0.072 C 
HETATM   24  N7  UNL     1      21.895   5.539  51.701  1.00  0.00    -0.156 NA
HETATM   25  N5  UNL     1      22.930   4.773  52.024  1.00  0.00    -0.163 N 
BRANCH  25  26
HETATM   26  N6  UNL     1      23.780   5.089  53.095  1.00  0.00    -0.321 N 
HETATM   27  H14 UNL     1      23.544   4.571  53.969  1.00  0.00     0.179 HD
HETATM   28  H15 UNL     1      24.604   5.705  53.289  1.00  0.00     0.179 HD
ENDBRANCH  25  26
ENDBRANCH  18  20
ENDBRANCH   1  18
TORSDOF 5
ENDMDL
MODEL 5
REMARK VINA RESULT:      -7.9      2.727      3.814
REMARK  5 active torsions:
REMARK  status: ('A' for Active; 'I' for Inactive)
REMARK    1  A    between atoms: C4_4  and  N1_5 
REMARK    2  A    between atoms: N1_5  and  C5_6 
REMARK    3  A    between atoms: C6_8  and  C7_9 
REMARK    4  A    between atoms: C7_9  and  C9_11 
REMARK    5  A    between atoms: N5_23  and  N6_24 
ROOT
HETATM    1  C5  UNL     1      24.968   1.631  52.335  1.00  0.00     0.145 A 
HETATM    2  N2  UNL     1      25.602   2.468  51.566  1.00  0.00    -0.234 NA
HETATM    3  C6  UNL     1      24.752   2.873  50.499  1.00  0.00     0.066 A 
HETATM    4  C14 UNL     1      23.580   2.269  50.627  1.00  0.00     0.089 A 
HETATM    5  C15 UNL     1      22.497   2.468  49.703  1.00  0.00     0.100 C 
HETATM    6  N4  UNL     1      21.630   2.635  48.937  1.00  0.00    -0.191 NA
HETATM    7  C16 UNL     1      23.582   1.394  51.831  1.00  0.00     0.285 A 
HETATM    8  F2  UNL     1      22.637   1.747  52.758  1.00  0.00    -0.235 F 
ENDROOT
BRANCH   3   9
HETATM    9  C7  UNL     1      25.189   3.833  49.443  1.00  0.00     0.087 C 
HETATM   10  C8  UNL     1      26.709   3.939  49.409  1.00  0.00     0.023 C 
BRANCH   9  11
HETATM   11  C9  UNL     1      24.584   5.179  49.606  1.00  0.00     0.044 A 
HETATM   12  C10 UNL     1      23.893   5.727  48.535  1.00  0.00     0.031 A 
HETATM   13  C11 UNL     1      23.278   6.984  48.558  1.00  0.00     0.046 A 
HETATM   14  C12 UNL     1      23.397   7.674  49.743  1.00  0.00     0.133 A 
HETATM   15  F1  UNL     1      22.813   8.897  49.808  1.00  0.00    -0.205 F 
HETATM   16  C13 UNL     1      24.092   7.104  50.803  1.00  0.00     0.159 A 
HETATM   17  N3  UNL     1      24.667   5.887  50.725  1.00  0.00    -0.262 NA
ENDBRANCH   9  11
ENDBRANCH   3   9
BRANCH   1  18
HETATM   18  N1  UNL     1      25.485   1.009  53.499  1.00  0.00    -0.325 N 
HETATM   19  H5  UNL     1      24.883   0.915  54.317  1.00  0.00     0.169 HD
BRANCH  18  20
HETATM   20  C4  UNL     1      26.823   0.526  53.523  1.00  0.00     0.150 A 
HETATM   21  C3  UNL     1      27.279  -0.761  53.355  1.00  0.00     0.080 A 
HETATM   22  C2  UNL     1      28.659  -0.776  53.455  1.00  0.00     0.056 A 
HETATM   23  C1  UNL     1      29.570  -1.952  53.339  1.00  0.00     0.072 C 
HETATM   24  N7  UNL     1      29.015   0.510  53.684  1.00  0.00    -0.156 NA
HETATM   25  N5  UNL     1      27.927   1.270  53.721  1.00  0.00    -0.163 N 
BRANCH  25  26
HETATM   26  N6  UNL     1      27.999   2.654  53.944  1.00  0.00    -0.321 N 
HETATM   27  H14 UNL     1      28.305   3.188  53.102  1.00  0.00     0.179 HD
HETATM   28  H15 UNL     1      27.833   3.334  54.722  1.00  0.00     0.179 HD
ENDBRANCH  25  26
ENDBRANCH  18  20
ENDBRANCH   1  18
TORSDOF 5
ENDMDL
MODEL 6
REMARK VINA RESULT:      -7.9      2.514      6.506
REMARK  5 active torsions:
REMARK  status: ('A' for Active; 'I' for Inactive)
REMARK    1  A    between atoms: C4_4  and  N1_5 
REMARK    2  A    between atoms: N1_5  and  C5_6 
REMARK    3  A    between atoms: C6_8  and  C7_9 
REMARK    4  A    between atoms: C7_9  and  C9_11 
REMARK    5  A    between atoms: N5_23  and  N6_24 
ROOT
HETATM    1  C5  UNL     1      22.984   1.345  52.858  1.00  0.00     0.145 A 
HETATM    2  N2  UNL     1      24.034   0.581  52.949  1.00  0.00    -0.234 NA
HETATM    3  C6  UNL     1      25.036   1.040  52.050  1.00  0.00     0.066 A 
HETATM    4  C14 UNL     1      24.584   2.104  51.404  1.00  0.00     0.089 A 
HETATM    5  C15 UNL     1      25.363   2.806  50.420  1.00  0.00     0.100 C 
HETATM    6  N4  UNL     1      26.005   3.360  49.617  1.00  0.00    -0.191 NA
HETATM    7  C16 UNL     1      23.202   2.427  51.850  1.00  0.00     0.285 A 
HETATM    8  F2  UNL     1      23.091   3.672  52.411  1.00  0.00    -0.235 F 
ENDROOT
BRANCH   3   9
HETATM    9  C7  UNL     1      26.364   0.371  51.918  1.00  0.00     0.087 C 
HETATM   10  C8  UNL     1      26.244  -1.122  52.195  1.00  0.00     0.023 C 
BRANCH   9  11
HETATM   11  C9  UNL     1      27.399   0.975  52.795  1.00  0.00     0.044 A 
HETATM   12  C10 UNL     1      27.931   0.202  53.818  1.00  0.00     0.031 A 
HETATM   13  C11 UNL     1      28.909   0.650  54.713  1.00  0.00     0.046 A 
HETATM   14  C12 UNL     1      29.334   1.945  54.518  1.00  0.00     0.133 A 
HETATM   15  F1  UNL     1      30.283   2.418  55.364  1.00  0.00    -0.205 F 
HETATM   16  C13 UNL     1      28.788   2.699  53.487  1.00  0.00     0.159 A 
HETATM   17  N3  UNL     1      27.845   2.216  52.653  1.00  0.00    -0.262 NA
ENDBRANCH   9  11
ENDBRANCH   3   9
BRANCH   1  18
HETATM   18  N1  UNL     1      21.781   1.204  53.594  1.00  0.00    -0.325 N 
HETATM   19  H5  UNL     1      21.740   1.568  54.547  1.00  0.00     0.169 HD
BRANCH  18  20
HETATM   20  C4  UNL     1      20.652   0.565  53.013  1.00  0.00     0.150 A 
HETATM   21  C3  UNL     1      19.881   0.975  51.948  1.00  0.00     0.080 A 
HETATM   22  C2  UNL     1      18.881   0.046  51.722  1.00  0.00     0.056 A 
HETATM   23  C1  UNL     1      17.821   0.083  50.672  1.00  0.00     0.072 C 
HETATM   24  N7  UNL     1      19.066  -0.915  52.657  1.00  0.00    -0.156 NA
HETATM   25  N5  UNL     1      20.111  -0.601  53.413  1.00  0.00    -0.163 N 
BRANCH  25  26
HETATM   26  N6  UNL     1      20.535  -1.423  54.470  1.00  0.00    -0.321 N 
HETATM   27  H14 UNL     1      21.472  -1.850  54.303  1.00  0.00     0.179 HD
HETATM   28  H15 UNL     1      20.186  -1.746  55.402  1.00  0.00     0.179 HD
ENDBRANCH  25  26
ENDBRANCH  18  20
ENDBRANCH   1  18
TORSDOF 5
ENDMDL
MODEL 7
REMARK VINA RESULT:      -7.8      2.241      2.661
REMARK  5 active torsions:
REMARK  status: ('A' for Active; 'I' for Inactive)
REMARK    1  A    between atoms: C4_4  and  N1_5 
REMARK    2  A    between atoms: N1_5  and  C5_6 
REMARK    3  A    between atoms: C6_8  and  C7_9 
REMARK    4  A    between atoms: C7_9  and  C9_11 
REMARK    5  A    between atoms: N5_23  and  N6_24 
ROOT
HETATM    1  C5  UNL     1      25.087   0.598  52.381  1.00  0.00     0.145 A 
HETATM    2  N2  UNL     1      24.014   1.182  51.930  1.00  0.00    -0.234 NA
HETATM    3  C6  UNL     1      22.874   0.679  52.616  1.00  0.00     0.066 A 
HETATM    4  C14 UNL     1      23.265  -0.226  53.501  1.00  0.00     0.089 A 
HETATM    5  C15 UNL     1      22.346  -0.925  54.358  1.00  0.00     0.100 C 
HETATM    6  N4  UNL     1      21.585  -1.490  55.041  1.00  0.00    -0.191 NA
HETATM    7  C16 UNL     1      24.744  -0.386  53.453  1.00  0.00     0.285 A 
HETATM    8  F2  UNL     1      25.359  -0.080  54.638  1.00  0.00    -0.235 F 
ENDROOT
BRANCH   3   9
HETATM    9  C7  UNL     1      21.488   1.152  52.326  1.00  0.00     0.087 C 
HETATM   10  C8  UNL     1      20.829   0.271  51.272  1.00  0.00     0.023 C 
BRANCH   9  11
HETATM   11  C9  UNL     1      21.445   2.575  51.906  1.00  0.00     0.044 A 
HETATM   12  C10 UNL     1      20.728   2.906  50.764  1.00  0.00     0.031 A 
HETATM   13  C11 UNL     1      20.609   4.206  50.262  1.00  0.00     0.046 A 
HETATM   14  C12 UNL     1      21.262   5.177  50.986  1.00  0.00     0.133 A 
HETATM   15  F1  UNL     1      21.171   6.453  50.533  1.00  0.00    -0.205 F 
HETATM   16  C13 UNL     1      21.973   4.823  52.126  1.00  0.00     0.159 A 
HETATM   17  N3  UNL     1      22.055   3.551  52.565  1.00  0.00    -0.262 NA
ENDBRANCH   9  11
ENDBRANCH   3   9
BRANCH   1  18
HETATM   18  N1  UNL     1      26.414   0.834  51.944  1.00  0.00    -0.325 N 
HETATM   19  H5  UNL     1      26.564   1.255  51.027  1.00  0.00     0.169 HD
BRANCH  18  20
HETATM   20  C4  UNL     1      27.517   0.488  52.772  1.00  0.00     0.150 A 
HETATM   21  C3  UNL     1      28.216  -0.697  52.829  1.00  0.00     0.080 A 
HETATM   22  C2  UNL     1      29.215  -0.595  53.781  1.00  0.00     0.056 A 
HETATM   23  C1  UNL     1      30.209  -1.635  54.175  1.00  0.00     0.072 C 
HETATM   24  N7  UNL     1      29.103   0.656  54.286  1.00  0.00    -0.156 NA
HETATM   25  N5  UNL     1      28.101   1.288  53.685  1.00  0.00    -0.163 N 
BRANCH  25  26
HETATM   26  N6  UNL     1      27.754   2.608  54.012  1.00  0.00    -0.321 N 
HETATM   27  H14 UNL     1      26.736   2.802  53.898  1.00  0.00     0.179 HD
HETATM   28  H15 UNL     1      28.221   3.483  54.346  1.00  0.00     0.179 HD
ENDBRANCH  25  26
ENDBRANCH  18  20
ENDBRANCH   1  18
TORSDOF 5
ENDMDL
MODEL 8
REMARK VINA RESULT:      -7.7      2.290      3.163
REMARK  5 active torsions:
REMARK  status: ('A' for Active; 'I' for Inactive)
REMARK    1  A    between atoms: C4_4  and  N1_5 
REMARK    2  A    between atoms: N1_5  and  C5_6 
REMARK    3  A    between atoms: C6_8  and  C7_9 
REMARK    4  A    between atoms: C7_9  and  C9_11 
REMARK    5  A    between atoms: N5_23  and  N6_24 
ROOT
HETATM    1  C5  UNL     1      24.545   1.201  52.807  1.00  0.00     0.145 A 
HETATM    2  N2  UNL     1      24.824   2.158  51.970  1.00  0.00    -0.234 NA
HETATM    3  C6  UNL     1      23.820   2.220  50.964  1.00  0.00     0.066 A 
HETATM    4  C14 UNL     1      22.915   1.282  51.197  1.00  0.00     0.089 A 
HETATM    5  C15 UNL     1      21.766   1.081  50.356  1.00  0.00     0.100 C 
HETATM    6  N4  UNL     1      20.843   0.927  49.657  1.00  0.00    -0.191 NA
HETATM    7  C16 UNL     1      23.278   0.511  52.418  1.00  0.00     0.285 A 
HETATM    8  F2  UNL     1      22.334   0.590  53.408  1.00  0.00    -0.235 F 
ENDROOT
BRANCH   3   9
HETATM    9  C7  UNL     1      23.855   3.217  49.854  1.00  0.00     0.087 C 
HETATM   10  C8  UNL     1      25.293   3.579  49.501  1.00  0.00     0.023 C 
BRANCH   9  11
HETATM   11  C9  UNL     1      23.078   4.444  50.161  1.00  0.00     0.044 A 
HETATM   12  C10 UNL     1      23.762   5.565  50.611  1.00  0.00     0.031 A 
HETATM   13  C11 UNL     1      23.150   6.781  50.935  1.00  0.00     0.046 A 
HETATM   14  C12 UNL     1      21.783   6.809  50.778  1.00  0.00     0.133 A 
HETATM   15  F1  UNL     1      21.150   7.971  51.081  1.00  0.00    -0.205 F 
HETATM   16  C13 UNL     1      21.119   5.675  50.326  1.00  0.00     0.159 A 
HETATM   17  N3  UNL     1      21.761   4.528  50.028  1.00  0.00    -0.262 NA
ENDBRANCH   9  11
ENDBRANCH   3   9
BRANCH   1  18
HETATM   18  N1  UNL     1      25.310   0.832  53.941  1.00  0.00    -0.325 N 
HETATM   19  H5  UNL     1      24.860   0.814  54.856  1.00  0.00     0.169 HD
BRANCH  18  20
HETATM   20  C4  UNL     1      26.685   0.494  53.803  1.00  0.00     0.150 A 
HETATM   21  C3  UNL     1      27.260  -0.750  53.677  1.00  0.00     0.080 A 
HETATM   22  C2  UNL     1      28.632  -0.612  53.568  1.00  0.00     0.056 A 
HETATM   23  C1  UNL     1      29.648  -1.694  53.415  1.00  0.00     0.072 C 
HETATM   24  N7  UNL     1      28.865   0.720  53.630  1.00  0.00    -0.156 NA
HETATM   25  N5  UNL     1      27.712   1.364  53.767  1.00  0.00    -0.163 N 
BRANCH  25  26
HETATM   26  N6  UNL     1      27.652   2.763  53.858  1.00  0.00    -0.321 N 
HETATM   27  H14 UNL     1      26.962   3.186  53.199  1.00  0.00     0.179 HD
HETATM   28  H15 UNL     1      28.103   3.535  54.403  1.00  0.00     0.179 HD
ENDBRANCH  25  26
ENDBRANCH  18  20
ENDBRANCH   1  18
TORSDOF 5
ENDMDL
MODEL 9
REMARK VINA RESULT:      -7.6      2.831      6.767
REMARK  5 active torsions:
REMARK  status: ('A' for Active; 'I' for Inactive)
REMARK    1  A    between atoms: C4_4  and  N1_5 
REMARK    2  A    between atoms: N1_5  and  C5_6 
REMARK    3  A    between atoms: C6_8  and  C7_9 
REMARK    4  A    between atoms: C7_9  and  C9_11 
REMARK    5  A    between atoms: N5_23  and  N6_24 
ROOT
HETATM    1  C5  UNL     1      23.658   4.251  51.256  1.00  0.00     0.145 A 
HETATM    2  N2  UNL     1      22.838   3.568  52.002  1.00  0.00    -0.234 NA
HETATM    3  C6  UNL     1      22.191   2.577  51.213  1.00  0.00     0.066 A 
HETATM    4  C14 UNL     1      22.628   2.661  49.966  1.00  0.00     0.089 A 
HETATM    5  C15 UNL     1      22.166   1.792  48.918  1.00  0.00     0.100 C 
HETATM    6  N4  UNL     1      21.772   1.084  48.076  1.00  0.00    -0.191 NA
HETATM    7  C16 UNL     1      23.630   3.755  49.847  1.00  0.00     0.285 A 
HETATM    8  F2  UNL     1      24.863   3.318  49.438  1.00  0.00    -0.235 F 
ENDROOT
BRANCH   3   9
HETATM    9  C7  UNL     1      21.188   1.627  51.780  1.00  0.00     0.087 C 
HETATM   10  C8  UNL     1      20.014   2.385  52.388  1.00  0.00     0.023 C 
BRANCH   9  11
HETATM   11  C9  UNL     1      21.776   0.703  52.783  1.00  0.00     0.044 A 
HETATM   12  C10 UNL     1      21.005   0.336  53.876  1.00  0.00     0.031 A 
HETATM   13  C11 UNL     1      21.439  -0.526  54.889  1.00  0.00     0.046 A 
HETATM   14  C12 UNL     1      22.720  -1.009  54.740  1.00  0.00     0.133 A 
HETATM   15  F1  UNL     1      23.180  -1.849  55.701  1.00  0.00    -0.205 F 
HETATM   16  C13 UNL     1      23.473  -0.627  53.636  1.00  0.00     0.159 A 
HETATM   17  N3  UNL     1      23.003   0.208  52.689  1.00  0.00    -0.262 NA
ENDBRANCH   9  11
ENDBRANCH   3   9
BRANCH   1  18
HETATM   18  N1  UNL     1      24.480   5.323  51.683  1.00  0.00    -0.325 N 
HETATM   19  H5  UNL     1      25.095   5.185  52.485  1.00  0.00     0.169 HD
BRANCH  18  20
HETATM   20  C4  UNL     1      24.447   6.571  51.002  1.00  0.00     0.150 A 
HETATM   21  C3  UNL     1      25.470   7.236  50.366  1.00  0.00     0.080 A 
HETATM   22  C2  UNL     1      24.990   8.421  49.838  1.00  0.00     0.056 A 
HETATM   23  C1  UNL     1      25.747   9.452  49.070  1.00  0.00     0.072 C 
HETATM   24  N7  UNL     1      23.676   8.453  50.165  1.00  0.00    -0.156 NA
HETATM   25  N5  UNL     1      23.365   7.359  50.850  1.00  0.00    -0.163 N 
BRANCH  25  26
HETATM   26  N6  UNL     1      22.063   7.125  51.320  1.00  0.00    -0.321 N 
HETATM   27  H14 UNL     1      21.572   6.364  50.802  1.00  0.00     0.179 HD
HETATM   28  H15 UNL     1      21.416   7.493  52.055  1.00  0.00     0.179 HD
ENDBRANCH  25  26
ENDBRANCH  18  20
ENDBRANCH   1  18
TORSDOF 5
ENDMDL
