MODEL 1
REMARK VINA RESULT:      -7.6      0.000      0.000
REMARK  3 active torsions:
REMARK  status: ('A' for Active; 'I' for Inactive)
REMARK    1  A    between atoms: S1_2  and  C2_3 
REMARK    2  A    between atoms: C3_4  and  C4_5 
REMARK       I    between atoms: C4_5  and  N1_7 
REMARK    3  A    between atoms: N1_7  and  C5_8 
ROOT
HETATM    1  C2  UNL     1      22.759   0.292  52.565  1.00  0.00     0.087 C 
HETATM    2  C3  UNL     1      23.789   0.988  52.211  1.00  0.00     0.078 C 
HETATM    3  C11 UNL     1      23.678   2.054  51.234  1.00  0.00     0.008 C 
HETATM    4  C12 UNL     1      24.269   2.696  50.260  1.00  0.00    -0.007 C 
HETATM    5  C13 UNL     1      23.603   3.801  49.575  1.00  0.00     0.062 C 
HETATM    6  C14 UNL     1      22.223   3.564  49.138  1.00  0.00    -0.078 C 
HETATM    7  C15 UNL     1      21.756   3.939  47.751  1.00  0.00     0.044 C 
HETATM    8  C16 UNL     1      21.279   3.009  49.915  1.00  0.00     0.035 C 
HETATM    9  P1  UNL     1      21.907   2.575  51.594  1.00  0.00     0.044 P 
HETATM   10  N2  UNL     1      21.522   0.812  51.989  1.00  0.00    -0.347 N 
HETATM   11  C17 UNL     1      20.166   0.514  51.618  1.00  0.00     0.156 C 
ENDROOT
BRANCH   2  12
HETATM   12  C4  UNL     1      25.077   0.650  52.766  1.00  0.00     0.260 C 
HETATM   13  O1  UNL     1      25.270   0.753  53.972  1.00  0.00    -0.267 OA
HETATM   14  N1  UNL     1      26.239   0.197  52.155  1.00  0.00    -0.323 N 
HETATM   15  H4  UNL     1      26.163   0.116  51.117  1.00  0.00     0.169 HD
BRANCH  14  16
HETATM   16  C5  UNL     1      27.484  -0.135  52.705  1.00  0.00     0.035 A 
HETATM   17  C6  UNL     1      28.471   0.674  53.193  1.00  0.00     0.029 A 
HETATM   18  C7  UNL     1      29.679   0.281  53.722  1.00  0.00     0.002 A 
HETATM   19  C8  UNL     1      29.944  -1.068  53.776  1.00  0.00     0.000 A 
HETATM   20  C9  UNL     1      29.007  -1.960  53.308  1.00  0.00     0.002 A 
HETATM   21  C10 UNL     1      27.837  -1.462  52.801  1.00  0.00     0.029 A 
ENDBRANCH  14  16
ENDBRANCH   2  12
BRANCH   1  22
HETATM   22  S1  UNL     1      22.140  -1.037  53.521  1.00  0.00    -0.116 SA
HETATM   23  C1  UNL     1      22.740  -1.279  55.156  1.00  0.00     0.097 C 
ENDBRANCH   1  22
TORSDOF 3
ENDMDL
MODEL 2
REMARK VINA RESULT:      -7.6      3.891      4.963
REMARK  3 active torsions:
REMARK  status: ('A' for Active; 'I' for Inactive)
REMARK    1  A    between atoms: S1_2  and  C2_3 
REMARK    2  A    between atoms: C3_4  and  C4_5 
REMARK       I    between atoms: C4_5  and  N1_7 
REMARK    3  A    between atoms: N1_7  and  C5_8 
ROOT
HETATM    1  C2  UNL     1      24.422   4.594  50.117  1.00  0.00     0.087 C 
HETATM    2  C3  UNL     1      25.702   4.467  49.987  1.00  0.00     0.078 C 
HETATM    3  C11 UNL     1      26.486   5.442  49.256  1.00  0.00     0.008 C 
HETATM    4  C12 UNL     1      27.521   5.639  48.481  1.00  0.00    -0.007 C 
HETATM    5  C13 UNL     1      27.862   6.978  48.007  1.00  0.00     0.062 C 
HETATM    6  C14 UNL     1      26.765   7.772  47.442  1.00  0.00    -0.078 C 
HETATM    7  C15 UNL     1      26.919   8.523  46.140  1.00  0.00     0.044 C 
HETATM    8  C16 UNL     1      25.559   7.897  48.020  1.00  0.00     0.035 C 
HETATM    9  P1  UNL     1      25.432   6.960  49.604  1.00  0.00     0.044 P 
HETATM   10  N2  UNL     1      23.942   5.868  49.588  1.00  0.00    -0.347 N 
HETATM   11  C17 UNL     1      22.812   6.592  49.075  1.00  0.00     0.156 C 
ENDROOT
BRANCH   2  12
HETATM   12  C4  UNL     1      26.340   3.296  50.538  1.00  0.00     0.260 C 
HETATM   13  O1  UNL     1      26.923   2.510  49.799  1.00  0.00    -0.267 OA
HETATM   14  N1  UNL     1      26.431   2.842  51.848  1.00  0.00    -0.323 N 
HETATM   15  H4  UNL     1      25.927   3.445  52.536  1.00  0.00     0.169 HD
BRANCH  14  16
HETATM   16  C5  UNL     1      27.059   1.707  52.373  1.00  0.00     0.035 A 
HETATM   17  C6  UNL     1      26.724   0.387  52.261  1.00  0.00     0.029 A 
HETATM   18  C7  UNL     1      27.388  -0.687  52.806  1.00  0.00     0.002 A 
HETATM   19  C8  UNL     1      28.517  -0.429  53.551  1.00  0.00     0.000 A 
HETATM   20  C9  UNL     1      28.932   0.871  53.718  1.00  0.00     0.002 A 
HETATM   21  C10 UNL     1      28.197   1.866  53.133  1.00  0.00     0.029 A 
ENDBRANCH  14  16
ENDBRANCH   2  12
BRANCH   1  22
HETATM   22  S1  UNL     1      22.930   3.912  50.725  1.00  0.00    -0.116 SA
HETATM   23  C1  UNL     1      22.200   4.583  52.178  1.00  0.00     0.097 C 
ENDBRANCH   1  22
TORSDOF 3
ENDMDL
MODEL 3
REMARK VINA RESULT:      -7.6      2.391      7.332
REMARK  3 active torsions:
REMARK  status: ('A' for Active; 'I' for Inactive)
REMARK    1  A    between atoms: S1_2  and  C2_3 
REMARK    2  A    between atoms: C3_4  and  C4_5 
REMARK       I    between atoms: C4_5  and  N1_7 
REMARK    3  A    between atoms: N1_7  and  C5_8 
ROOT
HETATM    1  C2  UNL     1      23.803   1.683  51.411  1.00  0.00     0.087 C 
HETATM    2  C3  UNL     1      23.580   0.858  52.382  1.00  0.00     0.078 C 
HETATM    3  C11 UNL     1      24.610   0.539  53.351  1.00  0.00     0.008 C 
HETATM    4  C12 UNL     1      25.117  -0.383  54.129  1.00  0.00    -0.007 C 
HETATM    5  C13 UNL     1      26.276  -0.100  54.971  1.00  0.00     0.062 C 
HETATM    6  C14 UNL     1      27.411   0.565  54.323  1.00  0.00    -0.078 C 
HETATM    7  C15 UNL     1      28.830   0.084  54.520  1.00  0.00     0.044 C 
HETATM    8  C16 UNL     1      27.290   1.634  53.519  1.00  0.00     0.035 C 
HETATM    9  P1  UNL     1      25.538   2.174  53.317  1.00  0.00     0.044 P 
HETATM   10  N2  UNL     1      25.112   2.322  51.526  1.00  0.00    -0.347 N 
HETATM   11  C17 UNL     1      26.169   2.999  50.827  1.00  0.00     0.156 C 
ENDROOT
BRANCH   2  12
HETATM   12  C4  UNL     1      22.294   0.210  52.456  1.00  0.00     0.260 C 
HETATM   13  O1  UNL     1      22.227  -0.997  52.664  1.00  0.00    -0.267 OA
HETATM   14  N1  UNL     1      21.009   0.721  52.326  1.00  0.00    -0.323 N 
HETATM   15  H4  UNL     1      20.984   1.743  52.114  1.00  0.00     0.169 HD
BRANCH  14  16
HETATM   16  C5  UNL     1      19.765   0.082  52.407  1.00  0.00     0.035 A 
HETATM   17  C6  UNL     1      19.249  -0.713  53.392  1.00  0.00     0.029 A 
HETATM   18  C7  UNL     1      18.013  -1.314  53.410  1.00  0.00     0.002 A 
HETATM   19  C8  UNL     1      17.186  -1.108  52.329  1.00  0.00     0.000 A 
HETATM   20  C9  UNL     1      17.620  -0.320  51.288  1.00  0.00     0.002 A 
HETATM   21  C10 UNL     1      18.870   0.231  51.371  1.00  0.00     0.029 A 
ENDBRANCH  14  16
ENDBRANCH   2  12
BRANCH   1  22
HETATM   22  S1  UNL     1      23.185   2.461  49.971  1.00  0.00    -0.116 SA
HETATM   23  C1  UNL     1      21.994   1.628  48.981  1.00  0.00     0.097 C 
ENDBRANCH   1  22
TORSDOF 3
ENDMDL
MODEL 4
REMARK VINA RESULT:      -7.5      2.375      5.062
REMARK  3 active torsions:
REMARK  status: ('A' for Active; 'I' for Inactive)
REMARK    1  A    between atoms: S1_2  and  C2_3 
REMARK    2  A    between atoms: C3_4  and  C4_5 
REMARK       I    between atoms: C4_5  and  N1_7 
REMARK    3  A    between atoms: N1_7  and  C5_8 
ROOT
HETATM    1  C2  UNL     1      23.353   0.328  53.104  1.00  0.00     0.087 C 
HETATM    2  C3  UNL     1      22.884   1.269  52.351  1.00  0.00     0.078 C 
HETATM    3  C11 UNL     1      21.470   1.352  52.041  1.00  0.00     0.008 C 
HETATM    4  C12 UNL     1      20.575   1.678  51.144  1.00  0.00    -0.007 C 
HETATM    5  C13 UNL     1      19.148   1.535  51.420  1.00  0.00     0.062 C 
HETATM    6  C14 UNL     1      18.717   0.254  51.989  1.00  0.00    -0.078 C 
HETATM    7  C15 UNL     1      17.514  -0.487  51.452  1.00  0.00     0.044 C 
HETATM    8  C16 UNL     1      19.337  -0.356  53.012  1.00  0.00     0.035 C 
HETATM    9  P1  UNL     1      20.796   0.594  53.624  1.00  0.00     0.044 P 
HETATM   10  N2  UNL     1      22.290  -0.489  53.684  1.00  0.00    -0.347 N 
HETATM   11  C17 UNL     1      21.951  -1.759  54.265  1.00  0.00     0.156 C 
ENDROOT
BRANCH   2  12
HETATM   12  C4  UNL     1      23.806   2.215  51.771  1.00  0.00     0.260 C 
HETATM   13  O1  UNL     1      24.503   2.915  52.497  1.00  0.00    -0.267 OA
HETATM   14  N1  UNL     1      24.082   2.519  50.444  1.00  0.00    -0.323 N 
HETATM   15  H4  UNL     1      23.500   1.983  49.762  1.00  0.00     0.169 HD
BRANCH  14  16
HETATM   16  C5  UNL     1      24.985   3.435  49.892  1.00  0.00     0.035 A 
HETATM   17  C6  UNL     1      26.326   3.314  49.659  1.00  0.00     0.029 A 
HETATM   18  C7  UNL     1      27.162   4.259  49.111  1.00  0.00     0.002 A 
HETATM   19  C8  UNL     1      26.610   5.467  48.749  1.00  0.00     0.000 A 
HETATM   20  C9  UNL     1      25.265   5.680  48.945  1.00  0.00     0.002 A 
HETATM   21  C10 UNL     1      24.524   4.672  49.499  1.00  0.00     0.029 A 
ENDBRANCH  14  16
ENDBRANCH   2  12
BRANCH   1  22
HETATM   22  S1  UNL     1      24.765  -0.415  53.823  1.00  0.00    -0.116 SA
HETATM   23  C1  UNL     1      26.247  -0.542  52.885  1.00  0.00     0.097 C 
ENDBRANCH   1  22
TORSDOF 3
ENDMDL
MODEL 5
REMARK VINA RESULT:      -7.5      4.309      5.704
REMARK  3 active torsions:
REMARK  status: ('A' for Active; 'I' for Inactive)
REMARK    1  A    between atoms: S1_2  and  C2_3 
REMARK    2  A    between atoms: C3_4  and  C4_5 
REMARK       I    between atoms: C4_5  and  N1_7 
REMARK    3  A    between atoms: N1_7  and  C5_8 
ROOT
HETATM    1  C2  UNL     1      24.018   5.850  50.113  1.00  0.00     0.087 C 
HETATM    2  C3  UNL     1      25.073   5.110  50.018  1.00  0.00     0.078 C 
HETATM    3  C11 UNL     1      26.265   5.580  49.340  1.00  0.00     0.008 C 
HETATM    4  C12 UNL     1      27.294   5.249  48.603  1.00  0.00    -0.007 C 
HETATM    5  C13 UNL     1      28.268   6.251  48.178  1.00  0.00     0.062 C 
HETATM    6  C14 UNL     1      27.727   7.487  47.602  1.00  0.00    -0.078 C 
HETATM    7  C15 UNL     1      28.283   8.077  46.327  1.00  0.00     0.044 C 
HETATM    8  C16 UNL     1      26.717   8.184  48.146  1.00  0.00     0.035 C 
HETATM    9  P1  UNL     1      26.080   7.417  49.698  1.00  0.00     0.044 P 
HETATM   10  N2  UNL     1      24.249   7.200  49.606  1.00  0.00    -0.347 N 
HETATM   11  C17 UNL     1      23.642   8.392  49.080  1.00  0.00     0.156 C 
ENDROOT
BRANCH   2  12
HETATM   12  C4  UNL     1      25.031   3.772  50.556  1.00  0.00     0.260 C 
HETATM   13  O1  UNL     1      24.325   2.920  50.025  1.00  0.00    -0.267 OA
HETATM   14  N1  UNL     1      25.680   3.209  51.647  1.00  0.00    -0.323 N 
HETATM   15  H4  UNL     1      26.278   3.884  52.172  1.00  0.00     0.169 HD
BRANCH  14  16
HETATM   16  C5  UNL     1      25.637   1.905  52.156  1.00  0.00     0.035 A 
HETATM   17  C6  UNL     1      24.746   1.328  53.017  1.00  0.00     0.029 A 
HETATM   18  C7  UNL     1      24.761   0.034  53.482  1.00  0.00     0.002 A 
HETATM   19  C8  UNL     1      25.773  -0.790  53.046  1.00  0.00     0.000 A 
HETATM   20  C9  UNL     1      26.717  -0.297  52.175  1.00  0.00     0.002 A 
HETATM   21  C10 UNL     1      26.610   1.008  51.775  1.00  0.00     0.029 A 
ENDBRANCH  14  16
ENDBRANCH   2  12
BRANCH   1  22
HETATM   22  S1  UNL     1      22.360   5.985  50.656  1.00  0.00    -0.116 SA
HETATM   23  C1  UNL     1      21.710   4.780  51.760  1.00  0.00     0.097 C 
ENDBRANCH   1  22
TORSDOF 3
ENDMDL
MODEL 6
REMARK VINA RESULT:      -7.4      3.607      5.962
REMARK  3 active torsions:
REMARK  status: ('A' for Active; 'I' for Inactive)
REMARK    1  A    between atoms: S1_2  and  C2_3 
REMARK    2  A    between atoms: C3_4  and  C4_5 
REMARK       I    between atoms: C4_5  and  N1_7 
REMARK    3  A    between atoms: N1_7  and  C5_8 
ROOT
HETATM    1  C2  UNL     1      21.555   3.395  51.027  1.00  0.00     0.087 C 
HETATM    2  C3  UNL     1      22.781   3.037  51.229  1.00  0.00     0.078 C 
HETATM    3  C11 UNL     1      23.102   1.823  51.952  1.00  0.00     0.008 C 
HETATM    4  C12 UNL     1      23.940   1.237  52.768  1.00  0.00    -0.007 C 
HETATM    5  C13 UNL     1      23.733  -0.145  53.195  1.00  0.00     0.062 C 
HETATM    6  C14 UNL     1      22.387  -0.490  53.665  1.00  0.00    -0.078 C 
HETATM    7  C15 UNL     1      22.169  -1.277  54.936  1.00  0.00     0.044 C 
HETATM    8  C16 UNL     1      21.260  -0.146  53.020  1.00  0.00     0.035 C 
HETATM    9  P1  UNL     1      21.589   0.811  51.478  1.00  0.00     0.044 P 
HETATM   10  N2  UNL     1      20.608   2.376  51.470  1.00  0.00    -0.347 N 
HETATM   11  C17 UNL     1      19.259   2.109  51.889  1.00  0.00     0.156 C 
ENDROOT
BRANCH   2  12
HETATM   12  C4  UNL     1      23.839   3.902  50.767  1.00  0.00     0.260 C 
HETATM   13  O1  UNL     1      24.262   4.795  51.493  1.00  0.00    -0.267 OA
HETATM   14  N1  UNL     1      24.531   3.930  49.563  1.00  0.00    -0.323 N 
HETATM   15  H4  UNL     1      24.203   3.215  48.876  1.00  0.00     0.169 HD
BRANCH  14  16
HETATM   16  C5  UNL     1      25.563   4.770  49.127  1.00  0.00     0.035 A 
HETATM   17  C6  UNL     1      25.520   6.074  48.720  1.00  0.00     0.029 A 
HETATM   18  C7  UNL     1      26.577   6.848  48.301  1.00  0.00     0.002 A 
HETATM   19  C8  UNL     1      27.824   6.267  48.280  1.00  0.00     0.000 A 
HETATM   20  C9  UNL     1      27.966   4.956  48.674  1.00  0.00     0.002 A 
HETATM   21  C10 UNL     1      26.847   4.277  49.073  1.00  0.00     0.029 A 
ENDBRANCH  14  16
ENDBRANCH   2  12
BRANCH   1  22
HETATM   22  S1  UNL     1      20.462   4.596  50.377  1.00  0.00    -0.116 SA
HETATM   23  C1  UNL     1      20.949   6.286  50.352  1.00  0.00     0.097 C 
ENDBRANCH   1  22
TORSDOF 3
ENDMDL
MODEL 7
REMARK VINA RESULT:      -7.1      2.008      3.867
REMARK  3 active torsions:
REMARK  status: ('A' for Active; 'I' for Inactive)
REMARK    1  A    between atoms: S1_2  and  C2_3 
REMARK    2  A    between atoms: C3_4  and  C4_5 
REMARK       I    between atoms: C4_5  and  N1_7 
REMARK    3  A    between atoms: N1_7  and  C5_8 
ROOT
HETATM    1  C2  UNL     1      22.902   1.987  52.161  1.00  0.00     0.087 C 
HETATM    2  C3  UNL     1      23.114   0.835  52.709  1.00  0.00     0.078 C 
HETATM    3  C11 UNL     1      22.035  -0.111  52.915  1.00  0.00     0.008 C 
HETATM    4  C12 UNL     1      21.551  -1.051  53.685  1.00  0.00    -0.007 C 
HETATM    5  C13 UNL     1      20.297  -1.723  53.354  1.00  0.00     0.062 C 
HETATM    6  C14 UNL     1      19.167  -0.860  52.991  1.00  0.00    -0.078 C 
HETATM    7  C15 UNL     1      17.790  -1.072  53.576  1.00  0.00     0.044 C 
HETATM    8  C16 UNL     1      19.258   0.165  52.129  1.00  0.00     0.035 C 
HETATM    9  P1  UNL     1      20.960   0.373  51.450  1.00  0.00     0.044 P 
HETATM   10  N2  UNL     1      21.533   2.115  51.669  1.00  0.00    -0.347 N 
HETATM   11  C17 UNL     1      20.483   3.024  51.299  1.00  0.00     0.156 C 
ENDROOT
BRANCH   2  12
HETATM   12  C4  UNL     1      24.445   0.523  53.170  1.00  0.00     0.260 C 
HETATM   13  O1  UNL     1      24.614   0.079  54.300  1.00  0.00    -0.267 OA
HETATM   14  N1  UNL     1      25.676   0.637  52.537  1.00  0.00    -0.323 N 
HETATM   15  H4  UNL     1      25.617   1.041  51.576  1.00  0.00     0.169 HD
BRANCH  14  16
HETATM   16  C5  UNL     1      26.963   0.324  52.991  1.00  0.00     0.035 A 
HETATM   17  C6  UNL     1      27.884   1.108  53.627  1.00  0.00     0.029 A 
HETATM   18  C7  UNL     1      29.140   0.737  54.049  1.00  0.00     0.002 A 
HETATM   19  C8  UNL     1      29.534  -0.561  53.816  1.00  0.00     0.000 A 
HETATM   20  C9  UNL     1      28.671  -1.426  53.182  1.00  0.00     0.002 A 
HETATM   21  C10 UNL     1      27.444  -0.953  52.803  1.00  0.00     0.029 A 
ENDBRANCH  14  16
ENDBRANCH   2  12
BRANCH   1  22
HETATM   22  S1  UNL     1      23.571   3.527  51.668  1.00  0.00    -0.116 SA
HETATM   23  C1  UNL     1      23.406   4.920  52.728  1.00  0.00     0.097 C 
ENDBRANCH   1  22
TORSDOF 3
ENDMDL
MODEL 8
REMARK VINA RESULT:      -6.9      8.156      9.556
REMARK  3 active torsions:
REMARK  status: ('A' for Active; 'I' for Inactive)
REMARK    1  A    between atoms: S1_2  and  C2_3 
REMARK    2  A    between atoms: C3_4  and  C4_5 
REMARK       I    between atoms: C4_5  and  N1_7 
REMARK    3  A    between atoms: N1_7  and  C5_8 
ROOT
HETATM    1  C2  UNL     1      29.936   7.649  48.510  1.00  0.00     0.087 C 
HETATM    2  C3  UNL     1      29.679   6.414  48.226  1.00  0.00     0.078 C 
HETATM    3  C11 UNL     1      28.366   5.845  48.458  1.00  0.00     0.008 C 
HETATM    4  C12 UNL     1      27.694   4.773  48.791  1.00  0.00    -0.007 C 
HETATM    5  C13 UNL     1      26.235   4.794  48.867  1.00  0.00     0.062 C 
HETATM    6  C14 UNL     1      25.634   5.908  49.609  1.00  0.00    -0.078 C 
HETATM    7  C15 UNL     1      24.535   5.683  50.622  1.00  0.00     0.044 C 
HETATM    8  C16 UNL     1      25.999   7.191  49.456  1.00  0.00     0.035 C 
HETATM    9  P1  UNL     1      27.342   7.401  48.209  1.00  0.00     0.044 P 
HETATM   10  N2  UNL     1      28.738   8.376  48.924  1.00  0.00    -0.347 N 
HETATM   11  C17 UNL     1      28.225   9.509  49.643  1.00  0.00     0.156 C 
ENDROOT
BRANCH   2  12
HETATM   12  C4  UNL     1      30.745   5.585  47.720  1.00  0.00     0.260 C 
HETATM   13  O1  UNL     1      30.568   4.380  47.573  1.00  0.00    -0.267 OA
HETATM   14  N1  UNL     1      32.042   5.904  47.337  1.00  0.00    -0.323 N 
HETATM   15  H4  UNL     1      32.280   6.912  47.465  1.00  0.00     0.169 HD
BRANCH  14  16
HETATM   16  C5  UNL     1      33.068   5.091  46.840  1.00  0.00     0.035 A 
HETATM   17  C6  UNL     1      33.491   4.899  45.554  1.00  0.00     0.029 A 
HETATM   18  C7  UNL     1      34.511   4.080  45.130  1.00  0.00     0.002 A 
HETATM   19  C8  UNL     1      35.195   3.365  46.086  1.00  0.00     0.000 A 
HETATM   20  C9  UNL     1      34.840   3.494  47.409  1.00  0.00     0.002 A 
HETATM   21  C10 UNL     1      33.809   4.337  47.723  1.00  0.00     0.029 A 
ENDBRANCH  14  16
ENDBRANCH   2  12
BRANCH   1  22
HETATM   22  S1  UNL     1      31.131   8.926  48.575  1.00  0.00    -0.116 SA
HETATM   23  C1  UNL     1      31.168  10.140  47.303  1.00  0.00     0.097 C 
ENDBRANCH   1  22
TORSDOF 3
ENDMDL
MODEL 9
REMARK VINA RESULT:      -6.4      3.154      6.699
REMARK  3 active torsions:
REMARK  status: ('A' for Active; 'I' for Inactive)
REMARK    1  A    between atoms: S1_2  and  C2_3 
REMARK    2  A    between atoms: C3_4  and  C4_5 
REMARK       I    between atoms: C4_5  and  N1_7 
REMARK    3  A    between atoms: N1_7  and  C5_8 
ROOT
HETATM    1  C2  UNL     1      23.241   1.603  52.395  1.00  0.00     0.087 C 
HETATM    2  C3  UNL     1      22.164   2.237  52.064  1.00  0.00     0.078 C 
HETATM    3  C11 UNL     1      22.217   3.568  51.493  1.00  0.00     0.008 C 
HETATM    4  C12 UNL     1      21.629   4.733  51.403  1.00  0.00    -0.007 C 
HETATM    5  C13 UNL     1      22.204   5.806  50.595  1.00  0.00     0.062 C 
HETATM    6  C14 UNL     1      23.633   6.077  50.789  1.00  0.00    -0.078 C 
HETATM    7  C15 UNL     1      24.156   7.484  50.958  1.00  0.00     0.044 C 
HETATM    8  C16 UNL     1      24.575   5.121  50.832  1.00  0.00     0.035 C 
HETATM    9  P1  UNL     1      23.877   3.427  50.620  1.00  0.00     0.044 P 
HETATM   10  N2  UNL     1      24.445   2.322  51.986  1.00  0.00    -0.347 N 
HETATM   11  C17 UNL     1      25.852   2.508  52.212  1.00  0.00     0.156 C 
ENDROOT
BRANCH   2  12
HETATM   12  C4  UNL     1      20.888   1.616  52.325  1.00  0.00     0.260 C 
HETATM   13  O1  UNL     1      20.087   2.154  53.080  1.00  0.00    -0.267 OA
HETATM   14  N1  UNL     1      20.342   0.428  51.855  1.00  0.00    -0.323 N 
HETATM   15  H4  UNL     1      20.982  -0.108  51.227  1.00  0.00     0.169 HD
BRANCH  14  16
HETATM   16  C5  UNL     1      19.098  -0.163  52.109  1.00  0.00     0.035 A 
HETATM   17  C6  UNL     1      18.676  -0.889  53.187  1.00  0.00     0.029 A 
HETATM   18  C7  UNL     1      17.433  -1.446  53.376  1.00  0.00     0.002 A 
HETATM   19  C8  UNL     1      16.495  -1.267  52.385  1.00  0.00     0.000 A 
HETATM   20  C9  UNL     1      16.830  -0.549  51.261  1.00  0.00     0.002 A 
HETATM   21  C10 UNL     1      18.096  -0.037  51.173  1.00  0.00     0.029 A 
ENDBRANCH  14  16
ENDBRANCH   2  12
BRANCH   1  22
HETATM   22  S1  UNL     1      23.943   0.167  53.106  1.00  0.00    -0.116 SA
HETATM   23  C1  UNL     1      22.978  -0.819  54.196  1.00  0.00     0.097 C 
ENDBRANCH   1  22
TORSDOF 3
ENDMDL
