MODEL 1
REMARK VINA RESULT:      -7.3      0.000      0.000
REMARK  10 active torsions:
REMARK  status: ('A' for Active; 'I' for Inactive)
REMARK    1  A    between atoms: C2_2  and  C3_3 
REMARK    2  A    between atoms: C3_3  and  C4_4 
REMARK    3  A    between atoms: C4_4  and  C5_5 
REMARK    4  A    between atoms: C5_5  and  C6_6 
REMARK    5  A    between atoms: C6_6  and  C7_7 
REMARK    6  A    between atoms: C7_7  and  C8_8 
REMARK    7  A    between atoms: C8_8  and  N1_9 
REMARK       I    between atoms: N1_9  and  C9_10 
REMARK    8  A    between atoms: C9_10  and  C10_12 
REMARK    9  A    between atoms: C10_12  and  C11_13 
REMARK   10  A    between atoms: C23_26  and  O3_27 
ROOT
HETATM    1  C11 UNL     1      25.765   2.482  51.070  1.00  0.00    -0.052 C 
HETATM    2  C12 UNL     1      26.918   2.400  51.731  1.00  0.00     0.001 C 
HETATM    3  C13 UNL     1      27.035   1.693  52.950  1.00  0.00     0.069 C 
HETATM    4  C14 UNL     1      26.119   2.395  53.888  1.00  0.00     0.031 C 
HETATM    5  C15 UNL     1      28.199   1.738  53.889  1.00  0.00     0.164 C 
HETATM    6  O2  UNL     1      29.256   2.102  54.337  1.00  0.00    -0.292 OA
HETATM    7  C16 UNL     1      27.644   0.642  54.807  1.00  0.00     0.060 C 
HETATM    8  C17 UNL     1      26.713  -0.110  54.143  1.00  0.00    -0.028 C 
HETATM    9  C18 UNL     1      25.596  -1.017  53.754  1.00  0.00    -0.011 C 
HETATM   10  C19 UNL     1      24.579  -0.236  53.351  1.00  0.00     0.020 C 
HETATM   11  C20 UNL     1      23.314   0.232  52.854  1.00  0.00     0.036 C 
HETATM   12  C21 UNL     1      23.488   1.215  51.712  1.00  0.00    -0.025 C 
HETATM   13  C22 UNL     1      24.388   1.986  51.111  1.00  0.00     0.003 C 
HETATM   14  C23 UNL     1      27.171   0.283  52.742  1.00  0.00     0.170 C 
ENDROOT
BRANCH   1  15
HETATM   15  C10 UNL     1      25.919   3.310  49.802  1.00  0.00     0.141 C 
BRANCH  15  16
HETATM   16  C9  UNL     1      25.030   4.534  49.940  1.00  0.00     0.221 C 
HETATM   17  N1  UNL     1      24.638   5.052  51.188  1.00  0.00    -0.361 N 
HETATM   18  H18 UNL     1      24.993   4.522  52.008  1.00  0.00     0.162 HD
HETATM   19  O1  UNL     1      24.602   5.147  48.904  1.00  0.00    -0.273 OA
BRANCH  17  20
HETATM   20  C8  UNL     1      23.797   6.241  50.958  1.00  0.00     0.122 C 
BRANCH  20  21
HETATM   21  C7  UNL     1      22.344   5.984  51.190  1.00  0.00     0.020 C 
BRANCH  21  22
HETATM   22  C6  UNL     1      22.094   4.728  52.000  1.00  0.00     0.002 C 
BRANCH  22  23
HETATM   23  C5  UNL     1      20.957   3.912  51.440  1.00  0.00     0.000 C 
BRANCH  23  24
HETATM   24  C4  UNL     1      21.177   3.534  50.003  1.00  0.00     0.000 C 
BRANCH  24  25
HETATM   25  C3  UNL     1      20.670   2.183  49.625  1.00  0.00    -0.000 C 
BRANCH  25  26
HETATM   26  C2  UNL     1      21.460   1.491  48.554  1.00  0.00    -0.005 C 
HETATM   27  C1  UNL     1      22.519   2.417  47.971  1.00  0.00     0.005 C 
ENDBRANCH  25  26
ENDBRANCH  24  25
ENDBRANCH  23  24
ENDBRANCH  22  23
ENDBRANCH  21  22
ENDBRANCH  20  21
ENDBRANCH  17  20
ENDBRANCH  15  16
ENDBRANCH   1  15
BRANCH  14  28
HETATM   28  O3  UNL     1      26.641  -0.384  51.712  1.00  0.00    -0.389 OA
HETATM   29  H33 UNL     1      27.189  -1.136  51.449  1.00  0.00     0.210 HD
ENDBRANCH  14  28
TORSDOF 10
ENDMDL
MODEL 2
REMARK VINA RESULT:      -7.2      1.808      3.450
REMARK  10 active torsions:
REMARK  status: ('A' for Active; 'I' for Inactive)
REMARK    1  A    between atoms: C2_2  and  C3_3 
REMARK    2  A    between atoms: C3_3  and  C4_4 
REMARK    3  A    between atoms: C4_4  and  C5_5 
REMARK    4  A    between atoms: C5_5  and  C6_6 
REMARK    5  A    between atoms: C6_6  and  C7_7 
REMARK    6  A    between atoms: C7_7  and  C8_8 
REMARK    7  A    between atoms: C8_8  and  N1_9 
REMARK       I    between atoms: N1_9  and  C9_10 
REMARK    8  A    between atoms: C9_10  and  C10_12 
REMARK    9  A    between atoms: C10_12  and  C11_13 
REMARK   10  A    between atoms: C23_26  and  O3_27 
ROOT
HETATM    1  C11 UNL     1      25.381   2.507  51.058  1.00  0.00    -0.052 C 
HETATM    2  C12 UNL     1      26.576   2.562  51.642  1.00  0.00     0.001 C 
HETATM    3  C13 UNL     1      26.849   1.892  52.856  1.00  0.00     0.069 C 
HETATM    4  C14 UNL     1      25.925   2.507  53.847  1.00  0.00     0.031 C 
HETATM    5  C15 UNL     1      28.060   2.080  53.716  1.00  0.00     0.164 C 
HETATM    6  O2  UNL     1      29.098   2.564  54.088  1.00  0.00    -0.292 OA
HETATM    7  C16 UNL     1      27.690   0.946  54.680  1.00  0.00     0.060 C 
HETATM    8  C17 UNL     1      26.804   0.086  54.086  1.00  0.00    -0.028 C 
HETATM    9  C18 UNL     1      25.770  -0.943  53.782  1.00  0.00    -0.011 C 
HETATM   10  C19 UNL     1      24.651  -0.284  53.439  1.00  0.00     0.020 C 
HETATM   11  C20 UNL     1      23.312   0.036  53.023  1.00  0.00     0.036 C 
HETATM   12  C21 UNL     1      23.303   1.012  51.863  1.00  0.00    -0.025 C 
HETATM   13  C22 UNL     1      24.072   1.866  51.196  1.00  0.00     0.003 C 
HETATM   14  C23 UNL     1      27.125   0.503  52.655  1.00  0.00     0.170 C 
ENDROOT
BRANCH   1  15
HETATM   15  C10 UNL     1      25.360   3.325  49.774  1.00  0.00     0.141 C 
BRANCH  15  16
HETATM   16  C9  UNL     1      24.430   4.506  49.994  1.00  0.00     0.221 C 
HETATM   17  N1  UNL     1      24.640   5.460  51.007  1.00  0.00    -0.361 N 
HETATM   18  H18 UNL     1      25.474   5.285  51.601  1.00  0.00     0.162 HD
HETATM   19  O1  UNL     1      23.406   4.674  49.251  1.00  0.00    -0.273 OA
BRANCH  17  20
HETATM   20  C8  UNL     1      23.566   6.468  50.931  1.00  0.00     0.122 C 
BRANCH  20  21
HETATM   21  C7  UNL     1      24.080   7.867  50.858  1.00  0.00     0.020 C 
BRANCH  21  22
HETATM   22  C6  UNL     1      25.453   7.954  50.224  1.00  0.00     0.002 C 
BRANCH  22  23
HETATM   23  C5  UNL     1      25.381   7.991  48.719  1.00  0.00     0.000 C 
BRANCH  23  24
HETATM   24  C4  UNL     1      26.297   6.989  48.077  1.00  0.00     0.000 C 
BRANCH  24  25
HETATM   25  C3  UNL     1      27.660   7.503  47.753  1.00  0.00    -0.000 C 
BRANCH  25  26
HETATM   26  C2  UNL     1      28.749   6.474  47.804  1.00  0.00    -0.005 C 
HETATM   27  C1  UNL     1      28.261   5.193  48.467  1.00  0.00     0.005 C 
ENDBRANCH  25  26
ENDBRANCH  24  25
ENDBRANCH  23  24
ENDBRANCH  22  23
ENDBRANCH  21  22
ENDBRANCH  20  21
ENDBRANCH  17  20
ENDBRANCH  15  16
ENDBRANCH   1  15
BRANCH  14  28
HETATM   28  O3  UNL     1      26.605  -0.236  51.669  1.00  0.00    -0.389 OA
HETATM   29  H33 UNL     1      26.251  -1.074  51.995  1.00  0.00     0.210 HD
ENDBRANCH  14  28
TORSDOF 10
ENDMDL
MODEL 3
REMARK VINA RESULT:      -7.1      2.657      4.419
REMARK  10 active torsions:
REMARK  status: ('A' for Active; 'I' for Inactive)
REMARK    1  A    between atoms: C2_2  and  C3_3 
REMARK    2  A    between atoms: C3_3  and  C4_4 
REMARK    3  A    between atoms: C4_4  and  C5_5 
REMARK    4  A    between atoms: C5_5  and  C6_6 
REMARK    5  A    between atoms: C6_6  and  C7_7 
REMARK    6  A    between atoms: C7_7  and  C8_8 
REMARK    7  A    between atoms: C8_8  and  N1_9 
REMARK       I    between atoms: N1_9  and  C9_10 
REMARK    8  A    between atoms: C9_10  and  C10_12 
REMARK    9  A    between atoms: C10_12  and  C11_13 
REMARK   10  A    between atoms: C23_26  and  O3_27 
ROOT
HETATM    1  C11 UNL     1      24.558  -0.230  53.752  1.00  0.00    -0.052 C 
HETATM    2  C12 UNL     1      25.582  -1.068  53.898  1.00  0.00     0.001 C 
HETATM    3  C13 UNL     1      26.887  -0.741  53.462  1.00  0.00     0.069 C 
HETATM    4  C14 UNL     1      26.762  -0.561  51.990  1.00  0.00     0.031 C 
HETATM    5  C15 UNL     1      28.043  -1.684  53.353  1.00  0.00     0.164 C 
HETATM    6  O2  UNL     1      28.629  -2.736  53.374  1.00  0.00    -0.292 OA
HETATM    7  C16 UNL     1      29.051  -0.584  52.995  1.00  0.00     0.060 C 
HETATM    8  C17 UNL     1      28.579   0.640  53.387  1.00  0.00    -0.028 C 
HETATM    9  C18 UNL     1      28.306   2.094  53.573  1.00  0.00    -0.011 C 
HETATM   10  C19 UNL     1      27.142   2.355  52.954  1.00  0.00     0.020 C 
HETATM   11  C20 UNL     1      25.973   3.015  52.439  1.00  0.00     0.036 C 
HETATM   12  C21 UNL     1      24.701   2.285  52.825  1.00  0.00    -0.025 C 
HETATM   13  C22 UNL     1      24.249   1.128  53.297  1.00  0.00     0.003 C 
HETATM   14  C23 UNL     1      27.572   0.099  54.396  1.00  0.00     0.170 C 
ENDROOT
BRANCH   1  15
HETATM   15  C10 UNL     1      23.272  -0.836  54.296  1.00  0.00     0.141 C 
BRANCH  15  16
HETATM   16  C9  UNL     1      22.113  -0.219  53.533  1.00  0.00     0.221 C 
HETATM   17  N1  UNL     1      21.960  -0.356  52.141  1.00  0.00    -0.361 N 
HETATM   18  H18 UNL     1      22.711  -0.901  51.674  1.00  0.00     0.162 HD
HETATM   19  O1  UNL     1      21.219   0.458  54.144  1.00  0.00    -0.273 OA
BRANCH  17  20
HETATM   20  C8  UNL     1      20.731   0.350  51.733  1.00  0.00     0.122 C 
BRANCH  20  21
HETATM   21  C7  UNL     1      20.829   0.957  50.372  1.00  0.00     0.020 C 
BRANCH  21  22
HETATM   22  C6  UNL     1      22.191   1.557  50.095  1.00  0.00     0.002 C 
BRANCH  22  23
HETATM   23  C5  UNL     1      22.303   2.081  48.686  1.00  0.00     0.000 C 
BRANCH  23  24
HETATM   24  C4  UNL     1      23.065   3.373  48.614  1.00  0.00     0.000 C 
BRANCH  24  25
HETATM   25  C3  UNL     1      24.410   3.346  49.259  1.00  0.00    -0.000 C 
BRANCH  25  26
HETATM   26  C2  UNL     1      25.185   4.625  49.153  1.00  0.00    -0.005 C 
HETATM   27  C1  UNL     1      26.683   4.366  49.249  1.00  0.00     0.005 C 
ENDBRANCH  25  26
ENDBRANCH  24  25
ENDBRANCH  23  24
ENDBRANCH  22  23
ENDBRANCH  21  22
ENDBRANCH  20  21
ENDBRANCH  17  20
ENDBRANCH  15  16
ENDBRANCH   1  15
BRANCH  14  28
HETATM   28  O3  UNL     1      26.972   0.982  55.200  1.00  0.00    -0.389 OA
HETATM   29  H33 UNL     1      27.546   1.734  55.402  1.00  0.00     0.210 HD
ENDBRANCH  14  28
TORSDOF 10
ENDMDL
MODEL 4
REMARK VINA RESULT:      -7.1      0.864      1.252
REMARK  10 active torsions:
REMARK  status: ('A' for Active; 'I' for Inactive)
REMARK    1  A    between atoms: C2_2  and  C3_3 
REMARK    2  A    between atoms: C3_3  and  C4_4 
REMARK    3  A    between atoms: C4_4  and  C5_5 
REMARK    4  A    between atoms: C5_5  and  C6_6 
REMARK    5  A    between atoms: C6_6  and  C7_7 
REMARK    6  A    between atoms: C7_7  and  C8_8 
REMARK    7  A    between atoms: C8_8  and  N1_9 
REMARK       I    between atoms: N1_9  and  C9_10 
REMARK    8  A    between atoms: C9_10  and  C10_12 
REMARK    9  A    between atoms: C10_12  and  C11_13 
REMARK   10  A    between atoms: C23_26  and  O3_27 
ROOT
HETATM    1  C11 UNL     1      25.831   2.523  51.048  1.00  0.00    -0.052 C 
HETATM    2  C12 UNL     1      26.965   2.408  51.735  1.00  0.00     0.001 C 
HETATM    3  C13 UNL     1      27.037   1.686  52.949  1.00  0.00     0.069 C 
HETATM    4  C14 UNL     1      26.115   2.401  53.872  1.00  0.00     0.031 C 
HETATM    5  C15 UNL     1      28.179   1.696  53.916  1.00  0.00     0.164 C 
HETATM    6  O2  UNL     1      29.233   2.031  54.392  1.00  0.00    -0.292 OA
HETATM    7  C16 UNL     1      27.577   0.604  54.810  1.00  0.00     0.060 C 
HETATM    8  C17 UNL     1      26.645  -0.120  54.116  1.00  0.00    -0.028 C 
HETATM    9  C18 UNL     1      25.516  -0.997  53.692  1.00  0.00    -0.011 C 
HETATM   10  C19 UNL     1      24.528  -0.188  53.273  1.00  0.00     0.020 C 
HETATM   11  C20 UNL     1      23.287   0.314  52.751  1.00  0.00     0.036 C 
HETATM   12  C21 UNL     1      23.510   1.303  51.623  1.00  0.00    -0.025 C 
HETATM   13  C22 UNL     1      24.442   2.059  51.051  1.00  0.00     0.003 C 
HETATM   14  C23 UNL     1      27.145   0.276  52.731  1.00  0.00     0.170 C 
ENDROOT
BRANCH   1  15
HETATM   15  C10 UNL     1      26.034   3.359  49.792  1.00  0.00     0.141 C 
BRANCH  15  16
HETATM   16  C9  UNL     1      25.088   4.544  49.869  1.00  0.00     0.221 C 
HETATM   17  N1  UNL     1      24.788   5.200  51.078  1.00  0.00    -0.361 N 
HETATM   18  H18 UNL     1      25.255   4.800  51.915  1.00  0.00     0.162 HD
HETATM   19  O1  UNL     1      24.521   4.995  48.816  1.00  0.00    -0.273 OA
BRANCH  17  20
HETATM   20  C8  UNL     1      23.854   6.305  50.792  1.00  0.00     0.122 C 
BRANCH  20  21
HETATM   21  C7  UNL     1      22.486   6.072  51.341  1.00  0.00     0.020 C 
BRANCH  21  22
HETATM   22  C6  UNL     1      22.413   4.850  52.232  1.00  0.00     0.002 C 
BRANCH  22  23
HETATM   23  C5  UNL     1      21.116   4.101  52.061  1.00  0.00     0.000 C 
BRANCH  23  24
HETATM   24  C4  UNL     1      20.895   3.656  50.644  1.00  0.00     0.000 C 
BRANCH  24  25
HETATM   25  C3  UNL     1      20.131   2.383  50.498  1.00  0.00    -0.000 C 
BRANCH  25  26
HETATM   26  C2  UNL     1      19.736   1.734  51.792  1.00  0.00    -0.005 C 
HETATM   27  C1  UNL     1      19.706   0.217  51.656  1.00  0.00     0.005 C 
ENDBRANCH  25  26
ENDBRANCH  24  25
ENDBRANCH  23  24
ENDBRANCH  22  23
ENDBRANCH  21  22
ENDBRANCH  20  21
ENDBRANCH  17  20
ENDBRANCH  15  16
ENDBRANCH   1  15
BRANCH  14  28
HETATM   28  O3  UNL     1      26.624  -0.369  51.682  1.00  0.00    -0.389 OA
HETATM   29  H33 UNL     1      25.661  -0.295  51.656  1.00  0.00     0.210 HD
ENDBRANCH  14  28
TORSDOF 10
ENDMDL
MODEL 5
REMARK VINA RESULT:      -6.6      2.098      3.142
REMARK  10 active torsions:
REMARK  status: ('A' for Active; 'I' for Inactive)
REMARK    1  A    between atoms: C2_2  and  C3_3 
REMARK    2  A    between atoms: C3_3  and  C4_4 
REMARK    3  A    between atoms: C4_4  and  C5_5 
REMARK    4  A    between atoms: C5_5  and  C6_6 
REMARK    5  A    between atoms: C6_6  and  C7_7 
REMARK    6  A    between atoms: C7_7  and  C8_8 
REMARK    7  A    between atoms: C8_8  and  N1_9 
REMARK       I    between atoms: N1_9  and  C9_10 
REMARK    8  A    between atoms: C9_10  and  C10_12 
REMARK    9  A    between atoms: C10_12  and  C11_13 
REMARK   10  A    between atoms: C23_26  and  O3_27 
ROOT
HETATM    1  C11 UNL     1      24.511   2.686  53.061  1.00  0.00    -0.052 C 
HETATM    2  C12 UNL     1      25.821   2.885  53.191  1.00  0.00     0.001 C 
HETATM    3  C13 UNL     1      26.711   1.834  53.511  1.00  0.00     0.069 C 
HETATM    4  C14 UNL     1      26.274   1.361  54.852  1.00  0.00     0.031 C 
HETATM    5  C15 UNL     1      28.144   1.983  53.916  1.00  0.00     0.164 C 
HETATM    6  O2  UNL     1      29.160   2.548  54.228  1.00  0.00    -0.292 OA
HETATM    7  C16 UNL     1      28.417   0.474  53.920  1.00  0.00     0.060 C 
HETATM    8  C17 UNL     1      27.482  -0.181  53.162  1.00  0.00    -0.028 C 
HETATM    9  C18 UNL     1      26.573  -1.179  52.531  1.00  0.00    -0.011 C 
HETATM   10  C19 UNL     1      25.345  -0.961  53.029  1.00  0.00     0.020 C 
HETATM   11  C20 UNL     1      23.936  -1.037  53.306  1.00  0.00     0.036 C 
HETATM   12  C21 UNL     1      23.261   0.313  53.159  1.00  0.00    -0.025 C 
HETATM   13  C22 UNL     1      23.512   1.614  53.069  1.00  0.00     0.003 C 
HETATM   14  C23 UNL     1      27.047   1.045  52.366  1.00  0.00     0.170 C 
ENDROOT
BRANCH   1  15
HETATM   15  C10 UNL     1      23.790   3.984  52.726  1.00  0.00     0.141 C 
BRANCH  15  16
HETATM   16  C9  UNL     1      22.881   3.714  51.541  1.00  0.00     0.221 C 
HETATM   17  N1  UNL     1      23.365   3.271  50.296  1.00  0.00    -0.361 N 
HETATM   18  H18 UNL     1      24.397   3.156  50.249  1.00  0.00     0.162 HD
HETATM   19  O1  UNL     1      21.618   3.884  51.637  1.00  0.00    -0.273 OA
BRANCH  17  20
HETATM   20  C8  UNL     1      22.221   3.098  49.382  1.00  0.00     0.122 C 
BRANCH  20  21
HETATM   21  C7  UNL     1      22.110   1.711  48.839  1.00  0.00     0.020 C 
BRANCH  21  22
HETATM   22  C6  UNL     1      21.441   0.756  49.806  1.00  0.00     0.002 C 
BRANCH  22  23
HETATM   23  C5  UNL     1      20.060   1.218  50.193  1.00  0.00     0.000 C 
BRANCH  23  24
HETATM   24  C4  UNL     1      19.381   0.267  51.137  1.00  0.00     0.000 C 
BRANCH  24  25
HETATM   25  C3  UNL     1      19.702   0.478  52.578  1.00  0.00    -0.000 C 
BRANCH  25  26
HETATM   26  C2  UNL     1      19.464  -0.714  53.457  1.00  0.00    -0.005 C 
HETATM   27  C1  UNL     1      18.111  -1.348  53.165  1.00  0.00     0.005 C 
ENDBRANCH  25  26
ENDBRANCH  24  25
ENDBRANCH  23  24
ENDBRANCH  22  23
ENDBRANCH  21  22
ENDBRANCH  20  21
ENDBRANCH  17  20
ENDBRANCH  15  16
ENDBRANCH   1  15
BRANCH  14  28
HETATM   28  O3  UNL     1      26.235   0.843  51.323  1.00  0.00    -0.389 OA
HETATM   29  H33 UNL     1      25.791   1.657  51.048  1.00  0.00     0.210 HD
ENDBRANCH  14  28
TORSDOF 10
ENDMDL
MODEL 6
REMARK VINA RESULT:      -6.6      2.185      6.953
REMARK  10 active torsions:
REMARK  status: ('A' for Active; 'I' for Inactive)
REMARK    1  A    between atoms: C2_2  and  C3_3 
REMARK    2  A    between atoms: C3_3  and  C4_4 
REMARK    3  A    between atoms: C4_4  and  C5_5 
REMARK    4  A    between atoms: C5_5  and  C6_6 
REMARK    5  A    between atoms: C6_6  and  C7_7 
REMARK    6  A    between atoms: C7_7  and  C8_8 
REMARK    7  A    between atoms: C8_8  and  N1_9 
REMARK       I    between atoms: N1_9  and  C9_10 
REMARK    8  A    between atoms: C9_10  and  C10_12 
REMARK    9  A    between atoms: C10_12  and  C11_13 
REMARK   10  A    between atoms: C23_26  and  O3_27 
ROOT
HETATM    1  C11 UNL     1      25.562   4.371  49.398  1.00  0.00    -0.052 C 
HETATM    2  C12 UNL     1      26.290   5.440  49.713  1.00  0.00     0.001 C 
HETATM    3  C13 UNL     1      25.759   6.749  49.666  1.00  0.00     0.069 C 
HETATM    4  C14 UNL     1      25.390   6.960  48.240  1.00  0.00     0.031 C 
HETATM    5  C15 UNL     1      26.539   8.022  49.759  1.00  0.00     0.164 C 
HETATM    6  O2  UNL     1      27.510   8.732  49.818  1.00  0.00    -0.292 OA
HETATM    7  C16 UNL     1      25.293   8.916  49.793  1.00  0.00     0.060 C 
HETATM    8  C17 UNL     1      24.197   8.190  50.178  1.00  0.00    -0.028 C 
HETATM    9  C18 UNL     1      22.825   7.672  50.441  1.00  0.00    -0.011 C 
HETATM   10  C19 UNL     1      22.614   6.666  49.575  1.00  0.00     0.020 C 
HETATM   11  C20 UNL     1      22.026   5.573  48.848  1.00  0.00     0.036 C 
HETATM   12  C21 UNL     1      22.943   4.366  48.813  1.00  0.00    -0.025 C 
HETATM   13  C22 UNL     1      24.198   3.987  49.025  1.00  0.00     0.003 C 
HETATM   14  C23 UNL     1      24.986   7.059  50.829  1.00  0.00     0.170 C 
ENDROOT
BRANCH   1  15
HETATM   15  C10 UNL     1      26.381   3.093  49.522  1.00  0.00     0.141 C 
BRANCH  15  16
HETATM   16  C9  UNL     1      26.308   2.638  50.969  1.00  0.00     0.221 C 
HETATM   17  N1  UNL     1      25.099   2.288  51.597  1.00  0.00    -0.361 N 
HETATM   18  H18 UNL     1      24.257   2.378  50.995  1.00  0.00     0.162 HD
HETATM   19  O1  UNL     1      27.367   2.557  51.679  1.00  0.00    -0.273 OA
BRANCH  17  20
HETATM   20  C8  UNL     1      25.390   1.884  52.985  1.00  0.00     0.122 C 
BRANCH  20  21
HETATM   21  C7  UNL     1      24.660   0.650  53.401  1.00  0.00     0.020 C 
BRANCH  21  22
HETATM   22  C6  UNL     1      25.589  -0.449  53.872  1.00  0.00     0.002 C 
BRANCH  22  23
HETATM   23  C5  UNL     1      26.231  -1.179  52.720  1.00  0.00     0.000 C 
BRANCH  23  24
HETATM   24  C4  UNL     1      27.641  -1.600  53.022  1.00  0.00     0.000 C 
BRANCH  24  25
HETATM   25  C3  UNL     1      28.638  -0.491  53.031  1.00  0.00    -0.000 C 
BRANCH  25  26
HETATM   26  C2  UNL     1      29.093  -0.063  54.394  1.00  0.00    -0.005 C 
HETATM   27  C1  UNL     1      29.213   1.452  54.481  1.00  0.00     0.005 C 
ENDBRANCH  25  26
ENDBRANCH  24  25
ENDBRANCH  23  24
ENDBRANCH  22  23
ENDBRANCH  21  22
ENDBRANCH  20  21
ENDBRANCH  17  20
ENDBRANCH  15  16
ENDBRANCH   1  15
BRANCH  14  28
HETATM   28  O3  UNL     1      24.297   6.160  51.540  1.00  0.00    -0.389 OA
HETATM   29  H33 UNL     1      23.937   6.542  52.352  1.00  0.00     0.210 HD
ENDBRANCH  14  28
TORSDOF 10
ENDMDL
MODEL 7
REMARK VINA RESULT:      -6.5      2.094      3.957
REMARK  10 active torsions:
REMARK  status: ('A' for Active; 'I' for Inactive)
REMARK    1  A    between atoms: C2_2  and  C3_3 
REMARK    2  A    between atoms: C3_3  and  C4_4 
REMARK    3  A    between atoms: C4_4  and  C5_5 
REMARK    4  A    between atoms: C5_5  and  C6_6 
REMARK    5  A    between atoms: C6_6  and  C7_7 
REMARK    6  A    between atoms: C7_7  and  C8_8 
REMARK    7  A    between atoms: C8_8  and  N1_9 
REMARK       I    between atoms: N1_9  and  C9_10 
REMARK    8  A    between atoms: C9_10  and  C10_12 
REMARK    9  A    between atoms: C10_12  and  C11_13 
REMARK   10  A    between atoms: C23_26  and  O3_27 
ROOT
HETATM    1  C11 UNL     1      23.440   1.746  52.081  1.00  0.00    -0.052 C 
HETATM    2  C12 UNL     1      23.736   1.050  53.176  1.00  0.00     0.001 C 
HETATM    3  C13 UNL     1      25.060   0.660  53.483  1.00  0.00     0.069 C 
HETATM    4  C14 UNL     1      25.466  -0.226  52.359  1.00  0.00     0.031 C 
HETATM    5  C15 UNL     1      25.471  -0.317  54.539  1.00  0.00     0.164 C 
HETATM    6  O2  UNL     1      25.338  -1.144  55.404  1.00  0.00    -0.292 OA
HETATM    7  C16 UNL     1      26.972  -0.063  54.348  1.00  0.00     0.060 C 
HETATM    8  C17 UNL     1      27.177   1.144  53.735  1.00  0.00    -0.028 C 
HETATM    9  C18 UNL     1      27.721   2.314  52.990  1.00  0.00    -0.011 C 
HETATM   10  C19 UNL     1      27.124   2.324  51.786  1.00  0.00     0.020 C 
HETATM   11  C20 UNL     1      26.717   2.674  50.453  1.00  0.00     0.036 C 
HETATM   12  C21 UNL     1      25.208   2.750  50.328  1.00  0.00    -0.025 C 
HETATM   13  C22 UNL     1      24.080   2.409  50.942  1.00  0.00     0.003 C 
HETATM   14  C23 UNL     1      25.809   1.723  54.081  1.00  0.00     0.170 C 
ENDROOT
BRANCH   1  15
HETATM   15  C10 UNL     1      21.945   2.019  51.992  1.00  0.00     0.141 C 
BRANCH  15  16
HETATM   16  C9  UNL     1      21.761   3.508  51.760  1.00  0.00     0.221 C 
HETATM   17  N1  UNL     1      21.188   4.030  50.585  1.00  0.00    -0.361 N 
HETATM   18  H18 UNL     1      20.915   3.315  49.882  1.00  0.00     0.162 HD
HETATM   19  O1  UNL     1      22.127   4.354  52.644  1.00  0.00    -0.273 OA
BRANCH  17  20
HETATM   20  C8  UNL     1      21.149   5.500  50.695  1.00  0.00     0.122 C 
BRANCH  20  21
HETATM   21  C7  UNL     1      21.356   6.191  49.388  1.00  0.00     0.020 C 
BRANCH  21  22
HETATM   22  C6  UNL     1      22.782   6.661  49.193  1.00  0.00     0.002 C 
BRANCH  22  23
HETATM   23  C5  UNL     1      23.550   6.693  50.490  1.00  0.00     0.000 C 
BRANCH  23  24
HETATM   24  C4  UNL     1      25.004   6.368  50.303  1.00  0.00     0.000 C 
BRANCH  24  25
HETATM   25  C3  UNL     1      25.374   5.913  48.932  1.00  0.00    -0.000 C 
BRANCH  25  26
HETATM   26  C2  UNL     1      26.649   6.494  48.398  1.00  0.00    -0.005 C 
HETATM   27  C1  UNL     1      27.777   5.471  48.442  1.00  0.00     0.005 C 
ENDBRANCH  25  26
ENDBRANCH  24  25
ENDBRANCH  23  24
ENDBRANCH  22  23
ENDBRANCH  21  22
ENDBRANCH  20  21
ENDBRANCH  17  20
ENDBRANCH  15  16
ENDBRANCH   1  15
BRANCH  14  28
HETATM   28  O3  UNL     1      25.610   3.021  53.830  1.00  0.00    -0.389 OA
HETATM   29  H33 UNL     1      24.691   3.207  53.596  1.00  0.00     0.210 HD
ENDBRANCH  14  28
TORSDOF 10
ENDMDL
MODEL 8
REMARK VINA RESULT:      -6.5      2.197      4.186
REMARK  10 active torsions:
REMARK  status: ('A' for Active; 'I' for Inactive)
REMARK    1  A    between atoms: C2_2  and  C3_3 
REMARK    2  A    between atoms: C3_3  and  C4_4 
REMARK    3  A    between atoms: C4_4  and  C5_5 
REMARK    4  A    between atoms: C5_5  and  C6_6 
REMARK    5  A    between atoms: C6_6  and  C7_7 
REMARK    6  A    between atoms: C7_7  and  C8_8 
REMARK    7  A    between atoms: C8_8  and  N1_9 
REMARK       I    between atoms: N1_9  and  C9_10 
REMARK    8  A    between atoms: C9_10  and  C10_12 
REMARK    9  A    between atoms: C10_12  and  C11_13 
REMARK   10  A    between atoms: C23_26  and  O3_27 
ROOT
HETATM    1  C11 UNL     1      23.370   1.763  52.233  1.00  0.00    -0.052 C 
HETATM    2  C12 UNL     1      23.743   1.025  53.277  1.00  0.00     0.001 C 
HETATM    3  C13 UNL     1      25.085   0.624  53.470  1.00  0.00     0.069 C 
HETATM    4  C14 UNL     1      25.405  -0.219  52.287  1.00  0.00     0.031 C 
HETATM    5  C15 UNL     1      25.570  -0.392  54.455  1.00  0.00     0.164 C 
HETATM    6  O2  UNL     1      25.499  -1.251  55.296  1.00  0.00    -0.292 OA
HETATM    7  C16 UNL     1      27.053  -0.132  54.164  1.00  0.00     0.060 C 
HETATM    8  C17 UNL     1      27.216   1.098  53.583  1.00  0.00    -0.028 C 
HETATM    9  C18 UNL     1      27.708   2.295  52.844  1.00  0.00    -0.011 C 
HETATM   10  C19 UNL     1      27.024   2.350  51.688  1.00  0.00     0.020 C 
HETATM   11  C20 UNL     1      26.520   2.750  50.403  1.00  0.00     0.036 C 
HETATM   12  C21 UNL     1      25.005   2.831  50.393  1.00  0.00    -0.025 C 
HETATM   13  C22 UNL     1      23.925   2.467  51.076  1.00  0.00     0.003 C 
HETATM   14  C23 UNL     1      25.879   1.664  54.050  1.00  0.00     0.170 C 
ENDROOT
BRANCH   1  15
HETATM   15  C10 UNL     1      21.873   2.039  52.265  1.00  0.00     0.141 C 
BRANCH  15  16
HETATM   16  C9  UNL     1      21.309   1.685  50.900  1.00  0.00     0.221 C 
HETATM   17  N1  UNL     1      20.657   2.624  50.080  1.00  0.00    -0.361 N 
HETATM   18  H18 UNL     1      20.579   3.576  50.488  1.00  0.00     0.162 HD
HETATM   19  O1  UNL     1      21.412   0.497  50.442  1.00  0.00    -0.273 OA
BRANCH  17  20
HETATM   20  C8  UNL     1      20.251   1.953  48.830  1.00  0.00     0.122 C 
BRANCH  20  21
HETATM   21  C7  UNL     1      20.493   2.785  47.614  1.00  0.00     0.020 C 
BRANCH  21  22
HETATM   22  C6  UNL     1      21.966   2.986  47.326  1.00  0.00     0.002 C 
BRANCH  22  23
HETATM   23  C5  UNL     1      22.319   4.444  47.175  1.00  0.00     0.000 C 
BRANCH  23  24
HETATM   24  C4  UNL     1      22.907   5.024  48.430  1.00  0.00     0.000 C 
BRANCH  24  25
HETATM   25  C3  UNL     1      23.929   6.087  48.210  1.00  0.00    -0.000 C 
BRANCH  25  26
HETATM   26  C2  UNL     1      24.929   6.239  49.317  1.00  0.00    -0.005 C 
HETATM   27  C1  UNL     1      26.353   6.132  48.788  1.00  0.00     0.005 C 
ENDBRANCH  25  26
ENDBRANCH  24  25
ENDBRANCH  23  24
ENDBRANCH  22  23
ENDBRANCH  21  22
ENDBRANCH  20  21
ENDBRANCH  17  20
ENDBRANCH  15  16
ENDBRANCH   1  15
BRANCH  14  28
HETATM   28  O3  UNL     1      25.667   2.971  53.863  1.00  0.00    -0.389 OA
HETATM   29  H33 UNL     1      26.177   3.511  54.482  1.00  0.00     0.210 HD
ENDBRANCH  14  28
TORSDOF 10
ENDMDL
MODEL 9
REMARK VINA RESULT:      -6.4      2.231      6.380
REMARK  10 active torsions:
REMARK  status: ('A' for Active; 'I' for Inactive)
REMARK    1  A    between atoms: C2_2  and  C3_3 
REMARK    2  A    between atoms: C3_3  and  C4_4 
REMARK    3  A    between atoms: C4_4  and  C5_5 
REMARK    4  A    between atoms: C5_5  and  C6_6 
REMARK    5  A    between atoms: C6_6  and  C7_7 
REMARK    6  A    between atoms: C7_7  and  C8_8 
REMARK    7  A    between atoms: C8_8  and  N1_9 
REMARK       I    between atoms: N1_9  and  C9_10 
REMARK    8  A    between atoms: C9_10  and  C10_12 
REMARK    9  A    between atoms: C10_12  and  C11_13 
REMARK   10  A    between atoms: C23_26  and  O3_27 
ROOT
HETATM    1  C11 UNL     1      22.430   3.828  50.994  1.00  0.00    -0.052 C 
HETATM    2  C12 UNL     1      23.722   3.639  51.257  1.00  0.00     0.001 C 
HETATM    3  C13 UNL     1      24.734   4.002  50.339  1.00  0.00     0.069 C 
HETATM    4  C14 UNL     1      24.475   3.167  49.136  1.00  0.00     0.031 C 
HETATM    5  C15 UNL     1      26.179   3.620  50.421  1.00  0.00     0.164 C 
HETATM    6  O2  UNL     1      27.162   3.064  50.839  1.00  0.00    -0.292 OA
HETATM    7  C16 UNL     1      26.593   4.491  49.229  1.00  0.00     0.060 C 
HETATM    8  C17 UNL     1      25.657   5.465  49.002  1.00  0.00    -0.028 C 
HETATM    9  C18 UNL     1      24.791   6.533  48.428  1.00  0.00    -0.011 C 
HETATM   10  C19 UNL     1      23.601   5.970  48.160  1.00  0.00     0.020 C 
HETATM   11  C20 UNL     1      22.239   5.754  47.754  1.00  0.00     0.036 C 
HETATM   12  C21 UNL     1      21.427   5.083  48.844  1.00  0.00    -0.025 C 
HETATM   13  C22 UNL     1      21.544   4.414  49.986  1.00  0.00     0.003 C 
HETATM   14  C23 UNL     1      25.032   5.401  50.392  1.00  0.00     0.170 C 
ENDROOT
BRANCH   1  15
HETATM   15  C10 UNL     1      21.560   3.338  52.143  1.00  0.00     0.141 C 
BRANCH  15  16
HETATM   16  C9  UNL     1      21.731   1.833  52.243  1.00  0.00     0.221 C 
HETATM   17  N1  UNL     1      22.248   1.200  53.388  1.00  0.00    -0.361 N 
HETATM   18  H18 UNL     1      22.516   1.846  54.156  1.00  0.00     0.162 HD
HETATM   19  O1  UNL     1      21.403   1.075  51.268  1.00  0.00    -0.273 OA
BRANCH  17  20
HETATM   20  C8  UNL     1      22.265  -0.256  53.152  1.00  0.00     0.122 C 
BRANCH  20  21
HETATM   21  C7  UNL     1      23.622  -0.858  53.306  1.00  0.00     0.020 C 
BRANCH  21  22
HETATM   22  C6  UNL     1      24.695   0.177  53.575  1.00  0.00     0.002 C 
BRANCH  22  23
HETATM   23  C5  UNL     1      25.427   0.573  52.319  1.00  0.00     0.000 C 
BRANCH  23  24
HETATM   24  C4  UNL     1      26.626  -0.294  52.058  1.00  0.00     0.000 C 
BRANCH  24  25
HETATM   25  C3  UNL     1      27.275  -0.851  53.280  1.00  0.00    -0.000 C 
BRANCH  25  26
HETATM   26  C2  UNL     1      28.724  -0.499  53.439  1.00  0.00    -0.005 C 
HETATM   27  C1  UNL     1      28.887   0.852  54.123  1.00  0.00     0.005 C 
ENDBRANCH  25  26
ENDBRANCH  24  25
ENDBRANCH  23  24
ENDBRANCH  22  23
ENDBRANCH  21  22
ENDBRANCH  20  21
ENDBRANCH  17  20
ENDBRANCH  15  16
ENDBRANCH   1  15
BRANCH  14  28
HETATM   28  O3  UNL     1      24.147   6.351  50.712  1.00  0.00    -0.389 OA
HETATM   29  H33 UNL     1      23.241   6.080  50.513  1.00  0.00     0.210 HD
ENDBRANCH  14  28
TORSDOF 10
ENDMDL
