MODEL 1
REMARK VINA RESULT:     -10.1      0.000      0.000
REMARK  3 active torsions:
REMARK  status: ('A' for Active; 'I' for Inactive)
REMARK    1  A    between atoms: C6_6  and  O1_7 
REMARK    2  A    between atoms: C7_8  and  C9_10 
REMARK    3  A    between atoms: C15_18  and  C16_19 
ROOT
HETATM    1  C9  UNL     1      21.528   0.319  52.853  1.00  0.00     0.004 A 
HETATM    2  C10 UNL     1      21.230  -0.506  53.873  1.00  0.00     0.086 A 
HETATM    3  C11 UNL     1      22.446  -1.051  54.457  1.00  0.00     0.249 A 
HETATM    4  O2  UNL     1      22.379  -1.860  55.444  1.00  0.00    -0.268 OA
HETATM    5  N1  UNL     1      23.543  -0.488  53.707  1.00  0.00    -0.305 N 
HETATM    6  C12 UNL     1      22.994   0.361  52.711  1.00  0.00     0.047 A 
HETATM    7  C13 UNL     1      23.920   0.926  51.966  1.00  0.00     0.031 A 
HETATM    8  C14 UNL     1      25.343   0.684  52.170  1.00  0.00     0.012 A 
HETATM    9  C15 UNL     1      25.801  -0.119  53.115  1.00  0.00    -0.025 A 
HETATM   10  C22 UNL     1      24.909  -0.826  54.057  1.00  0.00     0.123 A 
HETATM   11  C23 UNL     1      25.206  -0.464  55.498  1.00  0.00     0.038 C 
ENDROOT
BRANCH   1  12
HETATM   12  C7  UNL     1      20.624   1.098  51.964  1.00  0.00     0.082 C 
HETATM   13  C6  UNL     1      20.381   2.447  52.658  1.00  0.00     0.151 C 
HETATM   14  C5  UNL     1      21.612   3.287  52.623  1.00  0.00     0.038 C 
HETATM   15  C4  UNL     1      21.349   4.373  51.593  1.00  0.00     0.032 C 
HETATM   16  C3  UNL     1      21.202   3.772  50.256  1.00  0.00    -0.003 C 
HETATM   17  C2  UNL     1      21.146   2.498  49.833  1.00  0.00    -0.002 C 
HETATM   18  C1  UNL     1      20.988   2.209  48.362  1.00  0.00     0.067 C 
HETATM   19  N2  UNL     1      21.223   1.314  50.658  1.00  0.00    -0.378 N 
HETATM   20  H26 UNL     1      21.790   0.558  50.211  1.00  0.00     0.160 HD
HETATM   21  C8  UNL     1      19.259   0.457  51.837  1.00  0.00     0.046 C 
BRANCH  13  22
HETATM   22  O1  UNL     1      19.266   3.079  52.124  1.00  0.00    -0.393 OA
HETATM   23  H10 UNL     1      18.562   2.496  51.804  1.00  0.00     0.210 HD
ENDBRANCH  13  22
ENDBRANCH   1  12
BRANCH   9  24
HETATM   24  C16 UNL     1      27.235  -0.304  53.245  1.00  0.00    -0.028 A 
HETATM   25  C17 UNL     1      27.896  -1.500  53.110  1.00  0.00     0.012 A 
HETATM   26  C18 UNL     1      29.253  -1.698  53.240  1.00  0.00     0.001 A 
HETATM   27  C19 UNL     1      30.040  -0.608  53.531  1.00  0.00     0.000 A 
HETATM   28  C20 UNL     1      29.447   0.624  53.681  1.00  0.00     0.001 A 
HETATM   29  C21 UNL     1      28.081   0.751  53.537  1.00  0.00     0.012 A 
ENDBRANCH   9  24
TORSDOF 3
ENDMDL
MODEL 2
REMARK VINA RESULT:      -9.9      1.368      2.118
REMARK  3 active torsions:
REMARK  status: ('A' for Active; 'I' for Inactive)
REMARK    1  A    between atoms: C6_6  and  O1_7 
REMARK    2  A    between atoms: C7_8  and  C9_10 
REMARK    3  A    between atoms: C15_18  and  C16_19 
ROOT
HETATM    1  C9  UNL     1      21.939   1.407  52.687  1.00  0.00     0.004 A 
HETATM    2  C10 UNL     1      21.375   0.548  53.555  1.00  0.00     0.086 A 
HETATM    3  C11 UNL     1      22.371  -0.379  54.072  1.00  0.00     0.249 A 
HETATM    4  O2  UNL     1      22.035  -1.279  54.915  1.00  0.00    -0.268 OA
HETATM    5  N1  UNL     1      23.620  -0.021  53.445  1.00  0.00    -0.305 N 
HETATM    6  C12 UNL     1      23.372   1.081  52.585  1.00  0.00     0.047 A 
HETATM    7  C13 UNL     1      24.458   1.484  51.960  1.00  0.00     0.031 A 
HETATM    8  C14 UNL     1      25.754   0.847  52.154  1.00  0.00     0.012 A 
HETATM    9  C15 UNL     1      25.930  -0.179  52.968  1.00  0.00    -0.025 A 
HETATM   10  C22 UNL     1      24.829  -0.757  53.765  1.00  0.00     0.123 A 
HETATM   11  C23 UNL     1      25.118  -0.704  55.252  1.00  0.00     0.038 C 
ENDROOT
BRANCH   1  12
HETATM   12  C7  UNL     1      21.325   2.520  51.914  1.00  0.00     0.082 C 
HETATM   13  C6  UNL     1      21.702   2.292  50.442  1.00  0.00     0.151 C 
HETATM   14  C5  UNL     1      20.969   1.119  49.886  1.00  0.00     0.038 C 
HETATM   15  C4  UNL     1      19.898   1.689  48.970  1.00  0.00     0.032 C 
HETATM   16  C3  UNL     1      18.927   2.467  49.758  1.00  0.00    -0.003 C 
HETATM   17  C2  UNL     1      18.891   2.837  51.050  1.00  0.00    -0.002 C 
HETATM   18  C1  UNL     1      17.728   3.650  51.559  1.00  0.00     0.067 C 
HETATM   19  N2  UNL     1      19.880   2.532  52.059  1.00  0.00    -0.378 N 
HETATM   20  H26 UNL     1      19.444   2.300  52.981  1.00  0.00     0.160 HD
HETATM   21  C8  UNL     1      21.919   3.863  52.281  1.00  0.00     0.046 C 
BRANCH  13  22
HETATM   22  O1  UNL     1      21.522   3.455  49.705  1.00  0.00    -0.393 OA
HETATM   23  H10 UNL     1      20.707   3.505  49.183  1.00  0.00     0.210 HD
ENDBRANCH  13  22
ENDBRANCH   1  12
BRANCH   9  24
HETATM   24  C16 UNL     1      27.256  -0.754  53.098  1.00  0.00    -0.028 A 
HETATM   25  C17 UNL     1      27.573  -2.073  52.887  1.00  0.00     0.012 A 
HETATM   26  C18 UNL     1      28.823  -2.639  53.015  1.00  0.00     0.001 A 
HETATM   27  C19 UNL     1      29.866  -1.824  53.388  1.00  0.00     0.000 A 
HETATM   28  C20 UNL     1      29.624  -0.490  53.616  1.00  0.00     0.001 A 
HETATM   29  C21 UNL     1      28.347   0.012  53.470  1.00  0.00     0.012 A 
ENDBRANCH   9  24
TORSDOF 3
ENDMDL
MODEL 3
REMARK VINA RESULT:      -9.4      1.962      2.948
REMARK  3 active torsions:
REMARK  status: ('A' for Active; 'I' for Inactive)
REMARK    1  A    between atoms: C6_6  and  O1_7 
REMARK    2  A    between atoms: C7_8  and  C9_10 
REMARK    3  A    between atoms: C15_18  and  C16_19 
ROOT
HETATM    1  C9  UNL     1      22.931   2.579  51.524  1.00  0.00     0.004 A 
HETATM    2  C10 UNL     1      22.032   1.790  52.138  1.00  0.00     0.086 A 
HETATM    3  C11 UNL     1      22.692   0.646  52.748  1.00  0.00     0.249 A 
HETATM    4  O2  UNL     1      22.009  -0.228  53.383  1.00  0.00    -0.268 OA
HETATM    5  N1  UNL     1      24.099   0.789  52.459  1.00  0.00    -0.305 N 
HETATM    6  C12 UNL     1      24.265   1.979  51.703  1.00  0.00     0.047 A 
HETATM    7  C13 UNL     1      25.523   2.200  51.386  1.00  0.00     0.031 A 
HETATM    8  C14 UNL     1      26.600   1.302  51.784  1.00  0.00     0.012 A 
HETATM    9  C15 UNL     1      26.389   0.204  52.490  1.00  0.00    -0.025 A 
HETATM   10  C22 UNL     1      25.043  -0.196  52.949  1.00  0.00     0.123 A 
HETATM   11  C23 UNL     1      24.972  -0.313  54.459  1.00  0.00     0.038 C 
ENDROOT
BRANCH   1  12
HETATM   12  C7  UNL     1      22.730   3.847  50.773  1.00  0.00     0.082 C 
HETATM   13  C6  UNL     1      23.440   3.674  49.421  1.00  0.00     0.151 C 
HETATM   14  C5  UNL     1      22.701   2.709  48.558  1.00  0.00     0.038 C 
HETATM   15  C4  UNL     1      22.016   3.543  47.488  1.00  0.00     0.032 C 
HETATM   16  C3  UNL     1      21.009   4.423  48.107  1.00  0.00    -0.003 C 
HETATM   17  C2  UNL     1      20.693   4.686  49.387  1.00  0.00    -0.002 C 
HETATM   18  C1  UNL     1      19.584   5.658  49.695  1.00  0.00     0.067 C 
HETATM   19  N2  UNL     1      21.319   4.119  50.559  1.00  0.00    -0.378 N 
HETATM   20  H26 UNL     1      20.625   3.899  51.309  1.00  0.00     0.160 HD
HETATM   21  C8  UNL     1      23.415   5.020  51.441  1.00  0.00     0.046 C 
BRANCH  13  22
HETATM   22  O1  UNL     1      23.651   4.906  48.816  1.00  0.00    -0.393 OA
HETATM   23  H10 UNL     1      23.162   5.653  49.194  1.00  0.00     0.210 HD
ENDBRANCH  13  22
ENDBRANCH   1  12
BRANCH   9  24
HETATM   24  C16 UNL     1      27.520  -0.634  52.839  1.00  0.00    -0.028 A 
HETATM   25  C17 UNL     1      27.579  -1.996  52.677  1.00  0.00     0.012 A 
HETATM   26  C18 UNL     1      28.639  -2.810  53.012  1.00  0.00     0.001 A 
HETATM   27  C19 UNL     1      29.755  -2.223  53.563  1.00  0.00     0.000 A 
HETATM   28  C20 UNL     1      29.768  -0.862  53.756  1.00  0.00     0.001 A 
HETATM   29  C21 UNL     1      28.672  -0.106  53.397  1.00  0.00     0.012 A 
ENDBRANCH   9  24
TORSDOF 3
ENDMDL
MODEL 4
REMARK VINA RESULT:      -9.4      4.184      6.378
REMARK  3 active torsions:
REMARK  status: ('A' for Active; 'I' for Inactive)
REMARK    1  A    between atoms: C6_6  and  O1_7 
REMARK    2  A    between atoms: C7_8  and  C9_10 
REMARK    3  A    between atoms: C15_18  and  C16_19 
ROOT
HETATM    1  C9  UNL     1      23.766   4.702  49.373  1.00  0.00     0.004 A 
HETATM    2  C10 UNL     1      23.255   4.010  48.339  1.00  0.00     0.086 A 
HETATM    3  C11 UNL     1      22.806   2.697  48.779  1.00  0.00     0.249 A 
HETATM    4  O2  UNL     1      22.287   1.882  47.944  1.00  0.00    -0.268 OA
HETATM    5  N1  UNL     1      23.084   2.628  50.194  1.00  0.00    -0.305 N 
HETATM    6  C12 UNL     1      23.678   3.859  50.578  1.00  0.00     0.047 A 
HETATM    7  C13 UNL     1      23.973   3.895  51.860  1.00  0.00     0.031 A 
HETATM    8  C14 UNL     1      23.705   2.777  52.756  1.00  0.00     0.012 A 
HETATM    9  C15 UNL     1      23.149   1.651  52.345  1.00  0.00    -0.025 A 
HETATM   10  C22 UNL     1      22.736   1.436  50.943  1.00  0.00     0.123 A 
HETATM   11  C23 UNL     1      21.254   1.137  50.829  1.00  0.00     0.038 C 
ENDROOT
BRANCH   1  12
HETATM   12  C7  UNL     1      24.342   6.073  49.409  1.00  0.00     0.082 C 
HETATM   13  C6  UNL     1      25.777   5.933  49.941  1.00  0.00     0.151 C 
HETATM   14  C5  UNL     1      26.653   5.281  48.926  1.00  0.00     0.038 C 
HETATM   15  C4  UNL     1      27.537   6.382  48.365  1.00  0.00     0.032 C 
HETATM   16  C3  UNL     1      26.713   7.369  47.647  1.00  0.00    -0.003 C 
HETATM   17  C2  UNL     1      25.383   7.519  47.512  1.00  0.00    -0.002 C 
HETATM   18  C1  UNL     1      24.843   8.662  46.691  1.00  0.00     0.067 C 
HETATM   19  N2  UNL     1      24.361   6.676  48.087  1.00  0.00    -0.378 N 
HETATM   20  H26 UNL     1      23.566   6.514  47.427  1.00  0.00     0.160 HD
HETATM   21  C8  UNL     1      23.629   6.965  50.403  1.00  0.00     0.046 C 
BRANCH  13  22
HETATM   22  O1  UNL     1      26.259   7.159  50.380  1.00  0.00    -0.393 OA
HETATM   23  H10 UNL     1      27.016   7.124  50.985  1.00  0.00     0.210 HD
ENDBRANCH  13  22
ENDBRANCH   1  12
BRANCH   9  24
HETATM   24  C16 UNL     1      22.921   0.588  53.307  1.00  0.00    -0.028 A 
HETATM   25  C17 UNL     1      21.707   0.265  53.860  1.00  0.00     0.012 A 
HETATM   26  C18 UNL     1      21.472  -0.732  54.781  1.00  0.00     0.001 A 
HETATM   27  C19 UNL     1      22.542  -1.488  55.201  1.00  0.00     0.000 A 
HETATM   28  C20 UNL     1      23.791  -1.222  54.690  1.00  0.00     0.001 A 
HETATM   29  C21 UNL     1      23.955  -0.208  53.769  1.00  0.00     0.012 A 
ENDBRANCH   9  24
TORSDOF 3
ENDMDL
MODEL 5
REMARK VINA RESULT:      -9.0      2.498      3.499
REMARK  3 active torsions:
REMARK  status: ('A' for Active; 'I' for Inactive)
REMARK    1  A    between atoms: C6_6  and  O1_7 
REMARK    2  A    between atoms: C7_8  and  C9_10 
REMARK    3  A    between atoms: C15_18  and  C16_19 
ROOT
HETATM    1  C9  UNL     1      22.868   2.940  50.255  1.00  0.00     0.004 A 
HETATM    2  C10 UNL     1      21.967   2.078  50.759  1.00  0.00     0.086 A 
HETATM    3  C11 UNL     1      22.627   1.074  51.579  1.00  0.00     0.249 A 
HETATM    4  O2  UNL     1      21.942   0.159  52.151  1.00  0.00    -0.268 OA
HETATM    5  N1  UNL     1      24.036   1.386  51.545  1.00  0.00    -0.305 N 
HETATM    6  C12 UNL     1      24.203   2.537  50.731  1.00  0.00     0.047 A 
HETATM    7  C13 UNL     1      25.463   2.905  50.635  1.00  0.00     0.031 A 
HETATM    8  C14 UNL     1      26.541   2.187  51.305  1.00  0.00     0.012 A 
HETATM    9  C15 UNL     1      26.329   1.118  52.052  1.00  0.00    -0.025 A 
HETATM   10  C22 UNL     1      24.977   0.570  52.287  1.00  0.00     0.123 A 
HETATM   11  C23 UNL     1      24.627   0.541  53.762  1.00  0.00     0.038 C 
ENDROOT
BRANCH   1  12
HETATM   12  C7  UNL     1      22.667   4.119  49.370  1.00  0.00     0.082 C 
HETATM   13  C6  UNL     1      21.440   4.869  49.910  1.00  0.00     0.151 C 
HETATM   14  C5  UNL     1      21.756   5.535  51.206  1.00  0.00     0.038 C 
HETATM   15  C4  UNL     1      21.864   7.019  50.899  1.00  0.00     0.032 C 
HETATM   16  C3  UNL     1      23.007   7.263  50.002  1.00  0.00    -0.003 C 
HETATM   17  C2  UNL     1      23.846   6.439  49.352  1.00  0.00    -0.002 C 
HETATM   18  C1  UNL     1      24.939   7.018  48.490  1.00  0.00     0.067 C 
HETATM   19  N2  UNL     1      23.826   4.994  49.382  1.00  0.00    -0.378 N 
HETATM   20  H26 UNL     1      24.789   4.587  49.416  1.00  0.00     0.160 HD
HETATM   21  C8  UNL     1      22.305   3.715  47.957  1.00  0.00     0.046 C 
BRANCH  13  22
HETATM   22  O1  UNL     1      20.936   5.739  48.952  1.00  0.00    -0.393 OA
HETATM   23  H10 UNL     1      21.229   5.582  48.041  1.00  0.00     0.210 HD
ENDBRANCH  13  22
ENDBRANCH   1  12
BRANCH   9  24
HETATM   24  C16 UNL     1      27.462   0.463  52.679  1.00  0.00    -0.028 A 
HETATM   25  C17 UNL     1      28.483   1.103  53.338  1.00  0.00     0.012 A 
HETATM   26  C18 UNL     1      29.572   0.501  53.930  1.00  0.00     0.001 A 
HETATM   27  C19 UNL     1      29.665  -0.870  53.867  1.00  0.00     0.000 A 
HETATM   28  C20 UNL     1      28.679  -1.579  53.222  1.00  0.00     0.001 A 
HETATM   29  C21 UNL     1      27.615  -0.912  52.651  1.00  0.00     0.012 A 
ENDBRANCH   9  24
TORSDOF 3
ENDMDL
MODEL 6
REMARK VINA RESULT:      -8.8      2.154      7.342
REMARK  3 active torsions:
REMARK  status: ('A' for Active; 'I' for Inactive)
REMARK    1  A    between atoms: C6_6  and  O1_7 
REMARK    2  A    between atoms: C7_8  and  C9_10 
REMARK    3  A    between atoms: C15_18  and  C16_19 
ROOT
HETATM    1  C9  UNL     1      25.175  -0.334  53.506  1.00  0.00     0.004 A 
HETATM    2  C10 UNL     1      24.848  -0.921  54.671  1.00  0.00     0.086 A 
HETATM    3  C11 UNL     1      23.407  -0.881  54.873  1.00  0.00     0.249 A 
HETATM    4  O2  UNL     1      22.892  -1.390  55.926  1.00  0.00    -0.268 OA
HETATM    5  N1  UNL     1      22.856  -0.211  53.720  1.00  0.00    -0.305 N 
HETATM    6  C12 UNL     1      23.934   0.135  52.864  1.00  0.00     0.047 A 
HETATM    7  C13 UNL     1      23.532   0.757  51.777  1.00  0.00     0.031 A 
HETATM    8  C14 UNL     1      22.127   1.041  51.512  1.00  0.00     0.012 A 
HETATM    9  C15 UNL     1      21.160   0.697  52.345  1.00  0.00    -0.025 A 
HETATM   10  C22 UNL     1      21.422  -0.023  53.609  1.00  0.00     0.123 A 
HETATM   11  C23 UNL     1      20.694  -1.352  53.664  1.00  0.00     0.038 C 
ENDROOT
BRANCH   1  12
HETATM   12  C7  UNL     1      26.511  -0.137  52.881  1.00  0.00     0.082 C 
HETATM   13  C6  UNL     1      26.681   1.376  52.676  1.00  0.00     0.151 C 
HETATM   14  C5  UNL     1      26.873   2.066  53.984  1.00  0.00     0.038 C 
HETATM   15  C4  UNL     1      28.342   2.448  54.045  1.00  0.00     0.032 C 
HETATM   16  C3  UNL     1      29.175   1.233  54.076  1.00  0.00    -0.003 C 
HETATM   17  C2  UNL     1      28.883  -0.073  53.947  1.00  0.00    -0.002 C 
HETATM   18  C1  UNL     1      29.990  -1.094  54.029  1.00  0.00     0.067 C 
HETATM   19  N2  UNL     1      27.574  -0.644  53.730  1.00  0.00    -0.378 N 
HETATM   20  H26 UNL     1      27.432  -1.525  54.276  1.00  0.00     0.160 HD
HETATM   21  C8  UNL     1      26.586  -0.743  51.495  1.00  0.00     0.046 C 
BRANCH  13  22
HETATM   22  O1  UNL     1      27.693   1.637  51.762  1.00  0.00    -0.393 OA
HETATM   23  H10 UNL     1      28.263   0.887  51.536  1.00  0.00     0.210 HD
ENDBRANCH  13  22
ENDBRANCH   1  12
BRANCH   9  24
HETATM   24  C16 UNL     1      19.789   1.023  52.003  1.00  0.00    -0.028 A 
HETATM   25  C17 UNL     1      19.243   2.283  52.029  1.00  0.00     0.012 A 
HETATM   26  C18 UNL     1      17.942   2.612  51.718  1.00  0.00     0.001 A 
HETATM   27  C19 UNL     1      17.091   1.597  51.343  1.00  0.00     0.000 A 
HETATM   28  C20 UNL     1      17.568   0.308  51.294  1.00  0.00     0.001 A 
HETATM   29  C21 UNL     1      18.884   0.050  51.619  1.00  0.00     0.012 A 
ENDBRANCH   9  24
TORSDOF 3
ENDMDL
MODEL 7
REMARK VINA RESULT:      -8.5      5.577      7.246
REMARK  3 active torsions:
REMARK  status: ('A' for Active; 'I' for Inactive)
REMARK    1  A    between atoms: C6_6  and  O1_7 
REMARK    2  A    between atoms: C7_8  and  C9_10 
REMARK    3  A    between atoms: C15_18  and  C16_19 
ROOT
HETATM    1  C9  UNL     1      24.946   6.690  49.214  1.00  0.00     0.004 A 
HETATM    2  C10 UNL     1      23.712   6.946  49.683  1.00  0.00     0.086 A 
HETATM    3  C11 UNL     1      23.251   5.850  50.522  1.00  0.00     0.249 A 
HETATM    4  O2  UNL     1      22.096   5.900  51.068  1.00  0.00    -0.268 OA
HETATM    5  N1  UNL     1      24.315   4.876  50.537  1.00  0.00    -0.305 N 
HETATM    6  C12 UNL     1      25.372   5.378  49.733  1.00  0.00     0.047 A 
HETATM    7  C13 UNL     1      26.397   4.556  49.681  1.00  0.00     0.031 A 
HETATM    8  C14 UNL     1      26.413   3.279  50.384  1.00  0.00     0.012 A 
HETATM    9  C15 UNL     1      25.400   2.858  51.121  1.00  0.00    -0.025 A 
HETATM   10  C22 UNL     1      24.171   3.656  51.308  1.00  0.00     0.123 A 
HETATM   11  C23 UNL     1      23.914   3.965  52.770  1.00  0.00     0.038 C 
ENDROOT
BRANCH   1  12
HETATM   12  C7  UNL     1      25.816   7.508  48.326  1.00  0.00     0.082 C 
HETATM   13  C6  UNL     1      25.938   8.891  48.985  1.00  0.00     0.151 C 
HETATM   14  C5  UNL     1      26.776   8.815  50.215  1.00  0.00     0.038 C 
HETATM   15  C4  UNL     1      28.106   9.457  49.857  1.00  0.00     0.032 C 
HETATM   16  C3  UNL     1      28.787   8.656  48.825  1.00  0.00    -0.003 C 
HETATM   17  C2  UNL     1      28.407   7.588  48.104  1.00  0.00    -0.002 C 
HETATM   18  C1  UNL     1      29.361   6.987  47.104  1.00  0.00     0.067 C 
HETATM   19  N2  UNL     1      27.132   6.912  48.176  1.00  0.00    -0.378 N 
HETATM   20  H26 UNL     1      27.231   5.874  48.109  1.00  0.00     0.160 HD
HETATM   21  C8  UNL     1      25.176   7.759  46.977  1.00  0.00     0.046 C 
BRANCH  13  22
HETATM   22  O1  UNL     1      26.387   9.833  48.069  1.00  0.00    -0.393 OA
HETATM   23  H10 UNL     1      26.064   9.729  47.161  1.00  0.00     0.210 HD
ENDBRANCH  13  22
ENDBRANCH   1  12
BRANCH   9  24
HETATM   24  C16 UNL     1      25.501   1.571  51.784  1.00  0.00    -0.028 A 
HETATM   25  C17 UNL     1      24.473   0.928  52.428  1.00  0.00     0.012 A 
HETATM   26  C18 UNL     1      24.550  -0.287  53.072  1.00  0.00     0.001 A 
HETATM   27  C19 UNL     1      25.764  -0.936  53.081  1.00  0.00     0.000 A 
HETATM   28  C20 UNL     1      26.840  -0.352  52.456  1.00  0.00     0.001 A 
HETATM   29  C21 UNL     1      26.691   0.868  51.830  1.00  0.00     0.012 A 
ENDBRANCH   9  24
TORSDOF 3
ENDMDL
MODEL 8
REMARK VINA RESULT:      -8.5      2.527      8.001
REMARK  3 active torsions:
REMARK  status: ('A' for Active; 'I' for Inactive)
REMARK    1  A    between atoms: C6_6  and  O1_7 
REMARK    2  A    between atoms: C7_8  and  C9_10 
REMARK    3  A    between atoms: C15_18  and  C16_19 
ROOT
HETATM    1  C9  UNL     1      25.936   1.624  52.184  1.00  0.00     0.004 A 
HETATM    2  C10 UNL     1      26.487   2.314  51.170  1.00  0.00     0.086 A 
HETATM    3  C11 UNL     1      25.451   2.927  50.352  1.00  0.00     0.249 A 
HETATM    4  O2  UNL     1      25.770   3.630  49.333  1.00  0.00    -0.268 OA
HETATM    5  N1  UNL     1      24.191   2.558  50.949  1.00  0.00    -0.305 N 
HETATM    6  C12 UNL     1      24.471   1.751  52.084  1.00  0.00     0.047 A 
HETATM    7  C13 UNL     1      23.378   1.358  52.702  1.00  0.00     0.031 A 
HETATM    8  C14 UNL     1      22.045   1.730  52.246  1.00  0.00     0.012 A 
HETATM    9  C15 UNL     1      21.840   2.484  51.181  1.00  0.00    -0.025 A 
HETATM   10  C22 UNL     1      22.948   3.031  50.371  1.00  0.00     0.123 A 
HETATM   11  C23 UNL     1      22.916   4.545  50.317  1.00  0.00     0.038 C 
ENDROOT
BRANCH   1  12
HETATM   12  C7  UNL     1      26.588   0.839  53.267  1.00  0.00     0.082 C 
HETATM   13  C6  UNL     1      25.909  -0.539  53.280  1.00  0.00     0.151 C 
HETATM   14  C5  UNL     1      26.299  -1.330  52.079  1.00  0.00     0.038 C 
HETATM   15  C4  UNL     1      27.266  -2.393  52.572  1.00  0.00     0.032 C 
HETATM   16  C3  UNL     1      28.493  -1.757  53.083  1.00  0.00    -0.003 C 
HETATM   17  C2  UNL     1      28.835  -0.473  53.285  1.00  0.00    -0.002 C 
HETATM   18  C1  UNL     1      30.200  -0.145  53.833  1.00  0.00     0.067 C 
HETATM   19  N2  UNL     1      28.012   0.686  53.028  1.00  0.00    -0.378 N 
HETATM   20  H26 UNL     1      28.562   1.477  52.620  1.00  0.00     0.160 HD
HETATM   21  C8  UNL     1      26.327   1.431  54.636  1.00  0.00     0.046 C 
BRANCH  13  22
HETATM   22  O1  UNL     1      26.157  -1.197  54.478  1.00  0.00    -0.393 OA
HETATM   23  H10 UNL     1      25.535  -1.014  55.199  1.00  0.00     0.210 HD
ENDBRANCH  13  22
ENDBRANCH   1  12
BRANCH   9  24
HETATM   24  C16 UNL     1      20.477   2.802  50.797  1.00  0.00    -0.028 A 
HETATM   25  C17 UNL     1      19.591   3.532  51.549  1.00  0.00     0.012 A 
HETATM   26  C18 UNL     1      18.291   3.836  51.207  1.00  0.00     0.001 A 
HETATM   27  C19 UNL     1      17.815   3.373  50.002  1.00  0.00     0.000 A 
HETATM   28  C20 UNL     1      18.647   2.633  49.195  1.00  0.00     0.001 A 
HETATM   29  C21 UNL     1      19.939   2.367  49.599  1.00  0.00     0.012 A 
ENDBRANCH   9  24
TORSDOF 3
ENDMDL
MODEL 9
REMARK VINA RESULT:      -8.5      7.396      9.793
REMARK  3 active torsions:
REMARK  status: ('A' for Active; 'I' for Inactive)
REMARK    1  A    between atoms: C6_6  and  O1_7 
REMARK    2  A    between atoms: C7_8  and  C9_10 
REMARK    3  A    between atoms: C15_18  and  C16_19 
ROOT
HETATM    1  C9  UNL     1      27.644   7.602  47.580  1.00  0.00     0.004 A 
HETATM    2  C10 UNL     1      26.601   8.452  47.573  1.00  0.00     0.086 A 
HETATM    3  C11 UNL     1      25.444   7.842  48.211  1.00  0.00     0.249 A 
HETATM    4  O2  UNL     1      24.346   8.489  48.306  1.00  0.00    -0.268 OA
HETATM    5  N1  UNL     1      25.858   6.522  48.624  1.00  0.00    -0.305 N 
HETATM    6  C12 UNL     1      27.215   6.356  48.242  1.00  0.00     0.047 A 
HETATM    7  C13 UNL     1      27.690   5.175  48.575  1.00  0.00     0.031 A 
HETATM    8  C14 UNL     1      26.883   4.173  49.261  1.00  0.00     0.012 A 
HETATM    9  C15 UNL     1      25.621   4.380  49.593  1.00  0.00    -0.025 A 
HETATM   10  C22 UNL     1      24.925   5.653  49.314  1.00  0.00     0.123 A 
HETATM   11  C23 UNL     1      24.410   6.306  50.581  1.00  0.00     0.038 C 
ENDROOT
BRANCH   1  12
HETATM   12  C7  UNL     1      29.021   7.780  47.048  1.00  0.00     0.082 C 
HETATM   13  C6  UNL     1      29.603   9.022  47.742  1.00  0.00     0.151 C 
HETATM   14  C5  UNL     1      29.885   8.739  49.178  1.00  0.00     0.038 C 
HETATM   15  C4  UNL     1      31.396   8.623  49.293  1.00  0.00     0.032 C 
HETATM   16  C3  UNL     1      31.870   7.458  48.526  1.00  0.00    -0.003 C 
HETATM   17  C2  UNL     1      31.249   6.602  47.695  1.00  0.00    -0.002 C 
HETATM   18  C1  UNL     1      32.035   5.488  47.053  1.00  0.00     0.067 C 
HETATM   19  N2  UNL     1      29.852   6.622  47.328  1.00  0.00    -0.378 N 
HETATM   20  H26 UNL     1      29.445   5.661  47.273  1.00  0.00     0.160 HD
HETATM   21  C8  UNL     1      29.023   8.106  45.570  1.00  0.00     0.046 C 
BRANCH  13  22
HETATM   22  O1  UNL     1      30.705   9.501  47.047  1.00  0.00    -0.393 OA
HETATM   23  H10 UNL     1      31.093   8.895  46.398  1.00  0.00     0.210 HD
ENDBRANCH  13  22
ENDBRANCH   1  12
BRANCH   9  24
HETATM   24  C16 UNL     1      24.892   3.324  50.272  1.00  0.00    -0.028 A 
HETATM   25  C17 UNL     1      23.654   2.854  49.907  1.00  0.00     0.012 A 
HETATM   26  C18 UNL     1      22.942   1.861  50.543  1.00  0.00     0.001 A 
HETATM   27  C19 UNL     1      23.505   1.271  51.651  1.00  0.00     0.000 A 
HETATM   28  C20 UNL     1      24.744   1.691  52.076  1.00  0.00     0.001 A 
HETATM   29  C21 UNL     1      25.402   2.691  51.391  1.00  0.00     0.012 A 
ENDBRANCH   9  24
TORSDOF 3
ENDMDL
