MODEL 1
REMARK VINA RESULT:      -7.7      0.000      0.000
REMARK  3 active torsions:
REMARK  status: ('A' for Active; 'I' for Inactive)
REMARK    1  A    between atoms: C11_14  and  O4_15 
REMARK    2  A    between atoms: O4_15  and  O5_16 
REMARK    3  A    between atoms: O5_16  and  O6_17 
ROOT
HETATM    1  O1  UNL     1      23.452   3.910  53.018  1.00  0.00    -0.259 OA
HETATM    2  C1  UNL     1      24.493   3.263  52.783  1.00  0.00     0.300 A 
HETATM    3  O2  UNL     1      25.293   2.665  53.673  1.00  0.00    -0.251 OA
HETATM    4  C2  UNL     1      26.368   2.023  53.204  1.00  0.00     0.188 A 
HETATM    5  C3  UNL     1      26.848   1.859  51.887  1.00  0.00     0.065 A 
HETATM    6  C4  UNL     1      26.019   2.473  50.979  1.00  0.00     0.022 A 
HETATM    7  C5  UNL     1      24.930   3.105  51.500  1.00  0.00     0.041 A 
HETATM    8  C6  UNL     1      24.047   3.478  50.377  1.00  0.00     0.042 C 
HETATM    9  C7  UNL     1      23.274   2.346  50.425  1.00  0.00     0.142 C 
HETATM   10  O3  UNL     1      22.698   1.051  50.779  1.00  0.00    -0.335 OA
HETATM   11  C8  UNL     1      22.313   1.009  52.154  1.00  0.00     0.141 C 
HETATM   12  C9  UNL     1      23.064   0.515  53.094  1.00  0.00     0.027 C 
HETATM   13  C10 UNL     1      24.321  -0.011  52.595  1.00  0.00     0.037 C 
HETATM   14  C11 UNL     1      25.455  -0.536  53.095  1.00  0.00     0.089 C 
HETATM   15  C12 UNL     1      25.622  -0.595  54.594  1.00  0.00     0.094 C 
HETATM   16  C13 UNL     1      26.839   0.290  54.915  1.00  0.00     0.184 C 
HETATM   17  O7  UNL     1      26.653   1.662  54.541  1.00  0.00    -0.330 OA
ENDROOT
BRANCH  14  18
HETATM   18  O4  UNL     1      26.683  -1.079  52.654  1.00  0.00    -0.172 OA
BRANCH  18  19
HETATM   19  O5  UNL     1      26.763  -2.393  52.358  1.00  0.00    -0.064 OA
BRANCH  19  20
HETATM   20  O6  UNL     1      27.788  -2.948  52.942  1.00  0.00    -0.220 OA
HETATM   21  H8  UNL     1      27.819  -3.935  52.865  1.00  0.00     0.256 HD
ENDBRANCH  19  20
ENDBRANCH  18  19
ENDBRANCH  14  18
TORSDOF 3
ENDMDL
MODEL 2
REMARK VINA RESULT:      -7.2      2.025      3.763
REMARK  3 active torsions:
REMARK  status: ('A' for Active; 'I' for Inactive)
REMARK    1  A    between atoms: C11_14  and  O4_15 
REMARK    2  A    between atoms: O4_15  and  O5_16 
REMARK    3  A    between atoms: O5_16  and  O6_17 
ROOT
HETATM    1  O1  UNL     1      23.010   2.826  49.481  1.00  0.00    -0.259 OA
HETATM    2  C1  UNL     1      23.430   2.700  50.650  1.00  0.00     0.300 A 
HETATM    3  O2  UNL     1      23.880   1.584  51.233  1.00  0.00    -0.251 OA
HETATM    4  C2  UNL     1      24.283   1.670  52.506  1.00  0.00     0.188 A 
HETATM    5  C3  UNL     1      24.314   2.765  53.396  1.00  0.00     0.065 A 
HETATM    6  C4  UNL     1      23.854   3.908  52.788  1.00  0.00     0.022 A 
HETATM    7  C5  UNL     1      23.465   3.777  51.488  1.00  0.00     0.041 A 
HETATM    8  C6  UNL     1      23.247   5.132  50.944  1.00  0.00     0.042 C 
HETATM    9  C7  UNL     1      24.511   5.284  50.434  1.00  0.00     0.142 C 
HETATM   10  O3  UNL     1      25.903   5.077  50.044  1.00  0.00    -0.335 OA
HETATM   11  C8  UNL     1      26.057   3.890  49.265  1.00  0.00     0.141 C 
HETATM   12  C9  UNL     1      26.415   2.745  49.767  1.00  0.00     0.027 C 
HETATM   13  C10 UNL     1      26.667   2.807  51.194  1.00  0.00     0.037 C 
HETATM   14  C11 UNL     1      26.968   1.959  52.196  1.00  0.00     0.089 C 
HETATM   15  C12 UNL     1      27.032   0.482  51.894  1.00  0.00     0.094 C 
HETATM   16  C13 UNL     1      25.930  -0.167  52.751  1.00  0.00     0.184 C 
HETATM   17  O7  UNL     1      24.614   0.298  52.424  1.00  0.00    -0.330 OA
ENDROOT
BRANCH  14  18
HETATM   18  O4  UNL     1      27.244   1.975  53.582  1.00  0.00    -0.172 OA
BRANCH  18  19
HETATM   19  O5  UNL     1      28.209   2.788  54.060  1.00  0.00    -0.064 OA
BRANCH  19  20
HETATM   20  O6  UNL     1      29.286   2.725  53.328  1.00  0.00    -0.220 OA
HETATM   21  H8  UNL     1      29.265   2.025  52.627  1.00  0.00     0.256 HD
ENDBRANCH  19  20
ENDBRANCH  18  19
ENDBRANCH  14  18
TORSDOF 3
ENDMDL
MODEL 3
REMARK VINA RESULT:      -6.4      4.230      7.329
REMARK  3 active torsions:
REMARK  status: ('A' for Active; 'I' for Inactive)
REMARK    1  A    between atoms: C11_14  and  O4_15 
REMARK    2  A    between atoms: O4_15  and  O5_16 
REMARK    3  A    between atoms: O5_16  and  O6_17 
ROOT
HETATM    1  O1  UNL     1      22.650   3.703  49.091  1.00  0.00    -0.259 OA
HETATM    2  C1  UNL     1      23.715   4.347  48.995  1.00  0.00     0.300 A 
HETATM    3  O2  UNL     1      23.913   5.490  48.328  1.00  0.00    -0.251 OA
HETATM    4  C2  UNL     1      25.143   6.014  48.352  1.00  0.00     0.188 A 
HETATM    5  C3  UNL     1      26.331   5.563  48.967  1.00  0.00     0.065 A 
HETATM    6  C4  UNL     1      26.118   4.391  49.652  1.00  0.00     0.022 A 
HETATM    7  C5  UNL     1      24.847   3.899  49.610  1.00  0.00     0.041 A 
HETATM    8  C6  UNL     1      24.759   2.799  50.591  1.00  0.00     0.042 C 
HETATM    9  C7  UNL     1      24.306   3.571  51.629  1.00  0.00     0.142 C 
HETATM   10  O3  UNL     1      23.853   4.685  52.459  1.00  0.00    -0.335 OA
HETATM   11  C8  UNL     1      22.739   5.357  51.869  1.00  0.00     0.141 C 
HETATM   12  C9  UNL     1      22.852   6.430  51.142  1.00  0.00     0.027 C 
HETATM   13  C10 UNL     1      24.224   6.885  51.016  1.00  0.00     0.037 C 
HETATM   14  C11 UNL     1      24.906   7.838  50.354  1.00  0.00     0.089 C 
HETATM   15  C12 UNL     1      24.155   8.717  49.383  1.00  0.00     0.094 C 
HETATM   16  C13 UNL     1      24.779   8.442  48.003  1.00  0.00     0.184 C 
HETATM   17  O7  UNL     1      24.631   7.080  47.578  1.00  0.00    -0.330 OA
ENDROOT
BRANCH  14  18
HETATM   18  O4  UNL     1      26.223   8.332  50.218  1.00  0.00    -0.172 OA
BRANCH  18  19
HETATM   19  O5  UNL     1      26.493   9.612  50.549  1.00  0.00    -0.064 OA
BRANCH  19  20
HETATM   20  O6  UNL     1      27.629   9.709  51.180  1.00  0.00    -0.220 OA
HETATM   21  H8  UNL     1      27.563   9.599  52.162  1.00  0.00     0.256 HD
ENDBRANCH  19  20
ENDBRANCH  18  19
ENDBRANCH  14  18
TORSDOF 3
ENDMDL
MODEL 4
REMARK VINA RESULT:      -6.2      8.016      9.743
REMARK  3 active torsions:
REMARK  status: ('A' for Active; 'I' for Inactive)
REMARK    1  A    between atoms: C11_14  and  O4_15 
REMARK    2  A    between atoms: O4_15  and  O5_16 
REMARK    3  A    between atoms: O5_16  and  O6_17 
ROOT
HETATM    1  O1  UNL     1      28.455   9.123  46.193  1.00  0.00    -0.259 OA
HETATM    2  C1  UNL     1      29.016   8.102  46.640  1.00  0.00     0.300 A 
HETATM    3  O2  UNL     1      30.278   7.712  46.427  1.00  0.00    -0.251 OA
HETATM    4  C2  UNL     1      30.679   6.574  47.004  1.00  0.00     0.188 A 
HETATM    5  C3  UNL     1      29.987   5.656  47.824  1.00  0.00     0.065 A 
HETATM    6  C4  UNL     1      28.693   6.067  48.041  1.00  0.00     0.022 A 
HETATM    7  C5  UNL     1      28.331   7.237  47.443  1.00  0.00     0.041 A 
HETATM    8  C6  UNL     1      27.016   7.632  47.987  1.00  0.00     0.042 C 
HETATM    9  C7  UNL     1      27.511   8.426  48.990  1.00  0.00     0.142 C 
HETATM   10  O3  UNL     1      28.389   9.156  49.900  1.00  0.00    -0.335 OA
HETATM   11  C8  UNL     1      29.281  10.016  49.190  1.00  0.00     0.141 C 
HETATM   12  C9  UNL     1      30.498   9.684  48.875  1.00  0.00     0.027 C 
HETATM   13  C10 UNL     1      30.862   8.360  49.344  1.00  0.00     0.037 C 
HETATM   14  C11 UNL     1      31.904   7.513  49.242  1.00  0.00     0.089 C 
HETATM   15  C12 UNL     1      33.069   7.906  48.366  1.00  0.00     0.094 C 
HETATM   16  C13 UNL     1      33.131   6.845  47.253  1.00  0.00     0.184 C 
HETATM   17  O7  UNL     1      31.952   6.813  46.438  1.00  0.00    -0.330 OA
ENDROOT
BRANCH  14  18
HETATM   18  O4  UNL     1      32.312   6.238  49.696  1.00  0.00    -0.172 OA
BRANCH  18  19
HETATM   19  O5  UNL     1      31.415   5.425  50.293  1.00  0.00    -0.064 OA
BRANCH  19  20
HETATM   20  O6  UNL     1      31.571   5.418  51.587  1.00  0.00    -0.220 OA
HETATM   21  H8  UNL     1      32.185   4.716  51.922  1.00  0.00     0.256 HD
ENDBRANCH  19  20
ENDBRANCH  18  19
ENDBRANCH  14  18
TORSDOF 3
ENDMDL
MODEL 5
REMARK VINA RESULT:      -6.2      1.560      4.911
REMARK  3 active torsions:
REMARK  status: ('A' for Active; 'I' for Inactive)
REMARK    1  A    between atoms: C11_14  and  O4_15 
REMARK    2  A    between atoms: O4_15  and  O5_16 
REMARK    3  A    between atoms: O5_16  and  O6_17 
ROOT
HETATM    1  O1  UNL     1      25.987  -1.571  52.380  1.00  0.00    -0.259 OA
HETATM    2  C1  UNL     1      26.151  -0.367  52.665  1.00  0.00     0.300 A 
HETATM    3  O2  UNL     1      26.306   0.653  51.814  1.00  0.00    -0.251 OA
HETATM    4  C2  UNL     1      26.473   1.874  52.335  1.00  0.00     0.188 A 
HETATM    5  C3  UNL     1      26.532   2.308  53.677  1.00  0.00     0.065 A 
HETATM    6  C4  UNL     1      26.369   1.255  54.544  1.00  0.00     0.022 A 
HETATM    7  C5  UNL     1      26.190   0.031  53.970  1.00  0.00     0.041 A 
HETATM    8  C6  UNL     1      25.788  -0.910  55.033  1.00  0.00     0.042 C 
HETATM    9  C7  UNL     1      24.437  -0.754  54.857  1.00  0.00     0.142 C 
HETATM   10  O3  UNL     1      23.121  -0.333  54.383  1.00  0.00    -0.335 OA
HETATM   11  C8  UNL     1      22.974  -0.559  52.980  1.00  0.00     0.141 C 
HETATM   12  C9  UNL     1      23.180   0.357  52.081  1.00  0.00     0.027 C 
HETATM   13  C10 UNL     1      23.551   1.638  52.654  1.00  0.00     0.037 C 
HETATM   14  C11 UNL     1      23.940   2.853  52.222  1.00  0.00     0.089 C 
HETATM   15  C12 UNL     1      24.149   3.059  50.742  1.00  0.00     0.094 C 
HETATM   16  C13 UNL     1      25.638   3.409  50.576  1.00  0.00     0.184 C 
HETATM   17  O7  UNL     1      26.516   2.361  51.009  1.00  0.00    -0.330 OA
ENDROOT
BRANCH  14  18
HETATM   18  O4  UNL     1      24.283   4.125  52.734  1.00  0.00    -0.172 OA
BRANCH  18  19
HETATM   19  O5  UNL     1      23.506   5.190  52.449  1.00  0.00    -0.064 OA
BRANCH  19  20
HETATM   20  O6  UNL     1      24.186   6.301  52.508  1.00  0.00    -0.220 OA
HETATM   21  H8  UNL     1      24.823   6.431  51.761  1.00  0.00     0.256 HD
ENDBRANCH  19  20
ENDBRANCH  18  19
ENDBRANCH  14  18
TORSDOF 3
ENDMDL
MODEL 6
REMARK VINA RESULT:      -6.1     22.192     23.678
REMARK  3 active torsions:
REMARK  status: ('A' for Active; 'I' for Inactive)
REMARK    1  A    between atoms: C11_14  and  O4_15 
REMARK    2  A    between atoms: O4_15  and  O5_16 
REMARK    3  A    between atoms: O5_16  and  O6_17 
ROOT
HETATM    1  O1  UNL     1      20.108   7.976  76.570  1.00  0.00    -0.259 OA
HETATM    2  C1  UNL     1      19.704   7.796  75.403  1.00  0.00     0.300 A 
HETATM    3  O2  UNL     1      20.135   6.879  74.530  1.00  0.00    -0.251 OA
HETATM    4  C2  UNL     1      19.564   6.861  73.320  1.00  0.00     0.188 A 
HETATM    5  C3  UNL     1      18.553   7.672  72.760  1.00  0.00     0.065 A 
HETATM    6  C4  UNL     1      18.114   8.608  73.665  1.00  0.00     0.022 A 
HETATM    7  C5  UNL     1      18.716   8.583  74.889  1.00  0.00     0.041 A 
HETATM    8  C6  UNL     1      17.951   9.474  75.784  1.00  0.00     0.042 C 
HETATM    9  C7  UNL     1      17.133   8.497  76.290  1.00  0.00     0.142 C 
HETATM   10  O3  UNL     1      16.476   7.226  76.580  1.00  0.00    -0.335 OA
HETATM   11  C8  UNL     1      17.415   6.237  77.004  1.00  0.00     0.141 C 
HETATM   12  C9  UNL     1      17.941   5.358  76.203  1.00  0.00     0.027 C 
HETATM   13  C10 UNL     1      17.454   5.471  74.841  1.00  0.00     0.037 C 
HETATM   14  C11 UNL     1      17.697   4.911  73.641  1.00  0.00     0.089 C 
HETATM   15  C12 UNL     1      18.816   3.905  73.529  1.00  0.00     0.094 C 
HETATM   16  C13 UNL     1      19.833   4.519  72.551  1.00  0.00     0.184 C 
HETATM   17  O7  UNL     1      20.391   5.754  73.019  1.00  0.00    -0.330 OA
ENDROOT
BRANCH  14  18
HETATM   18  O4  UNL     1      17.237   4.969  72.306  1.00  0.00    -0.172 OA
BRANCH  18  19
HETATM   19  O5  UNL     1      15.976   5.378  72.052  1.00  0.00    -0.064 OA
BRANCH  19  20
HETATM   20  O6  UNL     1      15.742   5.423  70.771  1.00  0.00    -0.220 OA
HETATM   21  H8  UNL     1      15.852   6.320  70.365  1.00  0.00     0.256 HD
ENDBRANCH  19  20
ENDBRANCH  18  19
ENDBRANCH  14  18
TORSDOF 3
ENDMDL
MODEL 7
REMARK VINA RESULT:      -6.0      3.689      5.902
REMARK  3 active torsions:
REMARK  status: ('A' for Active; 'I' for Inactive)
REMARK    1  A    between atoms: C11_14  and  O4_15 
REMARK    2  A    between atoms: O4_15  and  O5_16 
REMARK    3  A    between atoms: O5_16  and  O6_17 
ROOT
HETATM    1  O1  UNL     1      20.645   0.649  50.117  1.00  0.00    -0.259 OA
HETATM    2  C1  UNL     1      21.703   1.218  50.458  1.00  0.00     0.300 A 
HETATM    3  O2  UNL     1      22.504   1.964  49.690  1.00  0.00    -0.251 OA
HETATM    4  C2  UNL     1      23.599   2.482  50.258  1.00  0.00     0.188 A 
HETATM    5  C3  UNL     1      24.098   2.376  51.574  1.00  0.00     0.065 A 
HETATM    6  C4  UNL     1      23.267   1.610  52.357  1.00  0.00     0.022 A 
HETATM    7  C5  UNL     1      22.158   1.112  51.740  1.00  0.00     0.041 A 
HETATM    8  C6  UNL     1      21.281   0.543  52.782  1.00  0.00     0.042 C 
HETATM    9  C7  UNL     1      20.532   1.675  52.969  1.00  0.00     0.142 C 
HETATM   10  O3  UNL     1      19.979   3.025  52.885  1.00  0.00    -0.335 OA
HETATM   11  C8  UNL     1      19.578   3.344  51.552  1.00  0.00     0.141 C 
HETATM   12  C9  UNL     1      20.328   3.999  50.715  1.00  0.00     0.027 C 
HETATM   13  C10 UNL     1      21.602   4.393  51.287  1.00  0.00     0.037 C 
HETATM   14  C11 UNL     1      22.741   4.985  50.882  1.00  0.00     0.089 C 
HETATM   15  C12 UNL     1      22.890   5.336  49.421  1.00  0.00     0.094 C 
HETATM   16  C13 UNL     1      24.085   4.509  48.914  1.00  0.00     0.184 C 
HETATM   17  O7  UNL     1      23.875   3.094  49.014  1.00  0.00    -0.330 OA
ENDROOT
BRANCH  14  18
HETATM   18  O4  UNL     1      23.985   5.409  51.401  1.00  0.00    -0.172 OA
BRANCH  18  19
HETATM   19  O5  UNL     1      24.240   6.728  51.528  1.00  0.00    -0.064 OA
BRANCH  19  20
HETATM   20  O6  UNL     1      25.473   7.005  51.206  1.00  0.00    -0.220 OA
HETATM   21  H8  UNL     1      25.582   7.838  50.681  1.00  0.00     0.256 HD
ENDBRANCH  19  20
ENDBRANCH  18  19
ENDBRANCH  14  18
TORSDOF 3
ENDMDL
MODEL 8
REMARK VINA RESULT:      -6.0      2.978      5.269
REMARK  3 active torsions:
REMARK  status: ('A' for Active; 'I' for Inactive)
REMARK    1  A    between atoms: C11_14  and  O4_15 
REMARK    2  A    between atoms: O4_15  and  O5_16 
REMARK    3  A    between atoms: O5_16  and  O6_17 
ROOT
HETATM    1  O1  UNL     1      21.746   0.537  50.580  1.00  0.00    -0.259 OA
HETATM    2  C1  UNL     1      22.398   1.450  51.129  1.00  0.00     0.300 A 
HETATM    3  O2  UNL     1      23.728   1.557  51.213  1.00  0.00    -0.251 OA
HETATM    4  C2  UNL     1      24.224   2.622  51.853  1.00  0.00     0.188 A 
HETATM    5  C3  UNL     1      23.577   3.699  52.496  1.00  0.00     0.065 A 
HETATM    6  C4  UNL     1      22.211   3.584  52.401  1.00  0.00     0.022 A 
HETATM    7  C5  UNL     1      21.751   2.489  51.731  1.00  0.00     0.041 A 
HETATM    8  C6  UNL     1      20.301   2.668  51.519  1.00  0.00     0.042 C 
HETATM    9  C7  UNL     1      20.410   3.243  50.279  1.00  0.00     0.142 C 
HETATM   10  O3  UNL     1      20.918   3.801  49.029  1.00  0.00    -0.335 OA
HETATM   11  C8  UNL     1      21.744   2.865  48.336  1.00  0.00     0.141 C 
HETATM   12  C9  UNL     1      23.041   2.851  48.424  1.00  0.00     0.027 C 
HETATM   13  C10 UNL     1      23.561   3.902  49.280  1.00  0.00     0.037 C 
HETATM   14  C11 UNL     1      24.750   4.294  49.775  1.00  0.00     0.089 C 
HETATM   15  C12 UNL     1      25.966   3.449  49.482  1.00  0.00     0.094 C 
HETATM   16  C13 UNL     1      26.467   2.950  50.849  1.00  0.00     0.184 C 
HETATM   17  O7  UNL     1      25.511   2.131  51.535  1.00  0.00    -0.330 OA
ENDROOT
BRANCH  14  18
HETATM   18  O4  UNL     1      25.304   5.313  50.583  1.00  0.00    -0.172 OA
BRANCH  18  19
HETATM   19  O5  UNL     1      24.695   6.515  50.650  1.00  0.00    -0.064 OA
BRANCH  19  20
HETATM   20  O6  UNL     1      24.577   6.917  51.885  1.00  0.00    -0.220 OA
HETATM   21  H8  UNL     1      25.419   6.892  52.406  1.00  0.00     0.256 HD
ENDBRANCH  19  20
ENDBRANCH  18  19
ENDBRANCH  14  18
TORSDOF 3
ENDMDL
MODEL 9
REMARK VINA RESULT:      -6.0      8.527     10.862
REMARK  3 active torsions:
REMARK  status: ('A' for Active; 'I' for Inactive)
REMARK    1  A    between atoms: C11_14  and  O4_15 
REMARK    2  A    between atoms: O4_15  and  O5_16 
REMARK    3  A    between atoms: O5_16  and  O6_17 
ROOT
HETATM    1  O1  UNL     1      32.069   6.406  45.897  1.00  0.00    -0.259 OA
HETATM    2  C1  UNL     1      31.798   7.438  46.545  1.00  0.00     0.300 A 
HETATM    3  O2  UNL     1      30.936   8.403  46.207  1.00  0.00    -0.251 OA
HETATM    4  C2  UNL     1      30.797   9.432  47.051  1.00  0.00     0.188 A 
HETATM    5  C3  UNL     1      31.428   9.711  48.283  1.00  0.00     0.065 A 
HETATM    6  C4  UNL     1      32.309   8.713  48.624  1.00  0.00     0.022 A 
HETATM    7  C5  UNL     1      32.409   7.679  47.741  1.00  0.00     0.041 A 
HETATM    8  C6  UNL     1      33.195   6.610  48.388  1.00  0.00     0.042 C 
HETATM    9  C7  UNL     1      32.117   5.928  48.892  1.00  0.00     0.142 C 
HETATM   10  O3  UNL     1      30.767   5.500  49.249  1.00  0.00    -0.335 OA
HETATM   11  C8  UNL     1      29.947   5.336  48.092  1.00  0.00     0.141 C 
HETATM   12  C9  UNL     1      29.139   6.254  47.651  1.00  0.00     0.027 C 
HETATM   13  C10 UNL     1      29.139   7.450  48.473  1.00  0.00     0.037 C 
HETATM   14  C11 UNL     1      28.592   8.680  48.451  1.00  0.00     0.089 C 
HETATM   15  C12 UNL     1      27.768   9.081  47.252  1.00  0.00     0.094 C 
HETATM   16  C13 UNL     1      28.505  10.274  46.618  1.00  0.00     0.184 C 
HETATM   17  O7  UNL     1      29.824   9.943  46.162  1.00  0.00    -0.330 OA
ENDROOT
BRANCH  14  18
HETATM   18  O4  UNL     1      28.543   9.857  49.232  1.00  0.00    -0.172 OA
BRANCH  18  19
HETATM   19  O5  UNL     1      27.450  10.116  49.980  1.00  0.00    -0.064 OA
BRANCH  19  20
HETATM   20  O6  UNL     1      27.594   9.671  51.197  1.00  0.00    -0.220 OA
HETATM   21  H8  UNL     1      28.383  10.032  51.675  1.00  0.00     0.256 HD
ENDBRANCH  19  20
ENDBRANCH  18  19
ENDBRANCH  14  18
TORSDOF 3
ENDMDL
