MODEL 1
REMARK VINA RESULT:      -8.4      0.000      0.000
REMARK  3 active torsions:
REMARK  status: ('A' for Active; 'I' for Inactive)
REMARK    1  A    between atoms: C3_3  and  C4_4 
REMARK       I    between atoms: C4_4  and  N1_6 
REMARK    2  A    between atoms: N1_6  and  C5_7 
REMARK    3  A    between atoms: N3_12  and  C9_13 
ROOT
HETATM    1  C5  UNL     1      20.532  -0.157  53.500  1.00  0.00     0.162 A 
HETATM    2  N2  UNL     1      20.154   0.991  52.910  1.00  0.00    -0.240 NA
HETATM    3  C6  UNL     1      21.189   1.766  52.611  1.00  0.00     0.134 A 
HETATM    4  C7  UNL     1      22.371   1.167  52.995  1.00  0.00     0.034 A 
HETATM    5  C8  UNL     1      23.728   1.410  52.982  1.00  0.00     0.136 A 
HETATM    6  N3  UNL     1      24.524   0.476  53.499  1.00  0.00    -0.226 N 
HETATM    7  N4  UNL     1      24.105  -0.648  54.016  1.00  0.00    -0.060 NA
HETATM    8  N5  UNL     1      22.810  -0.980  54.078  1.00  0.00    -0.127 NA
HETATM    9  C15 UNL     1      21.907  -0.108  53.583  1.00  0.00     0.139 A 
ENDROOT
BRANCH   1  10
HETATM   10  N1  UNL     1      19.760  -1.259  53.979  1.00  0.00    -0.306 N 
HETATM   11  C4  UNL     1      18.535  -1.674  53.392  1.00  0.00     0.246 C 
HETATM   12  O1  UNL     1      17.960  -1.151  52.389  1.00  0.00    -0.268 OA
HETATM   13  H6  UNL     1      20.132  -1.777  54.810  1.00  0.00     0.170 HD
BRANCH  11  14
HETATM   14  C3  UNL     1      17.830  -2.816  53.966  1.00  0.00     0.070 C 
HETATM   15  C2  UNL     1      17.132  -3.646  53.205  1.00  0.00    -0.026 C 
HETATM   16  C1  UNL     1      16.406  -4.821  53.805  1.00  0.00     0.036 C 
ENDBRANCH  11  14
ENDBRANCH   1  10
BRANCH   6  17
HETATM   17  C9  UNL     1      25.918   0.747  53.475  1.00  0.00     0.060 A 
HETATM   18  C10 UNL     1      26.430   2.037  53.478  1.00  0.00     0.032 A 
HETATM   19  C11 UNL     1      27.779   2.307  53.456  1.00  0.00     0.004 A 
HETATM   20  C12 UNL     1      28.675   1.245  53.430  1.00  0.00     0.019 A 
HETATM   21  C13 UNL     1      28.228  -0.053  53.426  1.00  0.00     0.013 A 
HETATM   22 BR1  UNL     1      29.446  -1.518  53.390  1.00  0.00    -0.051 Br
HETATM   23  C14 UNL     1      26.877  -0.252  53.449  1.00  0.00     0.050 A 
ENDBRANCH   6  17
TORSDOF 3
ENDMDL
MODEL 2
REMARK VINA RESULT:      -8.0      4.121      5.132
REMARK  3 active torsions:
REMARK  status: ('A' for Active; 'I' for Inactive)
REMARK    1  A    between atoms: C3_3  and  C4_4 
REMARK       I    between atoms: C4_4  and  N1_6 
REMARK    2  A    between atoms: N1_6  and  C5_7 
REMARK    3  A    between atoms: N3_12  and  C9_13 
ROOT
HETATM    1  C5  UNL     1      23.648   0.003  52.997  1.00  0.00     0.162 A 
HETATM    2  N2  UNL     1      24.771  -0.383  53.629  1.00  0.00    -0.240 NA
HETATM    3  C6  UNL     1      25.818   0.357  53.290  1.00  0.00     0.134 A 
HETATM    4  C7  UNL     1      25.453   1.324  52.375  1.00  0.00     0.034 A 
HETATM    5  C8  UNL     1      26.014   2.357  51.655  1.00  0.00     0.136 A 
HETATM    6  N3  UNL     1      25.210   3.051  50.851  1.00  0.00    -0.226 N 
HETATM    7  N4  UNL     1      23.934   2.817  50.700  1.00  0.00    -0.060 NA
HETATM    8  N5  UNL     1      23.294   1.839  51.351  1.00  0.00    -0.127 NA
HETATM    9  C15 UNL     1      24.008   1.067  52.197  1.00  0.00     0.139 A 
ENDROOT
BRANCH   1  10
HETATM   10  N1  UNL     1      22.316  -0.507  53.064  1.00  0.00    -0.306 N 
HETATM   11  C4  UNL     1      21.760  -1.102  54.228  1.00  0.00     0.246 C 
HETATM   12  O1  UNL     1      22.339  -1.265  55.345  1.00  0.00    -0.268 OA
HETATM   13  H6  UNL     1      21.731  -0.430  52.198  1.00  0.00     0.170 HD
BRANCH  11  14
HETATM   14  C3  UNL     1      20.385  -1.589  54.182  1.00  0.00     0.070 C 
HETATM   15  C2  UNL     1      19.476  -1.011  53.410  1.00  0.00    -0.026 C 
HETATM   16  C1  UNL     1      18.059  -1.519  53.369  1.00  0.00     0.036 C 
ENDBRANCH  11  14
ENDBRANCH   1  10
BRANCH   6  17
HETATM   17  C9  UNL     1      25.808   4.111  50.118  1.00  0.00     0.060 A 
HETATM   18  C10 UNL     1      26.929   3.930  49.321  1.00  0.00     0.032 A 
HETATM   19  C11 UNL     1      27.513   4.952  48.608  1.00  0.00     0.004 A 
HETATM   20  C12 UNL     1      26.960   6.225  48.684  1.00  0.00     0.019 A 
HETATM   21  C13 UNL     1      25.851   6.464  49.457  1.00  0.00     0.013 A 
HETATM   22 BR1  UNL     1      25.084   8.205  49.571  1.00  0.00    -0.051 Br
HETATM   23  C14 UNL     1      25.320   5.407  50.139  1.00  0.00     0.050 A 
ENDBRANCH   6  17
TORSDOF 3
ENDMDL
MODEL 3
REMARK VINA RESULT:      -8.0      5.112      8.994
REMARK  3 active torsions:
REMARK  status: ('A' for Active; 'I' for Inactive)
REMARK    1  A    between atoms: C3_3  and  C4_4 
REMARK       I    between atoms: C4_4  and  N1_6 
REMARK    2  A    between atoms: N1_6  and  C5_7 
REMARK    3  A    between atoms: N3_12  and  C9_13 
ROOT
HETATM    1  C5  UNL     1      26.095   3.444  50.857  1.00  0.00     0.162 A 
HETATM    2  N2  UNL     1      27.148   2.684  51.208  1.00  0.00    -0.240 NA
HETATM    3  C6  UNL     1      26.781   1.587  51.856  1.00  0.00     0.134 A 
HETATM    4  C7  UNL     1      25.409   1.537  51.988  1.00  0.00     0.034 A 
HETATM    5  C8  UNL     1      24.431   0.725  52.523  1.00  0.00     0.136 A 
HETATM    6  N3  UNL     1      23.166   1.121  52.394  1.00  0.00    -0.226 N 
HETATM    7  N4  UNL     1      22.794   2.223  51.798  1.00  0.00    -0.060 NA
HETATM    8  N5  UNL     1      23.663   3.079  51.248  1.00  0.00    -0.127 NA
HETATM    9  C15 UNL     1      24.978   2.781  51.317  1.00  0.00     0.139 A 
ENDROOT
BRANCH   1  10
HETATM   10  N1  UNL     1      26.033   4.687  50.157  1.00  0.00    -0.306 N 
HETATM   11  C4  UNL     1      26.919   5.043  49.106  1.00  0.00     0.246 C 
HETATM   12  O1  UNL     1      27.867   4.337  48.643  1.00  0.00    -0.268 OA
HETATM   13  H6  UNL     1      25.287   5.363  50.449  1.00  0.00     0.170 HD
BRANCH  11  14
HETATM   14  C3  UNL     1      26.762   6.343  48.461  1.00  0.00     0.070 C 
HETATM   15  C2  UNL     1      27.768   6.918  47.818  1.00  0.00    -0.026 C 
HETATM   16  C1  UNL     1      27.598   8.260  47.156  1.00  0.00     0.036 C 
ENDBRANCH  11  14
ENDBRANCH   1  10
BRANCH   6  17
HETATM   17  C9  UNL     1      22.175   0.271  52.952  1.00  0.00     0.060 A 
HETATM   18  C10 UNL     1      22.445  -0.618  53.983  1.00  0.00     0.032 A 
HETATM   19  C11 UNL     1      21.490  -1.444  54.528  1.00  0.00     0.004 A 
HETATM   20  C12 UNL     1      20.194  -1.393  54.030  1.00  0.00     0.019 A 
HETATM   21  C13 UNL     1      19.867  -0.534  53.010  1.00  0.00     0.013 A 
HETATM   22 BR1  UNL     1      18.094  -0.453  52.317  1.00  0.00    -0.051 Br
HETATM   23  C14 UNL     1      20.861   0.260  52.513  1.00  0.00     0.050 A 
ENDBRANCH   6  17
TORSDOF 3
ENDMDL
MODEL 4
REMARK VINA RESULT:      -8.0      3.912      8.271
REMARK  3 active torsions:
REMARK  status: ('A' for Active; 'I' for Inactive)
REMARK    1  A    between atoms: C3_3  and  C4_4 
REMARK       I    between atoms: C4_4  and  N1_6 
REMARK    2  A    between atoms: N1_6  and  C5_7 
REMARK    3  A    between atoms: N3_12  and  C9_13 
ROOT
HETATM    1  C5  UNL     1      25.145   1.379  53.160  1.00  0.00     0.162 A 
HETATM    2  N2  UNL     1      24.958   2.684  52.894  1.00  0.00    -0.240 NA
HETATM    3  C6  UNL     1      23.688   2.968  52.637  1.00  0.00     0.134 A 
HETATM    4  C7  UNL     1      22.911   1.830  52.716  1.00  0.00     0.034 A 
HETATM    5  C8  UNL     1      21.597   1.441  52.571  1.00  0.00     0.136 A 
HETATM    6  N3  UNL     1      21.314   0.153  52.758  1.00  0.00    -0.226 N 
HETATM    7  N4  UNL     1      22.197  -0.760  53.066  1.00  0.00    -0.060 NA
HETATM    8  N5  UNL     1      23.496  -0.487  53.228  1.00  0.00    -0.127 NA
HETATM    9  C15 UNL     1      23.902   0.790  53.064  1.00  0.00     0.139 A 
ENDROOT
BRANCH   1  10
HETATM   10  N1  UNL     1      26.330   0.652  53.484  1.00  0.00    -0.306 N 
HETATM   11  C4  UNL     1      27.520   1.262  53.962  1.00  0.00     0.246 C 
HETATM   12  O1  UNL     1      27.707   2.500  54.167  1.00  0.00    -0.268 OA
HETATM   13  H6  UNL     1      26.303  -0.388  53.356  1.00  0.00     0.170 HD
BRANCH  11  14
HETATM   14  C3  UNL     1      28.673   0.419  54.262  1.00  0.00     0.070 C 
HETATM   15  C2  UNL     1      28.994  -0.608  53.488  1.00  0.00    -0.026 C 
HETATM   16  C1  UNL     1      30.184  -1.474  53.804  1.00  0.00     0.036 C 
ENDBRANCH  11  14
ENDBRANCH   1  10
BRANCH   6  17
HETATM   17  C9  UNL     1      19.954  -0.227  52.604  1.00  0.00     0.060 A 
HETATM   18  C10 UNL     1      19.297  -1.041  53.517  1.00  0.00     0.032 A 
HETATM   19  C11 UNL     1      17.980  -1.412  53.375  1.00  0.00     0.004 A 
HETATM   20  C12 UNL     1      17.269  -0.957  52.272  1.00  0.00     0.019 A 
HETATM   21  C13 UNL     1      17.866  -0.149  51.335  1.00  0.00     0.013 A 
HETATM   22 BR1  UNL     1      16.903   0.482  49.817  1.00  0.00    -0.051 Br
HETATM   23  C14 UNL     1      19.176   0.183  51.535  1.00  0.00     0.050 A 
ENDBRANCH   6  17
TORSDOF 3
ENDMDL
MODEL 5
REMARK VINA RESULT:      -7.9      4.102      8.123
REMARK  3 active torsions:
REMARK  status: ('A' for Active; 'I' for Inactive)
REMARK    1  A    between atoms: C3_3  and  C4_4 
REMARK       I    between atoms: C4_4  and  N1_6 
REMARK    2  A    between atoms: N1_6  and  C5_7 
REMARK    3  A    between atoms: N3_12  and  C9_13 
ROOT
HETATM    1  C5  UNL     1      24.843  -0.860  54.604  1.00  0.00     0.162 A 
HETATM    2  N2  UNL     1      24.244  -1.393  55.683  1.00  0.00    -0.240 NA
HETATM    3  C6  UNL     1      22.922  -1.397  55.574  1.00  0.00     0.134 A 
HETATM    4  C7  UNL     1      22.533  -0.846  54.370  1.00  0.00     0.034 A 
HETATM    5  C8  UNL     1      21.383  -0.560  53.666  1.00  0.00     0.136 A 
HETATM    6  N3  UNL     1      21.522   0.010  52.470  1.00  0.00    -0.226 N 
HETATM    7  N4  UNL     1      22.670   0.314  51.925  1.00  0.00    -0.060 NA
HETATM    8  N5  UNL     1      23.842   0.080  52.526  1.00  0.00    -0.127 NA
HETATM    9  C15 UNL     1      23.826  -0.496  53.746  1.00  0.00     0.139 A 
ENDROOT
BRANCH   1  10
HETATM   10  N1  UNL     1      26.225  -0.661  54.305  1.00  0.00    -0.306 N 
HETATM   11  C4  UNL     1      26.872   0.600  54.385  1.00  0.00     0.246 C 
HETATM   12  O1  UNL     1      26.344   1.703  54.723  1.00  0.00    -0.268 OA
HETATM   13  H6  UNL     1      26.776  -1.503  54.011  1.00  0.00     0.170 HD
BRANCH  11  14
HETATM   14  C3  UNL     1      28.292   0.686  54.056  1.00  0.00     0.070 C 
HETATM   15  C2  UNL     1      29.009  -0.403  53.816  1.00  0.00    -0.026 C 
HETATM   16  C1  UNL     1      30.473  -0.307  53.479  1.00  0.00     0.036 C 
ENDBRANCH  11  14
ENDBRANCH   1  10
BRANCH   6  17
HETATM   17  C9  UNL     1      20.325   0.295  51.760  1.00  0.00     0.060 A 
HETATM   18  C10 UNL     1      20.314   0.998  50.564  1.00  0.00     0.032 A 
HETATM   19  C11 UNL     1      19.159   1.278  49.871  1.00  0.00     0.004 A 
HETATM   20  C12 UNL     1      17.945   0.840  50.386  1.00  0.00     0.019 A 
HETATM   21  C13 UNL     1      17.893   0.141  51.566  1.00  0.00     0.013 A 
HETATM   22 BR1  UNL     1      16.234  -0.465  52.283  1.00  0.00    -0.051 Br
HETATM   23  C14 UNL     1      19.075  -0.104  52.204  1.00  0.00     0.050 A 
ENDBRANCH   6  17
TORSDOF 3
ENDMDL
MODEL 6
REMARK VINA RESULT:      -7.8      1.676      2.268
REMARK  3 active torsions:
REMARK  status: ('A' for Active; 'I' for Inactive)
REMARK    1  A    between atoms: C3_3  and  C4_4 
REMARK       I    between atoms: C4_4  and  N1_6 
REMARK    2  A    between atoms: N1_6  and  C5_7 
REMARK    3  A    between atoms: N3_12  and  C9_13 
ROOT
HETATM    1  C5  UNL     1      20.843  -0.717  53.643  1.00  0.00     0.162 A 
HETATM    2  N2  UNL     1      20.936  -1.654  54.604  1.00  0.00    -0.240 NA
HETATM    3  C6  UNL     1      22.178  -1.799  55.046  1.00  0.00     0.134 A 
HETATM    4  C7  UNL     1      23.032  -0.939  54.386  1.00  0.00     0.034 A 
HETATM    5  C8  UNL     1      24.367  -0.596  54.358  1.00  0.00     0.136 A 
HETATM    6  N3  UNL     1      24.739   0.350  53.498  1.00  0.00    -0.226 N 
HETATM    7  N4  UNL     1      23.927   0.969  52.683  1.00  0.00    -0.060 NA
HETATM    8  N5  UNL     1      22.616   0.710  52.631  1.00  0.00    -0.127 NA
HETATM    9  C15 UNL     1      22.121  -0.233  53.460  1.00  0.00     0.139 A 
ENDROOT
BRANCH   1  10
HETATM   10  N1  UNL     1      19.717  -0.247  52.902  1.00  0.00    -0.306 N 
HETATM   11  C4  UNL     1      18.448  -0.885  52.912  1.00  0.00     0.246 C 
HETATM   12  O1  UNL     1      18.131  -1.931  53.557  1.00  0.00    -0.268 OA
HETATM   13  H6  UNL     1      19.852   0.617  52.325  1.00  0.00     0.170 HD
BRANCH  11  14
HETATM   14  C3  UNL     1      17.366  -0.314  52.115  1.00  0.00     0.070 C 
HETATM   15  C2  UNL     1      16.114  -0.324  52.549  1.00  0.00    -0.026 C 
HETATM   16  C1  UNL     1      15.003   0.266  51.721  1.00  0.00     0.036 C 
ENDBRANCH  11  14
ENDBRANCH   1  10
BRANCH   6  17
HETATM   17  C9  UNL     1      26.119   0.689  53.486  1.00  0.00     0.060 A 
HETATM   18  C10 UNL     1      26.567   2.002  53.473  1.00  0.00     0.032 A 
HETATM   19  C11 UNL     1      27.901   2.337  53.462  1.00  0.00     0.004 A 
HETATM   20  C12 UNL     1      28.849   1.321  53.463  1.00  0.00     0.019 A 
HETATM   21  C13 UNL     1      28.465   0.003  53.475  1.00  0.00     0.013 A 
HETATM   22 BR1  UNL     1      29.754  -1.401  53.476  1.00  0.00    -0.051 Br
HETATM   23  C14 UNL     1      27.126  -0.262  53.486  1.00  0.00     0.050 A 
ENDBRANCH   6  17
TORSDOF 3
ENDMDL
MODEL 7
REMARK VINA RESULT:      -7.8      1.670      2.256
REMARK  3 active torsions:
REMARK  status: ('A' for Active; 'I' for Inactive)
REMARK    1  A    between atoms: C3_3  and  C4_4 
REMARK       I    between atoms: C4_4  and  N1_6 
REMARK    2  A    between atoms: N1_6  and  C5_7 
REMARK    3  A    between atoms: N3_12  and  C9_13 
ROOT
HETATM    1  C5  UNL     1      21.364   2.165  52.451  1.00  0.00     0.162 A 
HETATM    2  N2  UNL     1      21.497   3.461  52.114  1.00  0.00    -0.240 NA
HETATM    3  C6  UNL     1      22.762   3.860  52.140  1.00  0.00     0.134 A 
HETATM    4  C7  UNL     1      23.591   2.821  52.509  1.00  0.00     0.034 A 
HETATM    5  C8  UNL     1      24.929   2.566  52.721  1.00  0.00     0.136 A 
HETATM    6  N3  UNL     1      25.267   1.332  53.091  1.00  0.00    -0.226 N 
HETATM    7  N4  UNL     1      24.419   0.354  53.266  1.00  0.00    -0.060 NA
HETATM    8  N5  UNL     1      23.101   0.497  53.088  1.00  0.00    -0.127 NA
HETATM    9  C15 UNL     1      22.639   1.708  52.711  1.00  0.00     0.139 A 
ENDROOT
BRANCH   1  10
HETATM   10  N1  UNL     1      20.204   1.340  52.551  1.00  0.00    -0.306 N 
HETATM   11  C4  UNL     1      19.573   0.732  51.434  1.00  0.00     0.246 C 
HETATM   12  O1  UNL     1      19.931   0.823  50.220  1.00  0.00    -0.268 OA
HETATM   13  H6  UNL     1      19.808   1.186  53.510  1.00  0.00     0.170 HD
BRANCH  11  14
HETATM   14  C3  UNL     1      18.390  -0.094  51.655  1.00  0.00     0.070 C 
HETATM   15  C2  UNL     1      18.283  -0.870  52.724  1.00  0.00    -0.026 C 
HETATM   16  C1  UNL     1      17.059  -1.719  52.945  1.00  0.00     0.036 C 
ENDBRANCH  11  14
ENDBRANCH   1  10
BRANCH   6  17
HETATM   17  C9  UNL     1      26.651   1.091  53.304  1.00  0.00     0.060 A 
HETATM   18  C10 UNL     1      27.545   2.101  53.630  1.00  0.00     0.032 A 
HETATM   19  C11 UNL     1      28.886   1.874  53.839  1.00  0.00     0.004 A 
HETATM   20  C12 UNL     1      29.375   0.579  53.719  1.00  0.00     0.019 A 
HETATM   21  C13 UNL     1      28.538  -0.461  53.398  1.00  0.00     0.013 A 
HETATM   22 BR1  UNL     1      29.195  -2.242  53.231  1.00  0.00    -0.051 Br
HETATM   23  C14 UNL     1      27.218  -0.169  53.205  1.00  0.00     0.050 A 
ENDBRANCH   6  17
TORSDOF 3
ENDMDL
MODEL 8
REMARK VINA RESULT:      -7.7      5.377      9.018
REMARK  3 active torsions:
REMARK  status: ('A' for Active; 'I' for Inactive)
REMARK    1  A    between atoms: C3_3  and  C4_4 
REMARK       I    between atoms: C4_4  and  N1_6 
REMARK    2  A    between atoms: N1_6  and  C5_7 
REMARK    3  A    between atoms: N3_12  and  C9_13 
ROOT
HETATM    1  C5  UNL     1      26.056   4.490  49.288  1.00  0.00     0.162 A 
HETATM    2  N2  UNL     1      24.823   5.007  49.143  1.00  0.00    -0.240 NA
HETATM    3  C6  UNL     1      23.934   4.416  49.930  1.00  0.00     0.134 A 
HETATM    4  C7  UNL     1      24.534   3.427  50.682  1.00  0.00     0.034 A 
HETATM    5  C8  UNL     1      24.208   2.487  51.637  1.00  0.00     0.136 A 
HETATM    6  N3  UNL     1      25.189   1.710  52.091  1.00  0.00    -0.226 N 
HETATM    7  N4  UNL     1      26.432   1.778  51.692  1.00  0.00    -0.060 NA
HETATM    8  N5  UNL     1      26.850   2.653  50.771  1.00  0.00    -0.127 NA
HETATM    9  C15 UNL     1      25.941   3.496  50.237  1.00  0.00     0.139 A 
ENDROOT
BRANCH   1  10
HETATM   10  N1  UNL     1      27.289   4.821  48.649  1.00  0.00    -0.306 N 
HETATM   11  C4  UNL     1      27.751   6.152  48.475  1.00  0.00     0.246 C 
HETATM   12  O1  UNL     1      27.163   7.213  48.847  1.00  0.00    -0.268 OA
HETATM   13  H6  UNL     1      27.872   4.025  48.295  1.00  0.00     0.170 HD
BRANCH  11  14
HETATM   14  C3  UNL     1      29.030   6.373  47.806  1.00  0.00     0.070 C 
HETATM   15  C2  UNL     1      30.115   5.697  48.157  1.00  0.00    -0.026 C 
HETATM   16  C1  UNL     1      31.430   5.931  47.463  1.00  0.00     0.036 C 
ENDBRANCH  11  14
ENDBRANCH   1  10
BRANCH   6  17
HETATM   17  C9  UNL     1      24.833   0.748  53.075  1.00  0.00     0.060 A 
HETATM   18  C10 UNL     1      25.741   0.253  54.000  1.00  0.00     0.032 A 
HETATM   19  C11 UNL     1      25.403  -0.677  54.955  1.00  0.00     0.004 A 
HETATM   20  C12 UNL     1      24.096  -1.146  55.003  1.00  0.00     0.019 A 
HETATM   21  C13 UNL     1      23.154  -0.693  54.113  1.00  0.00     0.013 A 
HETATM   22 BR1  UNL     1      21.358  -1.328  54.167  1.00  0.00    -0.051 Br
HETATM   23  C14 UNL     1      23.554   0.230  53.190  1.00  0.00     0.050 A 
ENDBRANCH   6  17
TORSDOF 3
ENDMDL
MODEL 9
REMARK VINA RESULT:      -7.6      4.165      7.749
REMARK  3 active torsions:
REMARK  status: ('A' for Active; 'I' for Inactive)
REMARK    1  A    between atoms: C3_3  and  C4_4 
REMARK       I    between atoms: C4_4  and  N1_6 
REMARK    2  A    between atoms: N1_6  and  C5_7 
REMARK    3  A    between atoms: N3_12  and  C9_13 
ROOT
HETATM    1  C5  UNL     1      24.439  -0.824  54.496  1.00  0.00     0.162 A 
HETATM    2  N2  UNL     1      23.545  -1.302  55.380  1.00  0.00    -0.240 NA
HETATM    3  C6  UNL     1      22.294  -1.062  55.009  1.00  0.00     0.134 A 
HETATM    4  C7  UNL     1      22.266  -0.383  53.808  1.00  0.00     0.034 A 
HETATM    5  C8  UNL     1      21.355   0.143  52.918  1.00  0.00     0.136 A 
HETATM    6  N3  UNL     1      21.836   0.745  51.832  1.00  0.00    -0.226 N 
HETATM    7  N4  UNL     1      23.107   0.870  51.558  1.00  0.00    -0.060 NA
HETATM    8  N5  UNL     1      24.071   0.395  52.356  1.00  0.00    -0.127 NA
HETATM    9  C15 UNL     1      23.702  -0.236  53.490  1.00  0.00     0.139 A 
ENDROOT
BRANCH   1  10
HETATM   10  N1  UNL     1      25.866  -0.859  54.499  1.00  0.00    -0.306 N 
HETATM   11  C4  UNL     1      26.680   0.293  54.660  1.00  0.00     0.246 C 
HETATM   12  O1  UNL     1      26.281   1.487  54.822  1.00  0.00    -0.268 OA
HETATM   13  H6  UNL     1      26.321  -1.795  54.373  1.00  0.00     0.170 HD
BRANCH  11  14
HETATM   14  C3  UNL     1      28.132   0.138  54.647  1.00  0.00     0.070 C 
HETATM   15  C2  UNL     1      28.746  -0.504  53.663  1.00  0.00    -0.026 C 
HETATM   16  C1  UNL     1      30.243  -0.661  53.657  1.00  0.00     0.036 C 
ENDBRANCH  11  14
ENDBRANCH   1  10
BRANCH   6  17
HETATM   17  C9  UNL     1      20.880   1.280  50.927  1.00  0.00     0.060 A 
HETATM   18  C10 UNL     1      19.512   1.182  51.139  1.00  0.00     0.032 A 
HETATM   19  C11 UNL     1      18.581   1.698  50.268  1.00  0.00     0.004 A 
HETATM   20  C12 UNL     1      19.022   2.349  49.122  1.00  0.00     0.019 A 
HETATM   21  C13 UNL     1      20.363   2.477  48.859  1.00  0.00     0.013 A 
HETATM   22 BR1  UNL     1      20.982   3.366  47.291  1.00  0.00    -0.051 Br
HETATM   23  C14 UNL     1      21.235   1.943  49.764  1.00  0.00     0.050 A 
ENDBRANCH   6  17
TORSDOF 3
ENDMDL
