MODEL 1
REMARK VINA RESULT:      -7.6      0.000      0.000
REMARK  4 active torsions:
REMARK  status: ('A' for Active; 'I' for Inactive)
REMARK    1  A    between atoms: O1_1  and  C1_2 
REMARK    2  A    between atoms: C5_6  and  N1_7 
REMARK    3  A    between atoms: N1_7  and  C6_8 
REMARK    4  A    between atoms: C6_8  and  N2_9 
ROOT
HETATM    1  C1  UNL     1      28.242  -2.510  53.103  1.00  0.00     0.116 A 
HETATM    2  C2  UNL     1      27.154  -2.047  52.391  1.00  0.00     0.028 A 
HETATM    3  C3  UNL     1      26.730  -0.671  52.142  1.00  0.00     0.047 A 
HETATM    4  C4  UNL     1      27.293   0.622  52.545  1.00  0.00     0.019 A 
HETATM    5  C5  UNL     1      26.984   1.956  52.371  1.00  0.00     0.135 A 
HETATM    6  N3  UNL     1      27.843   2.760  52.960  1.00  0.00    -0.224 NA
HETATM    7  C12 UNL     1      28.918   2.393  53.665  1.00  0.00     0.235 A 
HETATM    8  N4  UNL     1      29.256   1.101  53.861  1.00  0.00    -0.245 NA
HETATM    9  C13 UNL     1      28.442   0.145  53.297  1.00  0.00     0.060 A 
HETATM   10  C14 UNL     1      28.692  -1.275  53.431  1.00  0.00     0.075 A 
HETATM   11  O2  UNL     1      27.758  -1.281  52.811  1.00  0.00     0.000 OA
ENDROOT
BRANCH   5  12
HETATM   12  N1  UNL     1      25.830   1.977  51.604  1.00  0.00    -0.358 N 
HETATM   13  H3  UNL     1      25.563   1.820  50.643  1.00  0.00     0.162 HD
BRANCH  12  14
HETATM   14  C6  UNL     1      24.753   2.329  52.504  1.00  0.00     0.247 C 
BRANCH  14  15
HETATM   15  N2  UNL     1      23.560   1.498  52.301  1.00  0.00    -0.369 N 
HETATM   16  C7  UNL     1      23.225   0.562  53.319  1.00  0.00     0.111 A 
HETATM   17  C8  UNL     1      22.173  -0.197  53.181  1.00  0.00     0.049 A 
HETATM   18 CL1  UNL     1      21.683  -1.369  54.370  1.00  0.00    -0.083 Cl
HETATM   19  C9  UNL     1      21.313  -0.115  51.992  1.00  0.00     0.023 A 
HETATM   20  C10 UNL     1      21.636   0.762  51.048  1.00  0.00    -0.005 A 
HETATM   21  C11 UNL     1      22.788   1.682  51.065  1.00  0.00     0.151 A 
ENDBRANCH  14  15
ENDBRANCH  12  14
ENDBRANCH   5  12
BRANCH   1  22
HETATM   22  O1  UNL     1      28.758  -3.783  53.417  1.00  0.00    -0.384 OA
HETATM   23  H1  UNL     1      28.302  -4.624  53.625  1.00  0.00     0.210 HD
ENDBRANCH   1  22
TORSDOF 4
ENDMDL
MODEL 2
REMARK VINA RESULT:      -7.4      3.514      6.712
REMARK  4 active torsions:
REMARK  status: ('A' for Active; 'I' for Inactive)
REMARK    1  A    between atoms: O1_1  and  C1_2 
REMARK    2  A    between atoms: C5_6  and  N1_7 
REMARK    3  A    between atoms: N1_7  and  C6_8 
REMARK    4  A    between atoms: C6_8  and  N2_9 
ROOT
HETATM    1  C1  UNL     1      19.716  -1.006  53.792  1.00  0.00     0.116 A 
HETATM    2  C2  UNL     1      20.875  -1.614  54.227  1.00  0.00     0.028 A 
HETATM    3  C3  UNL     1      22.258  -1.158  54.110  1.00  0.00     0.047 A 
HETATM    4  C4  UNL     1      22.852   0.047  53.517  1.00  0.00     0.019 A 
HETATM    5  C5  UNL     1      24.118   0.571  53.352  1.00  0.00     0.135 A 
HETATM    6  N3  UNL     1      24.113   1.730  52.728  1.00  0.00    -0.224 NA
HETATM    7  C12 UNL     1      23.037   2.382  52.277  1.00  0.00     0.235 A 
HETATM    8  N4  UNL     1      21.783   1.905  52.416  1.00  0.00    -0.245 NA
HETATM    9  C13 UNL     1      21.636   0.695  53.054  1.00  0.00     0.060 A 
HETATM   10  C14 UNL     1      20.346   0.073  53.269  1.00  0.00     0.075 A 
HETATM   11  O2  UNL     1      21.028  -0.683  53.739  1.00  0.00     0.000 OA
ENDROOT
BRANCH   5  12
HETATM   12  N1  UNL     1      24.982  -0.346  53.928  1.00  0.00    -0.358 N 
HETATM   13  H3  UNL     1      25.164  -0.738  54.840  1.00  0.00     0.162 HD
BRANCH  12  14
HETATM   14  C6  UNL     1      25.825  -0.834  52.857  1.00  0.00     0.247 C 
BRANCH  14  15
HETATM   15  N2  UNL     1      27.254  -0.707  53.168  1.00  0.00    -0.369 N 
HETATM   16  C7  UNL     1      27.725   0.559  53.614  1.00  0.00     0.111 A 
HETATM   17  C8  UNL     1      28.987   0.718  53.902  1.00  0.00     0.049 A 
HETATM   18 CL1  UNL     1      29.655   2.226  54.455  1.00  0.00    -0.083 Cl
HETATM   19  C9  UNL     1      29.951  -0.385  53.776  1.00  0.00     0.023 A 
HETATM   20  C10 UNL     1      29.501  -1.562  53.358  1.00  0.00    -0.005 A 
HETATM   21  C11 UNL     1      28.109  -1.891  52.998  1.00  0.00     0.151 A 
ENDBRANCH  14  15
ENDBRANCH  12  14
ENDBRANCH   5  12
BRANCH   1  22
HETATM   22  O1  UNL     1      18.344  -1.328  53.838  1.00  0.00    -0.384 OA
HETATM   23  H1  UNL     1      17.797  -1.877  53.239  1.00  0.00     0.210 HD
ENDBRANCH   1  22
TORSDOF 4
ENDMDL
MODEL 3
REMARK VINA RESULT:      -7.3      3.667      5.158
REMARK  4 active torsions:
REMARK  status: ('A' for Active; 'I' for Inactive)
REMARK    1  A    between atoms: O1_1  and  C1_2 
REMARK    2  A    between atoms: C5_6  and  N1_7 
REMARK    3  A    between atoms: N1_7  and  C6_8 
REMARK    4  A    between atoms: C6_8  and  N2_9 
ROOT
HETATM    1  C1  UNL     1      28.722   0.058  53.802  1.00  0.00     0.116 A 
HETATM    2  C2  UNL     1      28.529   1.383  53.471  1.00  0.00     0.028 A 
HETATM    3  C3  UNL     1      27.284   2.091  53.180  1.00  0.00     0.047 A 
HETATM    4  C4  UNL     1      25.885   1.651  53.144  1.00  0.00     0.019 A 
HETATM    5  C5  UNL     1      24.654   2.220  52.887  1.00  0.00     0.135 A 
HETATM    6  N3  UNL     1      23.663   1.361  52.990  1.00  0.00    -0.224 NA
HETATM    7  C12 UNL     1      23.766   0.066  53.305  1.00  0.00     0.235 A 
HETATM    8  N4  UNL     1      24.949  -0.531  53.563  1.00  0.00    -0.245 NA
HETATM    9  C13 UNL     1      26.078   0.253  53.492  1.00  0.00     0.060 A 
HETATM   10  C14 UNL     1      27.407  -0.263  53.746  1.00  0.00     0.075 A 
HETATM   11  O2  UNL     1      27.635   0.810  53.516  1.00  0.00     0.000 OA
ENDROOT
BRANCH   5  12
HETATM   12  N1  UNL     1      24.908   3.551  52.600  1.00  0.00    -0.358 N 
HETATM   13  H3  UNL     1      25.349   4.345  53.043  1.00  0.00     0.162 HD
BRANCH  12  14
HETATM   14  C6  UNL     1      24.361   3.793  51.283  1.00  0.00     0.247 C 
BRANCH  14  15
HETATM   15  N2  UNL     1      25.338   4.407  50.375  1.00  0.00    -0.369 N 
HETATM   16  C7  UNL     1      25.201   5.795  50.096  1.00  0.00     0.111 A 
HETATM   17  C8  UNL     1      26.046   6.382  49.294  1.00  0.00     0.049 A 
HETATM   18 CL1  UNL     1      25.960   8.073  48.894  1.00  0.00    -0.083 Cl
HETATM   19  C9  UNL     1      27.149   5.644  48.662  1.00  0.00     0.023 A 
HETATM   20  C10 UNL     1      27.266   4.349  48.929  1.00  0.00    -0.005 A 
HETATM   21  C11 UNL     1      26.392   3.553  49.810  1.00  0.00     0.151 A 
ENDBRANCH  14  15
ENDBRANCH  12  14
ENDBRANCH   5  12
BRANCH   1  22
HETATM   22  O1  UNL     1      29.844  -0.741  54.101  1.00  0.00    -0.384 OA
HETATM   23  H1  UNL     1      30.043  -1.295  54.883  1.00  0.00     0.210 HD
ENDBRANCH   1  22
TORSDOF 4
ENDMDL
MODEL 4
REMARK VINA RESULT:      -7.2      3.735      6.868
REMARK  4 active torsions:
REMARK  status: ('A' for Active; 'I' for Inactive)
REMARK    1  A    between atoms: O1_1  and  C1_2 
REMARK    2  A    between atoms: C5_6  and  N1_7 
REMARK    3  A    between atoms: N1_7  and  C6_8 
REMARK    4  A    between atoms: C6_8  and  N2_9 
ROOT
HETATM    1  C1  UNL     1      19.112  -0.145  52.444  1.00  0.00     0.116 A 
HETATM    2  C2  UNL     1      20.123   0.576  51.843  1.00  0.00     0.028 A 
HETATM    3  C3  UNL     1      21.540   0.648  52.193  1.00  0.00     0.047 A 
HETATM    4  C4  UNL     1      22.328   0.005  53.252  1.00  0.00     0.019 A 
HETATM    5  C5  UNL     1      23.644  -0.001  53.668  1.00  0.00     0.135 A 
HETATM    6  N3  UNL     1      23.846  -0.775  54.712  1.00  0.00    -0.224 NA
HETATM    7  C12 UNL     1      22.923  -1.503  55.349  1.00  0.00     0.235 A 
HETATM    8  N4  UNL     1      21.626  -1.526  54.977  1.00  0.00    -0.245 NA
HETATM    9  C13 UNL     1      21.269  -0.758  53.891  1.00  0.00     0.060 A 
HETATM   10  C14 UNL     1      19.913  -0.693  53.389  1.00  0.00     0.075 A 
HETATM   11  O2  UNL     1      20.436  -0.004  52.677  1.00  0.00     0.000 OA
ENDROOT
BRANCH   5  12
HETATM   12  N1  UNL     1      24.316   0.846  52.801  1.00  0.00    -0.358 N 
HETATM   13  H3  UNL     1      24.235   1.793  52.461  1.00  0.00     0.162 HD
BRANCH  12  14
HETATM   14  C6  UNL     1      25.432   0.087  52.279  1.00  0.00     0.247 C 
BRANCH  14  15
HETATM   15  N2  UNL     1      26.721   0.552  52.807  1.00  0.00    -0.369 N 
HETATM   16  C7  UNL     1      27.726  -0.424  53.052  1.00  0.00     0.111 A 
HETATM   17  C8  UNL     1      28.887  -0.056  53.520  1.00  0.00     0.049 A 
HETATM   18 CL1  UNL     1      30.178  -1.176  53.851  1.00  0.00    -0.083 Cl
HETATM   19  C9  UNL     1      29.191   1.353  53.808  1.00  0.00     0.023 A 
HETATM   20  C10 UNL     1      28.245   2.255  53.576  1.00  0.00    -0.005 A 
HETATM   21  C11 UNL     1      26.892   1.991  53.050  1.00  0.00     0.151 A 
ENDBRANCH  14  15
ENDBRANCH  12  14
ENDBRANCH   5  12
BRANCH   1  22
HETATM   22  O1  UNL     1      17.730  -0.302  52.215  1.00  0.00    -0.384 OA
HETATM   23  H1  UNL     1      17.077  -0.900  52.633  1.00  0.00     0.210 HD
ENDBRANCH   1  22
TORSDOF 4
ENDMDL
MODEL 5
REMARK VINA RESULT:      -7.0      4.186      5.686
REMARK  4 active torsions:
REMARK  status: ('A' for Active; 'I' for Inactive)
REMARK    1  A    between atoms: O1_1  and  C1_2 
REMARK    2  A    between atoms: C5_6  and  N1_7 
REMARK    3  A    between atoms: N1_7  and  C6_8 
REMARK    4  A    between atoms: C6_8  and  N2_9 
ROOT
HETATM    1  C1  UNL     1      21.899  -1.082  54.285  1.00  0.00     0.116 A 
HETATM    2  C2  UNL     1      21.878  -0.156  53.262  1.00  0.00     0.028 A 
HETATM    3  C3  UNL     1      22.992   0.545  52.629  1.00  0.00     0.047 A 
HETATM    4  C4  UNL     1      24.442   0.502  52.856  1.00  0.00     0.019 A 
HETATM    5  C5  UNL     1      25.564   1.108  52.329  1.00  0.00     0.135 A 
HETATM    6  N3  UNL     1      26.677   0.710  52.906  1.00  0.00    -0.224 NA
HETATM    7  C12 UNL     1      26.781  -0.179  53.899  1.00  0.00     0.235 A 
HETATM    8  N4  UNL     1      25.711  -0.794  54.443  1.00  0.00    -0.245 NA
HETATM    9  C13 UNL     1      24.474  -0.472  53.934  1.00  0.00     0.060 A 
HETATM   10  C14 UNL     1      23.245  -1.059  54.428  1.00  0.00     0.075 A 
HETATM   11  O2  UNL     1      22.850  -0.379  53.630  1.00  0.00     0.000 OA
ENDROOT
BRANCH   5  12
HETATM   12  N1  UNL     1      25.102   1.956  51.336  1.00  0.00    -0.358 N 
HETATM   13  H3  UNL     1      24.216   2.280  50.975  1.00  0.00     0.162 HD
BRANCH  12  14
HETATM   14  C6  UNL     1      26.276   2.487  50.678  1.00  0.00     0.247 C 
BRANCH  14  15
HETATM   15  N2  UNL     1      26.010   3.761  49.999  1.00  0.00    -0.369 N 
HETATM   16  C7  UNL     1      27.099   4.402  49.345  1.00  0.00     0.111 A 
HETATM   17  C8  UNL     1      26.909   5.536  48.729  1.00  0.00     0.049 A 
HETATM   18 CL1  UNL     1      28.176   6.394  47.902  1.00  0.00    -0.083 Cl
HETATM   19  C9  UNL     1      25.588   6.181  48.690  1.00  0.00     0.023 A 
HETATM   20  C10 UNL     1      24.579   5.573  49.304  1.00  0.00    -0.005 A 
HETATM   21  C11 UNL     1      24.642   4.295  50.037  1.00  0.00     0.151 A 
ENDBRANCH  14  15
ENDBRANCH  12  14
ENDBRANCH   5  12
BRANCH   1  22
HETATM   22  O1  UNL     1      20.919  -1.822  54.979  1.00  0.00    -0.384 OA
HETATM   23  H1  UNL     1      20.364  -1.582  55.748  1.00  0.00     0.210 HD
ENDBRANCH   1  22
TORSDOF 4
ENDMDL
MODEL 6
REMARK VINA RESULT:      -6.9      3.429      5.136
REMARK  4 active torsions:
REMARK  status: ('A' for Active; 'I' for Inactive)
REMARK    1  A    between atoms: O1_1  and  C1_2 
REMARK    2  A    between atoms: C5_6  and  N1_7 
REMARK    3  A    between atoms: N1_7  and  C6_8 
REMARK    4  A    between atoms: C6_8  and  N2_9 
ROOT
HETATM    1  C1  UNL     1      27.207  -0.300  53.577  1.00  0.00     0.116 A 
HETATM    2  C2  UNL     1      27.076   0.606  52.545  1.00  0.00     0.028 A 
HETATM    3  C3  UNL     1      25.861   1.150  51.941  1.00  0.00     0.047 A 
HETATM    4  C4  UNL     1      24.437   0.926  52.219  1.00  0.00     0.019 A 
HETATM    5  C5  UNL     1      23.230   1.375  51.723  1.00  0.00     0.135 A 
HETATM    6  N3  UNL     1      22.196   0.847  52.342  1.00  0.00    -0.224 NA
HETATM    7  C12 UNL     1      22.239  -0.034  53.347  1.00  0.00     0.235 A 
HETATM    8  N4  UNL     1      23.396  -0.499  53.861  1.00  0.00    -0.245 NA
HETATM    9  C13 UNL     1      24.565  -0.029  53.307  1.00  0.00     0.060 A 
HETATM   10  C14 UNL     1      25.874  -0.447  53.765  1.00  0.00     0.075 A 
HETATM   11  O2  UNL     1      26.153   0.265  52.947  1.00  0.00     0.000 OA
ENDROOT
BRANCH   5  12
HETATM   12  N1  UNL     1      23.548   2.262  50.707  1.00  0.00    -0.358 N 
HETATM   13  H3  UNL     1      23.977   2.237  49.794  1.00  0.00     0.162 HD
BRANCH  12  14
HETATM   14  C6  UNL     1      23.108   3.565  51.157  1.00  0.00     0.247 C 
BRANCH  14  15
HETATM   15  N2  UNL     1      24.025   4.637  50.748  1.00  0.00    -0.369 N 
HETATM   16  C7  UNL     1      25.153   4.278  49.959  1.00  0.00     0.111 A 
HETATM   17  C8  UNL     1      25.994   5.197  49.573  1.00  0.00     0.049 A 
HETATM   18 CL1  UNL     1      27.400   4.855  48.607  1.00  0.00    -0.083 Cl
HETATM   19  C9  UNL     1      25.812   6.610  49.935  1.00  0.00     0.023 A 
HETATM   20  C10 UNL     1      24.756   6.934  50.673  1.00  0.00    -0.005 A 
HETATM   21  C11 UNL     1      23.725   6.009  51.180  1.00  0.00     0.151 A 
ENDBRANCH  14  15
ENDBRANCH  12  14
ENDBRANCH   5  12
BRANCH   1  22
HETATM   22  O1  UNL     1      28.295  -0.899  54.245  1.00  0.00    -0.384 OA
HETATM   23  H1  UNL     1      29.224  -0.606  54.342  1.00  0.00     0.210 HD
ENDBRANCH   1  22
TORSDOF 4
ENDMDL
MODEL 7
REMARK VINA RESULT:      -6.8      3.115      4.197
REMARK  4 active torsions:
REMARK  status: ('A' for Active; 'I' for Inactive)
REMARK    1  A    between atoms: O1_1  and  C1_2 
REMARK    2  A    between atoms: C5_6  and  N1_7 
REMARK    3  A    between atoms: N1_7  and  C6_8 
REMARK    4  A    between atoms: C6_8  and  N2_9 
ROOT
HETATM    1  C1  UNL     1      28.079   1.941  53.184  1.00  0.00     0.116 A 
HETATM    2  C2  UNL     1      27.008   2.138  52.337  1.00  0.00     0.028 A 
HETATM    3  C3  UNL     1      25.674   1.544  52.381  1.00  0.00     0.047 A 
HETATM    4  C4  UNL     1      25.052   0.583  53.300  1.00  0.00     0.019 A 
HETATM    5  C5  UNL     1      23.825  -0.035  53.436  1.00  0.00     0.135 A 
HETATM    6  N3  UNL     1      23.774  -0.845  54.471  1.00  0.00    -0.224 NA
HETATM    7  C12 UNL     1      24.763  -1.089  55.336  1.00  0.00     0.235 A 
HETATM    8  N4  UNL     1      25.977  -0.508  55.240  1.00  0.00    -0.245 NA
HETATM    9  C13 UNL     1      26.174   0.369  54.198  1.00  0.00     0.060 A 
HETATM   10  C14 UNL     1      27.429   1.060  53.982  1.00  0.00     0.075 A 
HETATM   11  O2  UNL     1      26.819   1.454  53.128  1.00  0.00     0.000 OA
ENDROOT
BRANCH   5  12
HETATM   12  N1  UNL     1      23.049   0.438  52.390  1.00  0.00    -0.358 N 
HETATM   13  H3  UNL     1      23.099   0.498  51.384  1.00  0.00     0.162 HD
BRANCH  12  14
HETATM   14  C6  UNL     1      21.849   0.981  52.991  1.00  0.00     0.247 C 
BRANCH  14  15
HETATM   15  N2  UNL     1      21.464   2.271  52.405  1.00  0.00    -0.369 N 
HETATM   16  C7  UNL     1      22.489   3.235  52.196  1.00  0.00     0.111 A 
HETATM   17  C8  UNL     1      22.193   4.395  51.678  1.00  0.00     0.049 A 
HETATM   18 CL1  UNL     1      23.377   5.637  51.385  1.00  0.00    -0.083 Cl
HETATM   19  C9  UNL     1      20.816   4.742  51.300  1.00  0.00     0.023 A 
HETATM   20  C10 UNL     1      19.867   3.834  51.500  1.00  0.00    -0.005 A 
HETATM   21  C11 UNL     1      20.049   2.488  52.073  1.00  0.00     0.151 A 
ENDBRANCH  14  15
ENDBRANCH  12  14
ENDBRANCH   5  12
BRANCH   1  22
HETATM   22  O1  UNL     1      29.396   2.437  53.256  1.00  0.00    -0.384 OA
HETATM   23  H1  UNL     1      29.977   2.597  54.028  1.00  0.00     0.210 HD
ENDBRANCH   1  22
TORSDOF 4
ENDMDL
MODEL 8
REMARK VINA RESULT:      -6.8      4.272      6.801
REMARK  4 active torsions:
REMARK  status: ('A' for Active; 'I' for Inactive)
REMARK    1  A    between atoms: O1_1  and  C1_2 
REMARK    2  A    between atoms: C5_6  and  N1_7 
REMARK    3  A    between atoms: N1_7  and  C6_8 
REMARK    4  A    between atoms: C6_8  and  N2_9 
ROOT
HETATM    1  C1  UNL     1      27.106   6.273  48.382  1.00  0.00     0.116 A 
HETATM    2  C2  UNL     1      27.468   4.959  48.597  1.00  0.00     0.028 A 
HETATM    3  C3  UNL     1      26.851   3.962  49.469  1.00  0.00     0.047 A 
HETATM    4  C4  UNL     1      25.692   4.019  50.368  1.00  0.00     0.019 A 
HETATM    5  C5  UNL     1      25.034   3.158  51.222  1.00  0.00     0.135 A 
HETATM    6  N3  UNL     1      24.007   3.721  51.822  1.00  0.00    -0.224 NA
HETATM    7  C12 UNL     1      23.593   4.983  51.669  1.00  0.00     0.235 A 
HETATM    8  N4  UNL     1      24.208   5.858  50.846  1.00  0.00    -0.245 NA
HETATM    9  C13 UNL     1      25.304   5.403  50.149  1.00  0.00     0.060 A 
HETATM   10  C14 UNL     1      26.053   6.239  49.233  1.00  0.00     0.075 A 
HETATM   11  O2  UNL     1      26.618   5.275  49.153  1.00  0.00     0.000 OA
ENDROOT
BRANCH   5  12
HETATM   12  N1  UNL     1      25.715   1.954  51.139  1.00  0.00    -0.358 N 
HETATM   13  H3  UNL     1      26.213   1.419  50.444  1.00  0.00     0.162 HD
BRANCH  12  14
HETATM   14  C6  UNL     1      25.648   1.361  52.458  1.00  0.00     0.247 C 
BRANCH  14  15
HETATM   15  N2  UNL     1      26.967   0.948  52.953  1.00  0.00    -0.369 N 
HETATM   16  C7  UNL     1      27.317  -0.426  52.836  1.00  0.00     0.111 A 
HETATM   17  C8  UNL     1      28.479  -0.838  53.262  1.00  0.00     0.049 A 
HETATM   18 CL1  UNL     1      28.996  -2.496  53.162  1.00  0.00    -0.083 Cl
HETATM   19  C9  UNL     1      29.449   0.084  53.869  1.00  0.00     0.023 A 
HETATM   20  C10 UNL     1      29.111   1.364  53.974  1.00  0.00    -0.005 A 
HETATM   21  C11 UNL     1      27.841   1.974  53.538  1.00  0.00     0.151 A 
ENDBRANCH  14  15
ENDBRANCH  12  14
ENDBRANCH   5  12
BRANCH   1  22
HETATM   22  O1  UNL     1      27.602   7.325  47.585  1.00  0.00    -0.384 OA
HETATM   23  H1  UNL     1      28.054   8.157  47.835  1.00  0.00     0.210 HD
ENDBRANCH   1  22
TORSDOF 4
ENDMDL
MODEL 9
REMARK VINA RESULT:      -6.7      2.866      4.386
REMARK  4 active torsions:
REMARK  status: ('A' for Active; 'I' for Inactive)
REMARK    1  A    between atoms: O1_1  and  C1_2 
REMARK    2  A    between atoms: C5_6  and  N1_7 
REMARK    3  A    between atoms: N1_7  and  C6_8 
REMARK    4  A    between atoms: C6_8  and  N2_9 
ROOT
HETATM    1  C1  UNL     1      26.436   3.232  50.594  1.00  0.00     0.116 A 
HETATM    2  C2  UNL     1      25.160   3.245  51.122  1.00  0.00     0.028 A 
HETATM    3  C3  UNL     1      24.520   2.281  52.014  1.00  0.00     0.047 A 
HETATM    4  C4  UNL     1      24.996   1.034  52.623  1.00  0.00     0.019 A 
HETATM    5  C5  UNL     1      24.490   0.064  53.464  1.00  0.00     0.135 A 
HETATM    6  N3  UNL     1      25.357  -0.892  53.721  1.00  0.00    -0.224 NA
HETATM    7  C12 UNL     1      26.605  -0.977  53.251  1.00  0.00     0.235 A 
HETATM    8  N4  UNL     1      27.140  -0.052  52.427  1.00  0.00    -0.245 NA
HETATM    9  C13 UNL     1      26.342   1.012  52.073  1.00  0.00     0.060 A 
HETATM   10  C14 UNL     1      26.793   2.072  51.196  1.00  0.00     0.075 A 
HETATM   11  O2  UNL     1      25.747   2.409  51.416  1.00  0.00     0.000 OA
ENDROOT
BRANCH   5  12
HETATM   12  N1  UNL     1      23.194   0.458  53.754  1.00  0.00    -0.358 N 
HETATM   13  H3  UNL     1      22.716   1.281  54.092  1.00  0.00     0.162 HD
BRANCH  12  14
HETATM   14  C6  UNL     1      22.351  -0.682  53.466  1.00  0.00     0.247 C 
BRANCH  14  15
HETATM   15  N2  UNL     1      21.155  -0.314  52.698  1.00  0.00    -0.369 N 
HETATM   16  C7  UNL     1      21.346   0.282  51.420  1.00  0.00     0.111 A 
HETATM   17  C8  UNL     1      20.312   0.624  50.702  1.00  0.00     0.049 A 
HETATM   18 CL1  UNL     1      20.446   1.358  49.130  1.00  0.00    -0.083 Cl
HETATM   19  C9  UNL     1      18.938   0.413  51.180  1.00  0.00     0.023 A 
HETATM   20  C10 UNL     1      18.772  -0.142  52.374  1.00  0.00    -0.005 A 
HETATM   21  C11 UNL     1      19.838  -0.580  53.294  1.00  0.00     0.151 A 
ENDBRANCH  14  15
ENDBRANCH  12  14
ENDBRANCH   5  12
BRANCH   1  22
HETATM   22  O1  UNL     1      27.167   4.079  49.738  1.00  0.00    -0.384 OA
HETATM   23  H1  UNL     1      26.924   4.486  48.881  1.00  0.00     0.210 HD
ENDBRANCH   1  22
TORSDOF 4
ENDMDL
