MODEL 1
REMARK VINA RESULT:      -7.8      0.000      0.000
REMARK  5 active torsions:
REMARK  status: ('A' for Active; 'I' for Inactive)
REMARK    1  A    between atoms: C2_2  and  O1_3 
REMARK    2  A    between atoms: O1_3  and  C3_4 
REMARK    3  A    between atoms: C3_4  and  C4_6 
REMARK    4  A    between atoms: C5_7  and  C6_8 
REMARK       I    between atoms: C6_8  and  N1_10 
REMARK    5  A    between atoms: N1_10  and  C7_11 
ROOT
HETATM    1  C7  UNL     1      20.709   0.075  53.190  1.00  0.00     0.033 C 
HETATM    2  C8  UNL     1      19.966  -0.903  53.750  1.00  0.00     0.006 C 
HETATM    3  C9  UNL     1      18.662  -0.791  53.115  1.00  0.00     0.023 C 
HETATM    4  C10 UNL     1      17.435  -1.266  53.042  1.00  0.00     0.002 C 
HETATM    5  C11 UNL     1      16.429  -0.726  52.134  1.00  0.00     0.033 C 
HETATM    6  C12 UNL     1      15.218  -0.146  52.779  1.00  0.00    -0.026 C 
HETATM    7  C13 UNL     1      14.435   0.914  52.924  1.00  0.00    -0.003 C 
HETATM    8  C14 UNL     1      14.399   2.259  52.406  1.00  0.00     0.017 C 
HETATM    9  C15 UNL     1      14.927   3.131  51.650  1.00  0.00     0.089 C 
HETATM   10  N2  UNL     1      16.009   3.232  50.780  1.00  0.00    -0.355 N 
HETATM   11  C16 UNL     1      16.930   3.923  49.994  1.00  0.00     0.099 C 
HETATM   12  C17 UNL     1      16.386   4.615  48.828  1.00  0.00     0.091 C 
HETATM   13  N3  UNL     1      18.190   4.119  50.015  1.00  0.00    -0.246 NA
HETATM   14  C18 UNL     1      19.054   3.589  51.001  1.00  0.00     0.142 C 
HETATM   15  C19 UNL     1      19.885   3.407  52.002  1.00  0.00     0.154 C 
HETATM   16  O4  UNL     1      20.575   2.424  52.698  1.00  0.00    -0.356 OA
HETATM   17  C20 UNL     1      20.378   1.116  52.199  1.00  0.00     0.231 C 
HETATM   18  H18 UNL     1      16.413   2.323  50.505  1.00  0.00     0.166 HD
ENDROOT
BRANCH   1  19
HETATM   19  N1  UNL     1      22.063   0.363  53.488  1.00  0.00    -0.325 N 
HETATM   20  C6  UNL     1      23.274  -0.373  53.371  1.00  0.00     0.245 C 
HETATM   21  O3  UNL     1      23.165  -1.539  52.905  1.00  0.00    -0.268 OA
HETATM   22  H8  UNL     1      21.985   1.336  53.854  1.00  0.00     0.169 HD
BRANCH  20  23
HETATM   23  C5  UNL     1      24.515   0.243  53.779  1.00  0.00     0.080 C 
HETATM   24  C4  UNL     1      25.627  -0.370  54.150  1.00  0.00     0.088 C 
BRANCH  24  25
HETATM   25  C3  UNL     1      26.814   0.371  54.540  1.00  0.00     0.283 C 
HETATM   26  O2  UNL     1      26.760   1.638  54.515  1.00  0.00    -0.260 OA
BRANCH  25  27
HETATM   27  O1  UNL     1      27.956  -0.292  54.922  1.00  0.00    -0.319 OA
BRANCH  27  28
HETATM   28  C2  UNL     1      29.183  -0.191  54.248  1.00  0.00     0.174 C 
HETATM   29  C1  UNL     1      29.368  -1.440  53.409  1.00  0.00     0.034 C 
ENDBRANCH  27  28
ENDBRANCH  25  27
ENDBRANCH  24  25
ENDBRANCH  20  23
ENDBRANCH   1  19
TORSDOF 5
ENDMDL
MODEL 2
REMARK VINA RESULT:      -7.8      5.804      7.679
REMARK  5 active torsions:
REMARK  status: ('A' for Active; 'I' for Inactive)
REMARK    1  A    between atoms: C2_2  and  O1_3 
REMARK    2  A    between atoms: O1_3  and  C3_4 
REMARK    3  A    between atoms: C3_4  and  C4_6 
REMARK    4  A    between atoms: C5_7  and  C6_8 
REMARK       I    between atoms: C6_8  and  N1_10 
REMARK    5  A    between atoms: N1_10  and  C7_11 
ROOT
HETATM    1  C7  UNL     1      25.611   3.141  50.997  1.00  0.00     0.033 C 
HETATM    2  C8  UNL     1      26.436   2.448  51.810  1.00  0.00     0.006 C 
HETATM    3  C9  UNL     1      25.666   1.282  52.218  1.00  0.00     0.023 C 
HETATM    4  C10 UNL     1      25.651   0.175  52.933  1.00  0.00     0.002 C 
HETATM    5  C11 UNL     1      24.500  -0.720  52.983  1.00  0.00     0.033 C 
HETATM    6  C12 UNL     1      23.874  -0.897  54.323  1.00  0.00    -0.026 C 
HETATM    7  C13 UNL     1      22.772  -0.811  55.055  1.00  0.00    -0.003 C 
HETATM    8  C14 UNL     1      21.399  -0.437  54.828  1.00  0.00     0.017 C 
HETATM    9  C15 UNL     1      20.516  -0.047  54.003  1.00  0.00     0.089 C 
HETATM   10  N2  UNL     1      20.427   0.265  52.649  1.00  0.00    -0.355 N 
HETATM   11  C16 UNL     1      19.814   0.812  51.523  1.00  0.00     0.099 C 
HETATM   12  C17 UNL     1      18.577   0.166  51.089  1.00  0.00     0.091 C 
HETATM   13  N3  UNL     1      20.058   1.772  50.720  1.00  0.00    -0.246 NA
HETATM   14  C18 UNL     1      21.186   2.619  50.823  1.00  0.00     0.142 C 
HETATM   15  C19 UNL     1      22.011   3.627  50.994  1.00  0.00     0.154 C 
HETATM   16  O4  UNL     1      23.356   3.971  50.954  1.00  0.00    -0.356 OA
HETATM   17  C20 UNL     1      24.214   2.909  50.586  1.00  0.00     0.231 C 
HETATM   18  H18 UNL     1      21.225  -0.070  52.088  1.00  0.00     0.166 HD
ENDROOT
BRANCH   1  19
HETATM   19  N1  UNL     1      25.918   4.359  50.346  1.00  0.00    -0.325 N 
HETATM   20  C6  UNL     1      26.803   4.717  49.293  1.00  0.00     0.245 C 
HETATM   21  O3  UNL     1      27.482   3.774  48.803  1.00  0.00    -0.268 OA
HETATM   22  H8  UNL     1      25.292   5.022  50.854  1.00  0.00     0.169 HD
BRANCH  20  23
HETATM   23  C5  UNL     1      26.868   6.094  48.862  1.00  0.00     0.080 C 
HETATM   24  C4  UNL     1      27.820   6.661  48.140  1.00  0.00     0.088 C 
BRANCH  24  25
HETATM   25  C3  UNL     1      27.765   8.065  47.772  1.00  0.00     0.283 C 
HETATM   26  O2  UNL     1      26.730   8.483  47.170  1.00  0.00    -0.260 OA
BRANCH  25  27
HETATM   27  O1  UNL     1      28.810   8.906  48.073  1.00  0.00    -0.319 OA
BRANCH  27  28
HETATM   28  C2  UNL     1      29.133   9.320  49.376  1.00  0.00     0.174 C 
HETATM   29  C1  UNL     1      30.612   9.649  49.415  1.00  0.00     0.034 C 
ENDBRANCH  27  28
ENDBRANCH  25  27
ENDBRANCH  24  25
ENDBRANCH  20  23
ENDBRANCH   1  19
TORSDOF 5
ENDMDL
MODEL 3
REMARK VINA RESULT:      -7.5      5.704      8.086
REMARK  5 active torsions:
REMARK  status: ('A' for Active; 'I' for Inactive)
REMARK    1  A    between atoms: C2_2  and  O1_3 
REMARK    2  A    between atoms: O1_3  and  C3_4 
REMARK    3  A    between atoms: C3_4  and  C4_6 
REMARK    4  A    between atoms: C5_7  and  C6_8 
REMARK       I    between atoms: C6_8  and  N1_10 
REMARK    5  A    between atoms: N1_10  and  C7_11 
ROOT
HETATM    1  C7  UNL     1      25.812   3.215  50.865  1.00  0.00     0.033 C 
HETATM    2  C8  UNL     1      26.702   2.536  51.618  1.00  0.00     0.006 C 
HETATM    3  C9  UNL     1      25.987   1.347  52.059  1.00  0.00     0.023 C 
HETATM    4  C10 UNL     1      26.043   0.233  52.761  1.00  0.00     0.002 C 
HETATM    5  C11 UNL     1      24.920  -0.692  52.870  1.00  0.00     0.033 C 
HETATM    6  C12 UNL     1      24.380  -0.897  54.243  1.00  0.00    -0.026 C 
HETATM    7  C13 UNL     1      23.322  -0.847  55.041  1.00  0.00    -0.003 C 
HETATM    8  C14 UNL     1      21.929  -0.505  54.901  1.00  0.00     0.017 C 
HETATM    9  C15 UNL     1      20.989  -0.131  54.135  1.00  0.00     0.089 C 
HETATM   10  N2  UNL     1      20.810   0.192  52.793  1.00  0.00    -0.355 N 
HETATM   11  C16 UNL     1      20.117   0.734  51.711  1.00  0.00     0.099 C 
HETATM   12  C17 UNL     1      18.873   0.060  51.346  1.00  0.00     0.091 C 
HETATM   13  N3  UNL     1      20.288   1.707  50.905  1.00  0.00    -0.246 NA
HETATM   14  C18 UNL     1      21.399   2.582  50.950  1.00  0.00     0.142 C 
HETATM   15  C19 UNL     1      22.207   3.609  51.082  1.00  0.00     0.154 C 
HETATM   16  O4  UNL     1      23.538   3.987  50.966  1.00  0.00    -0.356 OA
HETATM   17  C20 UNL     1      24.399   2.951  50.536  1.00  0.00     0.231 C 
HETATM   18  H18 UNL     1      21.582  -0.117  52.180  1.00  0.00     0.166 HD
ENDROOT
BRANCH   1  19
HETATM   19  N1  UNL     1      26.048   4.447  50.209  1.00  0.00    -0.325 N 
HETATM   20  C6  UNL     1      26.919   4.854  49.162  1.00  0.00     0.245 C 
HETATM   21  O3  UNL     1      27.660   3.952  48.683  1.00  0.00    -0.268 OA
HETATM   22  H8  UNL     1      25.378   5.072  50.708  1.00  0.00     0.169 HD
BRANCH  20  23
HETATM   23  C5  UNL     1      26.903   6.230  48.725  1.00  0.00     0.080 C 
HETATM   24  C4  UNL     1      27.932   6.948  48.306  1.00  0.00     0.088 C 
BRANCH  24  25
HETATM   25  C3  UNL     1      27.779   8.332  47.891  1.00  0.00     0.283 C 
HETATM   26  O2  UNL     1      28.829   9.024  47.728  1.00  0.00    -0.260 OA
BRANCH  25  27
HETATM   27  O1  UNL     1      26.528   8.863  47.685  1.00  0.00    -0.319 OA
BRANCH  27  28
HETATM   28  C2  UNL     1      25.976   9.099  46.415  1.00  0.00     0.174 C 
HETATM   29  C1  UNL     1      24.845   8.114  46.200  1.00  0.00     0.034 C 
ENDBRANCH  27  28
ENDBRANCH  25  27
ENDBRANCH  24  25
ENDBRANCH  20  23
ENDBRANCH   1  19
TORSDOF 5
ENDMDL
MODEL 4
REMARK VINA RESULT:      -7.5      5.565      8.246
REMARK  5 active torsions:
REMARK  status: ('A' for Active; 'I' for Inactive)
REMARK    1  A    between atoms: C2_2  and  O1_3 
REMARK    2  A    between atoms: O1_3  and  C3_4 
REMARK    3  A    between atoms: C3_4  and  C4_6 
REMARK    4  A    between atoms: C5_7  and  C6_8 
REMARK       I    between atoms: C6_8  and  N1_10 
REMARK    5  A    between atoms: N1_10  and  C7_11 
ROOT
HETATM    1  C7  UNL     1      25.875   4.013  50.171  1.00  0.00     0.033 C 
HETATM    2  C8  UNL     1      26.924   4.301  49.372  1.00  0.00     0.006 C 
HETATM    3  C9  UNL     1      26.640   5.630  48.850  1.00  0.00     0.023 C 
HETATM    4  C10 UNL     1      27.051   6.612  48.073  1.00  0.00     0.002 C 
HETATM    5  C11 UNL     1      26.301   7.851  47.899  1.00  0.00     0.033 C 
HETATM    6  C12 UNL     1      25.831   8.136  46.515  1.00  0.00    -0.026 C 
HETATM    7  C13 UNL     1      24.799   8.393  45.722  1.00  0.00    -0.003 C 
HETATM    8  C14 UNL     1      23.376   8.550  45.885  1.00  0.00     0.017 C 
HETATM    9  C15 UNL     1      22.383   8.566  46.675  1.00  0.00     0.089 C 
HETATM   10  N2  UNL     1      22.137   8.410  48.036  1.00  0.00    -0.355 N 
HETATM   11  C16 UNL     1      21.327   8.205  49.153  1.00  0.00     0.099 C 
HETATM   12  C17 UNL     1      20.390   9.281  49.470  1.00  0.00     0.091 C 
HETATM   13  N3  UNL     1      21.179   7.286  50.024  1.00  0.00    -0.246 NA
HETATM   14  C18 UNL     1      21.930   6.088  50.040  1.00  0.00     0.142 C 
HETATM   15  C19 UNL     1      22.343   4.842  49.980  1.00  0.00     0.154 C 
HETATM   16  O4  UNL     1      23.472   4.046  50.123  1.00  0.00    -0.356 OA
HETATM   17  C20 UNL     1      24.640   4.758  50.481  1.00  0.00     0.231 C 
HETATM   18  H18 UNL     1      22.981   8.480  48.626  1.00  0.00     0.166 HD
ENDROOT
BRANCH   1  19
HETATM   19  N1  UNL     1      25.699   2.818  50.910  1.00  0.00    -0.325 N 
HETATM   20  C6  UNL     1      26.532   2.071  51.786  1.00  0.00     0.245 C 
HETATM   21  O3  UNL     1      27.688   2.538  51.975  1.00  0.00    -0.268 OA
HETATM   22  H8  UNL     1      24.720   2.565  50.653  1.00  0.00     0.169 HD
BRANCH  20  23
HETATM   23  C5  UNL     1      26.020   0.862  52.388  1.00  0.00     0.080 C 
HETATM   24  C4  UNL     1      25.006   0.756  53.231  1.00  0.00     0.088 C 
BRANCH  24  25
HETATM   25  C3  UNL     1      24.588  -0.528  53.766  1.00  0.00     0.283 C 
HETATM   26  O2  UNL     1      25.315  -1.068  54.654  1.00  0.00    -0.260 OA
BRANCH  25  27
HETATM   27  O1  UNL     1      23.438  -1.131  53.315  1.00  0.00    -0.319 OA
BRANCH  27  28
HETATM   28  C2  UNL     1      22.159  -0.562  53.429  1.00  0.00     0.174 C 
HETATM   29  C1  UNL     1      21.477  -1.170  54.638  1.00  0.00     0.034 C 
ENDBRANCH  27  28
ENDBRANCH  25  27
ENDBRANCH  24  25
ENDBRANCH  20  23
ENDBRANCH   1  19
TORSDOF 5
ENDMDL
MODEL 5
REMARK VINA RESULT:      -7.3      4.303      6.525
REMARK  5 active torsions:
REMARK  status: ('A' for Active; 'I' for Inactive)
REMARK    1  A    between atoms: C2_2  and  O1_3 
REMARK    2  A    between atoms: O1_3  and  C3_4 
REMARK    3  A    between atoms: C3_4  and  C4_6 
REMARK    4  A    between atoms: C5_7  and  C6_8 
REMARK       I    between atoms: C6_8  and  N1_10 
REMARK    5  A    between atoms: N1_10  and  C7_11 
ROOT
HETATM    1  C7  UNL     1      24.383   3.688  50.382  1.00  0.00     0.033 C 
HETATM    2  C8  UNL     1      25.171   4.679  49.914  1.00  0.00     0.006 C 
HETATM    3  C9  UNL     1      24.310   5.458  49.036  1.00  0.00     0.023 C 
HETATM    4  C10 UNL     1      24.223   6.492  48.224  1.00  0.00     0.002 C 
HETATM    5  C11 UNL     1      22.989   6.858  47.538  1.00  0.00     0.033 C 
HETATM    6  C12 UNL     1      23.038   6.819  46.050  1.00  0.00    -0.026 C 
HETATM    7  C13 UNL     1      22.517   6.329  44.933  1.00  0.00    -0.003 C 
HETATM    8  C14 UNL     1      21.440   5.433  44.593  1.00  0.00     0.017 C 
HETATM    9  C15 UNL     1      20.489   4.697  44.999  1.00  0.00     0.089 C 
HETATM   10  N2  UNL     1      19.906   4.328  46.208  1.00  0.00    -0.355 N 
HETATM   11  C16 UNL     1      19.090   3.545  47.024  1.00  0.00     0.099 C 
HETATM   12  C17 UNL     1      17.654   3.632  46.767  1.00  0.00     0.091 C 
HETATM   13  N3  UNL     1      19.268   2.733  47.991  1.00  0.00    -0.246 NA
HETATM   14  C18 UNL     1      20.537   2.407  48.524  1.00  0.00     0.142 C 
HETATM   15  C19 UNL     1      21.652   1.815  48.889  1.00  0.00     0.154 C 
HETATM   16  O4  UNL     1      22.845   2.031  49.565  1.00  0.00    -0.356 OA
HETATM   17  C20 UNL     1      22.979   3.333  50.100  1.00  0.00     0.231 C 
HETATM   18  H18 UNL     1      20.169   4.933  47.003  1.00  0.00     0.166 HD
ENDROOT
BRANCH   1  19
HETATM   19  N1  UNL     1      24.776   2.670  51.282  1.00  0.00    -0.325 N 
HETATM   20  C6  UNL     1      24.757   2.546  52.698  1.00  0.00     0.245 C 
HETATM   21  O3  UNL     1      24.297   3.537  53.329  1.00  0.00    -0.268 OA
HETATM   22  H8  UNL     1      25.125   1.941  50.622  1.00  0.00     0.169 HD
BRANCH  20  23
HETATM   23  C5  UNL     1      25.249   1.333  53.308  1.00  0.00     0.080 C 
HETATM   24  C4  UNL     1      26.175   1.229  54.246  1.00  0.00     0.088 C 
BRANCH  24  25
HETATM   25  C3  UNL     1      26.582  -0.061  54.778  1.00  0.00     0.283 C 
HETATM   26  O2  UNL     1      25.699  -0.780  55.335  1.00  0.00    -0.260 OA
BRANCH  25  27
HETATM   27  O1  UNL     1      27.888  -0.477  54.675  1.00  0.00    -0.319 OA
BRANCH  27  28
HETATM   28  C2  UNL     1      28.951   0.363  54.305  1.00  0.00     0.174 C 
HETATM   29  C1  UNL     1      29.990  -0.475  53.587  1.00  0.00     0.034 C 
ENDBRANCH  27  28
ENDBRANCH  25  27
ENDBRANCH  24  25
ENDBRANCH  20  23
ENDBRANCH   1  19
TORSDOF 5
ENDMDL
MODEL 6
REMARK VINA RESULT:      -7.2      3.335      8.834
REMARK  5 active torsions:
REMARK  status: ('A' for Active; 'I' for Inactive)
REMARK    1  A    between atoms: C2_2  and  O1_3 
REMARK    2  A    between atoms: O1_3  and  C3_4 
REMARK    3  A    between atoms: C3_4  and  C4_6 
REMARK    4  A    between atoms: C5_7  and  C6_8 
REMARK       I    between atoms: C6_8  and  N1_10 
REMARK    5  A    between atoms: N1_10  and  C7_11 
ROOT
HETATM    1  C7  UNL     1      20.758   0.180  52.884  1.00  0.00     0.033 C 
HETATM    2  C8  UNL     1      21.681  -0.762  53.168  1.00  0.00     0.006 C 
HETATM    3  C9  UNL     1      22.942  -0.038  53.240  1.00  0.00     0.023 C 
HETATM    4  C10 UNL     1      24.243  -0.121  53.437  1.00  0.00     0.002 C 
HETATM    5  C11 UNL     1      25.126   1.039  53.395  1.00  0.00     0.033 C 
HETATM    6  C12 UNL     1      26.178   1.015  52.342  1.00  0.00    -0.026 C 
HETATM    7  C13 UNL     1      26.718   1.626  51.296  1.00  0.00    -0.003 C 
HETATM    8  C14 UNL     1      26.478   2.845  50.565  1.00  0.00     0.017 C 
HETATM    9  C15 UNL     1      25.790   3.904  50.443  1.00  0.00     0.089 C 
HETATM   10  N2  UNL     1      24.724   4.528  51.084  1.00  0.00    -0.355 N 
HETATM   11  C16 UNL     1      23.689   5.457  51.190  1.00  0.00     0.099 C 
HETATM   12  C17 UNL     1      24.093   6.859  51.269  1.00  0.00     0.091 C 
HETATM   13  N3  UNL     1      22.416   5.410  51.247  1.00  0.00    -0.246 NA
HETATM   14  C18 UNL     1      21.668   4.211  51.208  1.00  0.00     0.142 C 
HETATM   15  C19 UNL     1      20.879   3.211  50.885  1.00  0.00     0.154 C 
HETATM   16  O4  UNL     1      20.402   1.990  51.343  1.00  0.00    -0.356 OA
HETATM   17  C20 UNL     1      20.877   1.627  52.624  1.00  0.00     0.231 C 
HETATM   18  H18 UNL     1      24.524   4.156  52.026  1.00  0.00     0.166 HD
ENDROOT
BRANCH   1  19
HETATM   19  N1  UNL     1      19.370  -0.042  52.717  1.00  0.00    -0.325 N 
HETATM   20  C6  UNL     1      18.475  -1.054  53.160  1.00  0.00     0.245 C 
HETATM   21  O3  UNL     1      18.986  -1.973  53.855  1.00  0.00    -0.268 OA
HETATM   22  H8  UNL     1      19.102   0.782  52.135  1.00  0.00     0.169 HD
BRANCH  20  23
HETATM   23  C5  UNL     1      17.079  -0.970  52.798  1.00  0.00     0.080 C 
HETATM   24  C4  UNL     1      16.504  -0.051  52.040  1.00  0.00     0.088 C 
BRANCH  24  25
HETATM   25  C3  UNL     1      15.081  -0.081  51.750  1.00  0.00     0.283 C 
HETATM   26  O2  UNL     1      14.623  -1.080  51.118  1.00  0.00    -0.260 OA
BRANCH  25  27
HETATM   27  O1  UNL     1      14.265   0.948  52.155  1.00  0.00    -0.319 OA
BRANCH  27  28
HETATM   28  C2  UNL     1      14.738   2.171  52.659  1.00  0.00     0.174 C 
HETATM   29  C1  UNL     1      14.053   3.292  51.904  1.00  0.00     0.034 C 
ENDBRANCH  27  28
ENDBRANCH  25  27
ENDBRANCH  24  25
ENDBRANCH  20  23
ENDBRANCH   1  19
TORSDOF 5
ENDMDL
MODEL 7
REMARK VINA RESULT:      -7.2      4.070      9.724
REMARK  5 active torsions:
REMARK  status: ('A' for Active; 'I' for Inactive)
REMARK    1  A    between atoms: C2_2  and  O1_3 
REMARK    2  A    between atoms: O1_3  and  C3_4 
REMARK    3  A    between atoms: C3_4  and  C4_6 
REMARK    4  A    between atoms: C5_7  and  C6_8 
REMARK       I    between atoms: C6_8  and  N1_10 
REMARK    5  A    between atoms: N1_10  and  C7_11 
ROOT
HETATM    1  C7  UNL     1      20.204   2.723  52.181  1.00  0.00     0.033 C 
HETATM    2  C8  UNL     1      20.717   1.549  52.604  1.00  0.00     0.006 C 
HETATM    3  C9  UNL     1      22.148   1.789  52.726  1.00  0.00     0.023 C 
HETATM    4  C10 UNL     1      23.322   1.275  53.033  1.00  0.00     0.002 C 
HETATM    5  C11 UNL     1      24.561   2.044  52.982  1.00  0.00     0.033 C 
HETATM    6  C12 UNL     1      25.588   1.555  52.021  1.00  0.00    -0.026 C 
HETATM    7  C13 UNL     1      26.362   1.838  50.982  1.00  0.00    -0.003 C 
HETATM    8  C14 UNL     1      26.609   2.991  50.152  1.00  0.00     0.017 C 
HETATM    9  C15 UNL     1      26.349   4.207  49.902  1.00  0.00     0.089 C 
HETATM   10  N2  UNL     1      25.542   5.222  50.410  1.00  0.00    -0.355 N 
HETATM   11  C16 UNL     1      24.901   6.459  50.368  1.00  0.00     0.099 C 
HETATM   12  C17 UNL     1      25.772   7.633  50.382  1.00  0.00     0.091 C 
HETATM   13  N3  UNL     1      23.694   6.866  50.325  1.00  0.00    -0.246 NA
HETATM   14  C18 UNL     1      22.571   6.006  50.309  1.00  0.00     0.142 C 
HETATM   15  C19 UNL     1      21.496   5.319  49.993  1.00  0.00     0.154 C 
HETATM   16  O4  UNL     1      20.594   4.391  50.495  1.00  0.00    -0.356 OA
HETATM   17  C20 UNL     1      20.843   4.006  51.832  1.00  0.00     0.231 C 
HETATM   18  H18 UNL     1      25.176   5.032  51.356  1.00  0.00     0.166 HD
ENDROOT
BRANCH   1  19
HETATM   19  N1  UNL     1      18.838   2.986  51.919  1.00  0.00    -0.325 N 
HETATM   20  C6  UNL     1      17.890   2.450  51.006  1.00  0.00     0.245 C 
HETATM   21  O3  UNL     1      18.316   1.539  50.244  1.00  0.00    -0.268 OA
HETATM   22  H8  UNL     1      18.643   3.742  52.611  1.00  0.00     0.169 HD
BRANCH  20  23
HETATM   23  C5  UNL     1      16.540   2.964  51.006  1.00  0.00     0.080 C 
HETATM   24  C4  UNL     1      15.904   3.538  52.014  1.00  0.00     0.088 C 
BRANCH  24  25
HETATM   25  C3  UNL     1      14.539   4.015  51.881  1.00  0.00     0.283 C 
HETATM   26  O2  UNL     1      14.060   4.136  50.713  1.00  0.00    -0.260 OA
BRANCH  25  27
HETATM   27  O1  UNL     1      13.797   4.323  52.997  1.00  0.00    -0.319 OA
BRANCH  27  28
HETATM   28  C2  UNL     1      12.424   4.053  53.124  1.00  0.00     0.174 C 
HETATM   29  C1  UNL     1      12.064   4.112  54.595  1.00  0.00     0.034 C 
ENDBRANCH  27  28
ENDBRANCH  25  27
ENDBRANCH  24  25
ENDBRANCH  20  23
ENDBRANCH   1  19
TORSDOF 5
ENDMDL
MODEL 8
REMARK VINA RESULT:      -7.2      2.910      5.004
REMARK  5 active torsions:
REMARK  status: ('A' for Active; 'I' for Inactive)
REMARK    1  A    between atoms: C2_2  and  O1_3 
REMARK    2  A    between atoms: O1_3  and  C3_4 
REMARK    3  A    between atoms: C3_4  and  C4_6 
REMARK    4  A    between atoms: C5_7  and  C6_8 
REMARK       I    between atoms: C6_8  and  N1_10 
REMARK    5  A    between atoms: N1_10  and  C7_11 
ROOT
HETATM    1  C7  UNL     1      23.875   2.894  50.473  1.00  0.00     0.033 C 
HETATM    2  C8  UNL     1      24.294   3.379  49.286  1.00  0.00     0.006 C 
HETATM    3  C9  UNL     1      23.181   4.177  48.794  1.00  0.00     0.023 C 
HETATM    4  C10 UNL     1      22.725   4.937  47.819  1.00  0.00     0.002 C 
HETATM    5  C11 UNL     1      21.401   5.549  47.845  1.00  0.00     0.033 C 
HETATM    6  C12 UNL     1      20.471   5.130  46.760  1.00  0.00    -0.026 C 
HETATM    7  C13 UNL     1      19.294   4.606  46.446  1.00  0.00    -0.003 C 
HETATM    8  C14 UNL     1      18.148   4.114  47.168  1.00  0.00     0.017 C 
HETATM    9  C15 UNL     1      17.600   3.903  48.293  1.00  0.00     0.089 C 
HETATM   10  N2  UNL     1      17.895   4.084  49.642  1.00  0.00    -0.355 N 
HETATM   11  C16 UNL     1      17.707   3.880  51.008  1.00  0.00     0.099 C 
HETATM   12  C17 UNL     1      16.473   4.423  51.573  1.00  0.00     0.091 C 
HETATM   13  N3  UNL     1      18.360   3.325  51.952  1.00  0.00    -0.246 NA
HETATM   14  C18 UNL     1      19.616   2.698  51.779  1.00  0.00     0.142 C 
HETATM   15  C19 UNL     1      20.613   1.848  51.682  1.00  0.00     0.154 C 
HETATM   16  O4  UNL     1      21.975   1.770  51.425  1.00  0.00    -0.356 OA
HETATM   17  C20 UNL     1      22.592   3.021  51.189  1.00  0.00     0.231 C 
HETATM   18  H18 UNL     1      18.684   4.725  49.816  1.00  0.00     0.166 HD
ENDROOT
BRANCH   1  19
HETATM   19  N1  UNL     1      24.620   2.057  51.338  1.00  0.00    -0.325 N 
HETATM   20  C6  UNL     1      26.010   1.873  51.574  1.00  0.00     0.245 C 
HETATM   21  O3  UNL     1      26.783   2.592  50.884  1.00  0.00    -0.268 OA
HETATM   22  H8  UNL     1      23.856   1.540  51.826  1.00  0.00     0.169 HD
BRANCH  20  23
HETATM   23  C5  UNL     1      26.437   0.906  52.558  1.00  0.00     0.080 C 
HETATM   24  C4  UNL     1      26.171   0.913  53.853  1.00  0.00     0.088 C 
BRANCH  24  25
HETATM   25  C3  UNL     1      26.664  -0.127  54.739  1.00  0.00     0.283 C 
HETATM   26  O2  UNL     1      25.872  -0.588  55.616  1.00  0.00    -0.260 OA
BRANCH  25  27
HETATM   27  O1  UNL     1      27.954  -0.588  54.622  1.00  0.00    -0.319 OA
BRANCH  27  28
HETATM   28  C2  UNL     1      29.085   0.244  54.604  1.00  0.00     0.174 C 
HETATM   29  C1  UNL     1      30.009  -0.236  53.503  1.00  0.00     0.034 C 
ENDBRANCH  27  28
ENDBRANCH  25  27
ENDBRANCH  24  25
ENDBRANCH  20  23
ENDBRANCH   1  19
TORSDOF 5
ENDMDL
MODEL 9
REMARK VINA RESULT:      -7.1      8.585     11.205
REMARK  5 active torsions:
REMARK  status: ('A' for Active; 'I' for Inactive)
REMARK    1  A    between atoms: C2_2  and  O1_3 
REMARK    2  A    between atoms: O1_3  and  C3_4 
REMARK    3  A    between atoms: C3_4  and  C4_6 
REMARK    4  A    between atoms: C5_7  and  C6_8 
REMARK       I    between atoms: C6_8  and  N1_10 
REMARK    5  A    between atoms: N1_10  and  C7_11 
ROOT
HETATM    1  C7  UNL     1      26.067   7.551  48.466  1.00  0.00     0.033 C 
HETATM    2  C8  UNL     1      27.186   6.802  48.386  1.00  0.00     0.006 C 
HETATM    3  C9  UNL     1      26.779   5.475  48.825  1.00  0.00     0.023 C 
HETATM    4  C10 UNL     1      27.159   4.235  49.059  1.00  0.00     0.002 C 
HETATM    5  C11 UNL     1      26.243   3.203  49.534  1.00  0.00     0.033 C 
HETATM    6  C12 UNL     1      26.564   2.614  50.864  1.00  0.00    -0.026 C 
HETATM    7  C13 UNL     1      26.148   2.360  52.097  1.00  0.00    -0.003 C 
HETATM    8  C14 UNL     1      24.942   2.583  52.854  1.00  0.00     0.017 C 
HETATM    9  C15 UNL     1      23.756   3.036  52.874  1.00  0.00     0.089 C 
HETATM   10  N2  UNL     1      22.869   3.658  52.000  1.00  0.00    -0.355 N 
HETATM   11  C16 UNL     1      21.718   4.376  51.676  1.00  0.00     0.099 C 
HETATM   12  C17 UNL     1      20.449   3.689  51.910  1.00  0.00     0.091 C 
HETATM   13  N3  UNL     1      21.459   5.528  51.197  1.00  0.00    -0.246 NA
HETATM   14  C18 UNL     1      22.448   6.473  50.838  1.00  0.00     0.142 C 
HETATM   15  C19 UNL     1      23.247   7.513  50.755  1.00  0.00     0.154 C 
HETATM   16  O4  UNL     1      24.297   8.041  50.017  1.00  0.00    -0.356 OA
HETATM   17  C20 UNL     1      24.703   7.235  48.929  1.00  0.00     0.231 C 
HETATM   18  H18 UNL     1      23.140   3.588  51.006  1.00  0.00     0.166 HD
ENDROOT
BRANCH   1  19
HETATM   19  N1  UNL     1      25.961   8.924  48.136  1.00  0.00    -0.325 N 
HETATM   20  C6  UNL     1      25.906   9.640  46.910  1.00  0.00     0.245 C 
HETATM   21  O3  UNL     1      25.959   8.940  45.862  1.00  0.00    -0.268 OA
HETATM   22  H8  UNL     1      25.930   9.356  49.085  1.00  0.00     0.169 HD
BRANCH  20  23
HETATM   23  C5  UNL     1      25.796  11.080  46.937  1.00  0.00     0.080 C 
HETATM   24  C4  UNL     1      25.734  11.856  48.006  1.00  0.00     0.088 C 
BRANCH  24  25
HETATM   25  C3  UNL     1      25.624  13.300  47.895  1.00  0.00     0.283 C 
HETATM   26  O2  UNL     1      24.545  13.847  48.276  1.00  0.00    -0.260 OA
BRANCH  25  27
HETATM   27  O1  UNL     1      26.665  14.042  47.391  1.00  0.00    -0.319 OA
BRANCH  27  28
HETATM   28  C2  UNL     1      27.962  14.039  47.929  1.00  0.00     0.174 C 
HETATM   29  C1  UNL     1      28.875  14.780  46.972  1.00  0.00     0.034 C 
ENDBRANCH  27  28
ENDBRANCH  25  27
ENDBRANCH  24  25
ENDBRANCH  20  23
ENDBRANCH   1  19
TORSDOF 5
ENDMDL
