MODEL 1
REMARK VINA RESULT:      -9.2      0.000      0.000
REMARK  5 active torsions:
REMARK  status: ('A' for Active; 'I' for Inactive)
REMARK    1  A    between atoms: C3_3  and  N1_4 
REMARK    2  A    between atoms: N1_4  and  C4_5 
REMARK    3  A    between atoms: C4_5  and  C5_6 
REMARK    4  A    between atoms: C13_16  and  N3_17 
REMARK    5  A    between atoms: N3_17  and  C14_18 
ROOT
HETATM    1  C1  UNL     1      21.106   0.233  52.224  1.00  0.00     0.050 C 
HETATM    2  C2  UNL     1      22.134   1.278  52.433  1.00  0.00    -0.011 C 
HETATM    3  C3  UNL     1      23.367   0.976  52.831  1.00  0.00     0.105 C 
HETATM    4  N2  UNL     1      24.454   1.916  52.979  1.00  0.00    -0.352 N 
HETATM    5  C11 UNL     1      24.114   3.279  52.656  1.00  0.00     0.103 C 
HETATM    6  C12 UNL     1      22.920   3.659  52.278  1.00  0.00     0.032 C 
HETATM    7  C13 UNL     1      22.698   5.054  51.944  1.00  0.00     0.139 C 
HETATM    8  N4  UNL     1      21.566   5.418  51.454  1.00  0.00    -0.224 NA
HETATM    9  C20 UNL     1      20.567   4.379  51.311  1.00  0.00     0.230 C 
HETATM   10  N5  UNL     1      20.668   3.142  51.661  1.00  0.00    -0.268 NA
HETATM   11  C21 UNL     1      21.840   2.676  52.291  1.00  0.00     0.179 C 
HETATM   12  H11 UNL     1      25.363   1.552  53.296  1.00  0.00     0.166 HD
ENDROOT
BRANCH   3  13
HETATM   13  N1  UNL     1      23.652  -0.421  53.059  1.00  0.00    -0.372 N 
HETATM   14  H4  UNL     1      23.464  -1.328  52.584  1.00  0.00     0.161 HD
BRANCH  13  15
HETATM   15  C4  UNL     1      24.403  -0.517  54.294  1.00  0.00     0.160 C 
BRANCH  15  16
HETATM   16  C5  UNL     1      25.874  -0.534  54.078  1.00  0.00    -0.040 A 
HETATM   17  C6  UNL     1      26.634   0.158  55.025  1.00  0.00     0.010 A 
HETATM   18  C7  UNL     1      28.013   0.111  54.778  1.00  0.00     0.024 A 
HETATM   19  C8  UNL     1      28.611  -0.528  53.736  1.00  0.00     0.034 A 
HETATM   20 CL1  UNL     1      30.338  -0.520  53.521  1.00  0.00    -0.084 Cl
HETATM   21  C9  UNL     1      27.739  -1.160  52.893  1.00  0.00     0.024 A 
HETATM   22  C10 UNL     1      26.371  -1.229  52.965  1.00  0.00     0.010 A 
ENDBRANCH  15  16
ENDBRANCH  13  15
ENDBRANCH   3  13
BRANCH   7  23
HETATM   23  N3  UNL     1      23.709   6.014  52.156  1.00  0.00    -0.340 N 
HETATM   24  H13 UNL     1      24.053   6.209  53.116  1.00  0.00     0.167 HD
BRANCH  23  25
HETATM   25  C14 UNL     1      24.273   6.730  51.034  1.00  0.00     0.035 A 
HETATM   26  C15 UNL     1      23.845   7.989  50.565  1.00  0.00     0.029 A 
HETATM   27  C16 UNL     1      24.567   8.431  49.485  1.00  0.00     0.004 A 
HETATM   28  C17 UNL     1      25.594   7.793  48.873  1.00  0.00     0.019 A 
HETATM   29  C18 UNL     1      25.992   6.565  49.350  1.00  0.00     0.013 A 
HETATM   30 BR1  UNL     1      27.436   5.617  48.535  1.00  0.00    -0.051 Br
HETATM   31  C19 UNL     1      25.309   6.066  50.430  1.00  0.00     0.048 A 
ENDBRANCH  23  25
ENDBRANCH   7  23
TORSDOF 5
ENDMDL
MODEL 2
REMARK VINA RESULT:      -9.1      4.892      8.079
REMARK  5 active torsions:
REMARK  status: ('A' for Active; 'I' for Inactive)
REMARK    1  A    between atoms: C3_3  and  N1_4 
REMARK    2  A    between atoms: N1_4  and  C4_5 
REMARK    3  A    between atoms: C4_5  and  C5_6 
REMARK    4  A    between atoms: C13_16  and  N3_17 
REMARK    5  A    between atoms: N3_17  and  C14_18 
ROOT
HETATM    1  C1  UNL     1      22.576   1.362  50.697  1.00  0.00     0.050 C 
HETATM    2  C2  UNL     1      21.711   0.715  51.709  1.00  0.00    -0.011 C 
HETATM    3  C3  UNL     1      22.168   0.393  52.915  1.00  0.00     0.105 C 
HETATM    4  N2  UNL     1      21.379  -0.163  53.991  1.00  0.00    -0.352 N 
HETATM    5  C11 UNL     1      19.987  -0.362  53.669  1.00  0.00     0.103 C 
HETATM    6  C12 UNL     1      19.467  -0.090  52.500  1.00  0.00     0.032 C 
HETATM    7  C13 UNL     1      18.044  -0.297  52.297  1.00  0.00     0.139 C 
HETATM    8  N4  UNL     1      17.497   0.081  51.197  1.00  0.00    -0.224 NA
HETATM    9  C20 UNL     1      18.382   0.663  50.209  1.00  0.00     0.230 C 
HETATM   10  N5  UNL     1      19.662   0.803  50.289  1.00  0.00    -0.268 NA
HETATM   11  C21 UNL     1      20.357   0.332  51.422  1.00  0.00     0.179 C 
HETATM   12  H11 UNL     1      21.854  -0.368  54.879  1.00  0.00     0.166 HD
ENDROOT
BRANCH   3  13
HETATM   13  N1  UNL     1      23.553   0.695  53.188  1.00  0.00    -0.372 N 
HETATM   14  H4  UNL     1      24.207   1.490  53.035  1.00  0.00     0.161 HD
BRANCH  13  15
HETATM   15  C4  UNL     1      24.129  -0.456  53.853  1.00  0.00     0.160 C 
BRANCH  15  16
HETATM   16  C5  UNL     1      25.614  -0.489  53.773  1.00  0.00    -0.040 A 
HETATM   17  C6  UNL     1      26.289   0.239  54.755  1.00  0.00     0.010 A 
HETATM   18  C7  UNL     1      27.686   0.176  54.638  1.00  0.00     0.024 A 
HETATM   19  C8  UNL     1      28.370  -0.510  53.682  1.00  0.00     0.034 A 
HETATM   20 CL1  UNL     1      30.109  -0.519  53.626  1.00  0.00    -0.084 Cl
HETATM   21  C9  UNL     1      27.573  -1.174  52.791  1.00  0.00     0.024 A 
HETATM   22  C10 UNL     1      26.204  -1.233  52.740  1.00  0.00     0.010 A 
ENDBRANCH  15  16
ENDBRANCH  13  15
ENDBRANCH   3  13
BRANCH   7  23
HETATM   23  N3  UNL     1      17.258  -0.914  53.292  1.00  0.00    -0.340 N 
HETATM   24  H13 UNL     1      16.958  -0.378  54.130  1.00  0.00     0.167 HD
BRANCH  23  25
HETATM   25  C14 UNL     1      16.864  -2.297  53.149  1.00  0.00     0.035 A 
HETATM   26  C15 UNL     1      17.555  -3.406  53.678  1.00  0.00     0.029 A 
HETATM   27  C16 UNL     1      16.948  -4.602  53.389  1.00  0.00     0.004 A 
HETATM   28  C17 UNL     1      15.809  -4.790  52.679  1.00  0.00     0.019 A 
HETATM   29  C18 UNL     1      15.154  -3.690  52.173  1.00  0.00     0.013 A 
HETATM   30 BR1  UNL     1      13.541  -3.887  51.170  1.00  0.00    -0.051 Br
HETATM   31  C19 UNL     1      15.710  -2.463  52.428  1.00  0.00     0.048 A 
ENDBRANCH  23  25
ENDBRANCH   7  23
TORSDOF 5
ENDMDL
MODEL 3
REMARK VINA RESULT:      -9.0      5.340      8.278
REMARK  5 active torsions:
REMARK  status: ('A' for Active; 'I' for Inactive)
REMARK    1  A    between atoms: C3_3  and  N1_4 
REMARK    2  A    between atoms: N1_4  and  C4_5 
REMARK    3  A    between atoms: C4_5  and  C5_6 
REMARK    4  A    between atoms: C13_16  and  N3_17 
REMARK    5  A    between atoms: N3_17  and  C14_18 
ROOT
HETATM    1  C1  UNL     1      18.612   0.299  51.572  1.00  0.00     0.050 C 
HETATM    2  C2  UNL     1      19.708  -0.025  52.512  1.00  0.00    -0.011 C 
HETATM    3  C3  UNL     1      19.506  -0.786  53.584  1.00  0.00     0.105 C 
HETATM    4  N2  UNL     1      20.529  -1.221  54.509  1.00  0.00    -0.352 N 
HETATM    5  C11 UNL     1      21.858  -0.760  54.190  1.00  0.00     0.103 C 
HETATM    6  C12 UNL     1      22.133   0.008  53.167  1.00  0.00     0.032 C 
HETATM    7  C13 UNL     1      23.514   0.385  52.921  1.00  0.00     0.139 C 
HETATM    8  N4  UNL     1      23.815   1.034  51.853  1.00  0.00    -0.224 NA
HETATM    9  C20 UNL     1      22.711   1.378  50.981  1.00  0.00     0.230 C 
HETATM   10  N5  UNL     1      21.457   1.147  51.175  1.00  0.00    -0.268 NA
HETATM   11  C21 UNL     1      21.027   0.522  52.364  1.00  0.00     0.179 C 
HETATM   12  H11 UNL     1      20.241  -1.810  55.301  1.00  0.00     0.166 HD
ENDROOT
BRANCH   3  13
HETATM   13  N1  UNL     1      18.164  -1.274  53.792  1.00  0.00    -0.372 N 
HETATM   14  H4  UNL     1      17.214  -0.868  53.927  1.00  0.00     0.161 HD
BRANCH  13  15
HETATM   15  C4  UNL     1      18.222  -2.720  53.807  1.00  0.00     0.160 C 
BRANCH  15  16
HETATM   16  C5  UNL     1      16.954  -3.357  53.360  1.00  0.00    -0.040 A 
HETATM   17  C6  UNL     1      16.129  -2.565  52.557  1.00  0.00     0.010 A 
HETATM   18  C7  UNL     1      14.948  -3.209  52.162  1.00  0.00     0.024 A 
HETATM   19  C8  UNL     1      14.587  -4.478  52.497  1.00  0.00     0.034 A 
HETATM   20 CL1  UNL     1      13.092  -5.183  51.952  1.00  0.00    -0.084 Cl
HETATM   21  C9  UNL     1      15.495  -5.128  53.286  1.00  0.00     0.024 A 
HETATM   22  C10 UNL     1      16.694  -4.673  53.771  1.00  0.00     0.010 A 
ENDBRANCH  15  16
ENDBRANCH  13  15
ENDBRANCH   3  13
BRANCH   7  23
HETATM   23  N3  UNL     1      24.526   0.050  53.845  1.00  0.00    -0.340 N 
HETATM   24  H13 UNL     1      24.328  -0.609  54.623  1.00  0.00     0.167 HD
BRANCH  23  25
HETATM   25  C14 UNL     1      25.846   0.622  53.710  1.00  0.00     0.035 A 
HETATM   26  C15 UNL     1      26.141   2.000  53.653  1.00  0.00     0.029 A 
HETATM   27  C16 UNL     1      27.484   2.254  53.527  1.00  0.00     0.004 A 
HETATM   28  C17 UNL     1      28.484   1.344  53.457  1.00  0.00     0.019 A 
HETATM   29  C18 UNL     1      28.169   0.005  53.515  1.00  0.00     0.013 A 
HETATM   30 BR1  UNL     1      29.534  -1.328  53.428  1.00  0.00    -0.051 Br
HETATM   31  C19 UNL     1      26.842  -0.317  53.641  1.00  0.00     0.048 A 
ENDBRANCH  23  25
ENDBRANCH   7  23
TORSDOF 5
ENDMDL
MODEL 4
REMARK VINA RESULT:      -8.9      4.361      6.781
REMARK  5 active torsions:
REMARK  status: ('A' for Active; 'I' for Inactive)
REMARK    1  A    between atoms: C3_3  and  N1_4 
REMARK    2  A    between atoms: N1_4  and  C4_5 
REMARK    3  A    between atoms: C4_5  and  C5_6 
REMARK    4  A    between atoms: C13_16  and  N3_17 
REMARK    5  A    between atoms: N3_17  and  C14_18 
ROOT
HETATM    1  C1  UNL     1      22.178  -1.576  54.963  1.00  0.00     0.050 C 
HETATM    2  C2  UNL     1      22.010  -0.671  53.804  1.00  0.00    -0.011 C 
HETATM    3  C3  UNL     1      20.810  -0.391  53.304  1.00  0.00     0.105 C 
HETATM    4  N2  UNL     1      20.543   0.542  52.233  1.00  0.00    -0.352 N 
HETATM    5  C11 UNL     1      21.716   1.191  51.701  1.00  0.00     0.103 C 
HETATM    6  C12 UNL     1      22.931   0.954  52.124  1.00  0.00     0.032 C 
HETATM    7  C13 UNL     1      24.037   1.692  51.540  1.00  0.00     0.139 C 
HETATM    8  N4  UNL     1      25.218   1.560  52.029  1.00  0.00    -0.224 NA
HETATM    9  C20 UNL     1      25.355   0.628  53.129  1.00  0.00     0.230 C 
HETATM   10  N5  UNL     1      24.437  -0.117  53.643  1.00  0.00    -0.268 NA
HETATM   11  C21 UNL     1      23.132  -0.106  53.109  1.00  0.00     0.179 C 
HETATM   12  H11 UNL     1      19.566   0.669  51.939  1.00  0.00     0.166 HD
ENDROOT
BRANCH   3  13
HETATM   13  N1  UNL     1      19.677  -1.021  53.941  1.00  0.00    -0.372 N 
HETATM   14  H4  UNL     1      19.504  -1.622  54.773  1.00  0.00     0.161 HD
BRANCH  13  15
HETATM   15  C4  UNL     1      18.499  -0.686  53.168  1.00  0.00     0.160 C 
BRANCH  15  16
HETATM   16  C5  UNL     1      17.526  -1.808  53.080  1.00  0.00    -0.040 A 
HETATM   17  C6  UNL     1      17.899  -2.986  53.730  1.00  0.00     0.010 A 
HETATM   18  C7  UNL     1      16.949  -4.012  53.618  1.00  0.00     0.024 A 
HETATM   19  C8  UNL     1      15.764  -3.925  52.953  1.00  0.00     0.034 A 
HETATM   20 CL1  UNL     1      14.655  -5.264  52.874  1.00  0.00    -0.084 Cl
HETATM   21  C9  UNL     1      15.539  -2.710  52.367  1.00  0.00     0.024 A 
HETATM   22  C10 UNL     1      16.337  -1.595  52.365  1.00  0.00     0.010 A 
ENDBRANCH  15  16
ENDBRANCH  13  15
ENDBRANCH   3  13
BRANCH   7  23
HETATM   23  N3  UNL     1      23.828   2.547  50.438  1.00  0.00    -0.340 N 
HETATM   24  H13 UNL     1      23.448   2.171  49.547  1.00  0.00     0.167 HD
BRANCH  23  25
HETATM   25  C14 UNL     1      24.140   3.954  50.545  1.00  0.00     0.035 A 
HETATM   26  C15 UNL     1      23.480   4.879  51.380  1.00  0.00     0.029 A 
HETATM   27  C16 UNL     1      23.991   6.149  51.280  1.00  0.00     0.004 A 
HETATM   28  C17 UNL     1      25.014   6.557  50.492  1.00  0.00     0.019 A 
HETATM   29  C18 UNL     1      25.641   5.634  49.686  1.00  0.00     0.013 A 
HETATM   30 BR1  UNL     1      27.093   6.146  48.556  1.00  0.00    -0.051 Br
HETATM   31  C19 UNL     1      25.177   4.345  49.739  1.00  0.00     0.048 A 
ENDBRANCH  23  25
ENDBRANCH   7  23
TORSDOF 5
ENDMDL
MODEL 5
REMARK VINA RESULT:      -8.9      3.973      7.569
REMARK  5 active torsions:
REMARK  status: ('A' for Active; 'I' for Inactive)
REMARK    1  A    between atoms: C3_3  and  N1_4 
REMARK    2  A    between atoms: N1_4  and  C4_5 
REMARK    3  A    between atoms: C4_5  and  C5_6 
REMARK    4  A    between atoms: C13_16  and  N3_17 
REMARK    5  A    between atoms: N3_17  and  C14_18 
ROOT
HETATM    1  C1  UNL     1      27.129   0.952  52.263  1.00  0.00     0.050 C 
HETATM    2  C2  UNL     1      25.791   1.583  52.199  1.00  0.00    -0.011 C 
HETATM    3  C3  UNL     1      25.591   2.732  51.559  1.00  0.00     0.105 C 
HETATM    4  N2  UNL     1      24.311   3.376  51.374  1.00  0.00    -0.352 N 
HETATM    5  C11 UNL     1      23.196   2.668  51.954  1.00  0.00     0.103 C 
HETATM    6  C12 UNL     1      23.314   1.546  52.615  1.00  0.00     0.032 C 
HETATM    7  C13 UNL     1      22.119   0.901  53.127  1.00  0.00     0.139 C 
HETATM    8  N4  UNL     1      22.206  -0.261  53.670  1.00  0.00    -0.224 NA
HETATM    9  C20 UNL     1      23.537  -0.826  53.762  1.00  0.00     0.230 C 
HETATM   10  N5  UNL     1      24.647  -0.278  53.403  1.00  0.00    -0.268 NA
HETATM   11  C21 UNL     1      24.655   1.033  52.883  1.00  0.00     0.179 C 
HETATM   12  H11 UNL     1      24.291   4.266  50.857  1.00  0.00     0.166 HD
ENDROOT
BRANCH   3  13
HETATM   13  N1  UNL     1      26.743   3.340  50.937  1.00  0.00    -0.372 N 
HETATM   14  H4  UNL     1      27.673   3.701  51.237  1.00  0.00     0.161 HD
BRANCH  13  15
HETATM   15  C4  UNL     1      26.469   3.448  49.520  1.00  0.00     0.160 C 
BRANCH  15  16
HETATM   16  C5  UNL     1      26.806   4.785  48.964  1.00  0.00    -0.040 A 
HETATM   17  C6  UNL     1      25.753   5.701  48.907  1.00  0.00     0.010 A 
HETATM   18  C7  UNL     1      26.122   6.946  48.376  1.00  0.00     0.024 A 
HETATM   19  C8  UNL     1      27.367   7.285  47.943  1.00  0.00     0.034 A 
HETATM   20 CL1  UNL     1      27.717   8.863  47.297  1.00  0.00    -0.084 Cl
HETATM   21  C9  UNL     1      28.292   6.285  48.061  1.00  0.00     0.024 A 
HETATM   22  C10 UNL     1      28.128   5.015  48.550  1.00  0.00     0.010 A 
ENDBRANCH  15  16
ENDBRANCH  13  15
ENDBRANCH   3  13
BRANCH   7  23
HETATM   23  N3  UNL     1      20.864   1.539  53.040  1.00  0.00    -0.340 N 
HETATM   24  H13 UNL     1      20.639   2.341  53.662  1.00  0.00     0.167 HD
BRANCH  23  25
HETATM   25  C14 UNL     1      19.885   1.081  52.081  1.00  0.00     0.035 A 
HETATM   26  C15 UNL     1      19.825   1.461  50.725  1.00  0.00     0.029 A 
HETATM   27  C16 UNL     1      18.790   0.865  50.048  1.00  0.00     0.004 A 
HETATM   28  C17 UNL     1      17.880  -0.005  50.548  1.00  0.00     0.019 A 
HETATM   29  C18 UNL     1      17.961  -0.359  51.876  1.00  0.00     0.013 A 
HETATM   30 BR1  UNL     1      16.711  -1.585  52.640  1.00  0.00    -0.051 Br
HETATM   31  C19 UNL     1      18.975   0.202  52.609  1.00  0.00     0.048 A 
ENDBRANCH  23  25
ENDBRANCH   7  23
TORSDOF 5
ENDMDL
MODEL 6
REMARK VINA RESULT:      -8.8      3.377      7.427
REMARK  5 active torsions:
REMARK  status: ('A' for Active; 'I' for Inactive)
REMARK    1  A    between atoms: C3_3  and  N1_4 
REMARK    2  A    between atoms: N1_4  and  C4_5 
REMARK    3  A    between atoms: C4_5  and  C5_6 
REMARK    4  A    between atoms: C13_16  and  N3_17 
REMARK    5  A    between atoms: N3_17  and  C14_18 
ROOT
HETATM    1  C1  UNL     1      24.070   7.813  50.759  1.00  0.00     0.050 C 
HETATM    2  C2  UNL     1      24.481   6.398  50.619  1.00  0.00    -0.011 C 
HETATM    3  C3  UNL     1      25.679   6.062  50.147  1.00  0.00     0.105 C 
HETATM    4  N2  UNL     1      26.196   4.716  50.053  1.00  0.00    -0.352 N 
HETATM    5  C11 UNL     1      25.293   3.695  50.525  1.00  0.00     0.103 C 
HETATM    6  C12 UNL     1      24.093   3.943  50.983  1.00  0.00     0.032 C 
HETATM    7  C13 UNL     1      23.281   2.840  51.465  1.00  0.00     0.139 C 
HETATM    8  N4  UNL     1      22.152   3.081  52.030  1.00  0.00    -0.224 NA
HETATM    9  C20 UNL     1      21.758   4.472  52.105  1.00  0.00     0.230 C 
HETATM   10  N5  UNL     1      22.388   5.492  51.629  1.00  0.00    -0.268 NA
HETATM   11  C21 UNL     1      23.589   5.312  50.912  1.00  0.00     0.179 C 
HETATM   12  H11 UNL     1      27.141   4.590  49.668  1.00  0.00     0.166 HD
ENDROOT
BRANCH   3  13
HETATM   13  N1  UNL     1      26.556   7.145  49.769  1.00  0.00    -0.372 N 
HETATM   14  H4  UNL     1      26.889   8.040  50.182  1.00  0.00     0.161 HD
BRANCH  13  15
HETATM   15  C4  UNL     1      27.079   6.843  48.453  1.00  0.00     0.160 C 
BRANCH  15  16
HETATM   16  C5  UNL     1      28.566   6.839  48.407  1.00  0.00    -0.040 A 
HETATM   17  C6  UNL     1      29.160   5.606  48.124  1.00  0.00     0.010 A 
HETATM   18  C7  UNL     1      30.562   5.655  48.091  1.00  0.00     0.024 A 
HETATM   19  C8  UNL     1      31.321   6.764  48.307  1.00  0.00     0.034 A 
HETATM   20 CL1  UNL     1      33.059   6.713  48.245  1.00  0.00    -0.084 Cl
HETATM   21  C9  UNL     1      30.598   7.894  48.572  1.00  0.00     0.024 A 
HETATM   22  C10 UNL     1      29.238   8.048  48.646  1.00  0.00     0.010 A 
ENDBRANCH  15  16
ENDBRANCH  13  15
ENDBRANCH   3  13
BRANCH   7  23
HETATM   23  N3  UNL     1      23.716   1.507  51.313  1.00  0.00    -0.340 N 
HETATM   24  H13 UNL     1      23.839   1.100  50.365  1.00  0.00     0.167 HD
BRANCH  23  25
HETATM   25  C14 UNL     1      23.997   0.700  52.479  1.00  0.00     0.035 A 
HETATM   26  C15 UNL     1      23.068  -0.119  53.152  1.00  0.00     0.029 A 
HETATM   27  C16 UNL     1      23.613  -0.775  54.227  1.00  0.00     0.004 A 
HETATM   28  C17 UNL     1      24.893  -0.702  54.664  1.00  0.00     0.019 A 
HETATM   29  C18 UNL     1      25.780   0.106  53.989  1.00  0.00     0.013 A 
HETATM   30 BR1  UNL     1      27.600   0.248  54.552  1.00  0.00    -0.051 Br
HETATM   31  C19 UNL     1      25.297   0.790  52.903  1.00  0.00     0.048 A 
ENDBRANCH  23  25
ENDBRANCH   7  23
TORSDOF 5
ENDMDL
MODEL 7
REMARK VINA RESULT:      -8.7      4.350      7.807
REMARK  5 active torsions:
REMARK  status: ('A' for Active; 'I' for Inactive)
REMARK    1  A    between atoms: C3_3  and  N1_4 
REMARK    2  A    between atoms: N1_4  and  C4_5 
REMARK    3  A    between atoms: C4_5  and  C5_6 
REMARK    4  A    between atoms: C13_16  and  N3_17 
REMARK    5  A    between atoms: N3_17  and  C14_18 
ROOT
HETATM    1  C1  UNL     1      25.984   7.835  49.978  1.00  0.00     0.050 C 
HETATM    2  C2  UNL     1      25.895   6.364  49.840  1.00  0.00    -0.011 C 
HETATM    3  C3  UNL     1      26.836   5.663  49.213  1.00  0.00     0.105 C 
HETATM    4  N2  UNL     1      26.875   4.222  49.102  1.00  0.00    -0.352 N 
HETATM    5  C11 UNL     1      25.775   3.544  49.743  1.00  0.00     0.103 C 
HETATM    6  C12 UNL     1      24.802   4.163  50.361  1.00  0.00     0.032 C 
HETATM    7  C13 UNL     1      23.763   3.377  51.002  1.00  0.00     0.139 C 
HETATM    8  N4  UNL     1      22.870   3.965  51.716  1.00  0.00    -0.224 NA
HETATM    9  C20 UNL     1      22.958   5.409  51.788  1.00  0.00     0.230 C 
HETATM   10  N5  UNL     1      23.801   6.174  51.182  1.00  0.00    -0.268 NA
HETATM   11  C21 UNL     1      24.758   5.621  50.306  1.00  0.00     0.179 C 
HETATM   12  H11 UNL     1      27.660   3.801  48.589  1.00  0.00     0.166 HD
ENDROOT
BRANCH   3  13
HETATM   13  N1  UNL     1      27.944   6.407  48.665  1.00  0.00    -0.372 N 
HETATM   14  H4  UNL     1      28.189   7.406  48.501  1.00  0.00     0.161 HD
BRANCH  13  15
HETATM   15  C4  UNL     1      28.951   5.451  48.252  1.00  0.00     0.160 C 
BRANCH  15  16
HETATM   16  C5  UNL     1      30.330   6.006  48.295  1.00  0.00    -0.040 A 
HETATM   17  C6  UNL     1      31.348   5.131  47.907  1.00  0.00     0.010 A 
HETATM   18  C7  UNL     1      32.628   5.700  47.965  1.00  0.00     0.024 A 
HETATM   19  C8  UNL     1      32.912   6.974  48.352  1.00  0.00     0.034 A 
HETATM   20 CL1  UNL     1      34.542   7.581  48.389  1.00  0.00    -0.084 Cl
HETATM   21  C9  UNL     1      31.814   7.710  48.702  1.00  0.00     0.024 A 
HETATM   22  C10 UNL     1      30.495   7.336  48.712  1.00  0.00     0.010 A 
ENDBRANCH  15  16
ENDBRANCH  13  15
ENDBRANCH   3  13
BRANCH   7  23
HETATM   23  N3  UNL     1      23.721   1.976  50.845  1.00  0.00    -0.340 N 
HETATM   24  H13 UNL     1      23.407   1.558  49.947  1.00  0.00     0.167 HD
BRANCH  23  25
HETATM   25  C14 UNL     1      24.117   1.114  51.935  1.00  0.00     0.035 A 
HETATM   26  C15 UNL     1      25.444   0.869  52.346  1.00  0.00     0.029 A 
HETATM   27  C16 UNL     1      25.523   0.010  53.413  1.00  0.00     0.004 A 
HETATM   28  C17 UNL     1      24.492  -0.584  54.062  1.00  0.00     0.019 A 
HETATM   29  C18 UNL     1      23.207  -0.328  53.640  1.00  0.00     0.013 A 
HETATM   30 BR1  UNL     1      21.711  -1.130  54.516  1.00  0.00    -0.051 Br
HETATM   31  C19 UNL     1      23.059   0.524  52.576  1.00  0.00     0.048 A 
ENDBRANCH  23  25
ENDBRANCH   7  23
TORSDOF 5
ENDMDL
MODEL 8
REMARK VINA RESULT:      -8.6      4.433      7.544
REMARK  5 active torsions:
REMARK  status: ('A' for Active; 'I' for Inactive)
REMARK    1  A    between atoms: C3_3  and  N1_4 
REMARK    2  A    between atoms: N1_4  and  C4_5 
REMARK    3  A    between atoms: C4_5  and  C5_6 
REMARK    4  A    between atoms: C13_16  and  N3_17 
REMARK    5  A    between atoms: N3_17  and  C14_18 
ROOT
HETATM    1  C1  UNL     1      21.500   1.706  48.993  1.00  0.00     0.050 C 
HETATM    2  C2  UNL     1      22.196   1.628  50.296  1.00  0.00    -0.011 C 
HETATM    3  C3  UNL     1      21.688   0.949  51.321  1.00  0.00     0.105 C 
HETATM    4  N2  UNL     1      22.333   0.749  52.598  1.00  0.00    -0.352 N 
HETATM    5  C11 UNL     1      23.634   1.361  52.713  1.00  0.00     0.103 C 
HETATM    6  C12 UNL     1      24.192   2.062  51.759  1.00  0.00     0.032 C 
HETATM    7  C13 UNL     1      25.522   2.605  51.970  1.00  0.00     0.139 C 
HETATM    8  N4  UNL     1      26.132   3.188  51.001  1.00  0.00    -0.224 NA
HETATM    9  C20 UNL     1      25.401   3.291  49.755  1.00  0.00     0.230 C 
HETATM   10  N5  UNL     1      24.193   2.906  49.521  1.00  0.00    -0.268 NA
HETATM   11  C21 UNL     1      23.417   2.339  50.553  1.00  0.00     0.179 C 
HETATM   12  H11 UNL     1      21.831   0.201  53.309  1.00  0.00     0.166 HD
ENDROOT
BRANCH   3  13
HETATM   13  N1  UNL     1      20.418   0.298  51.103  1.00  0.00    -0.372 N 
HETATM   14  H4  UNL     1      19.947  -0.224  50.335  1.00  0.00     0.161 HD
BRANCH  13  15
HETATM   15  C4  UNL     1      19.637   0.448  52.313  1.00  0.00     0.160 C 
BRANCH  15  16
HETATM   16  C5  UNL     1      18.384  -0.354  52.298  1.00  0.00    -0.040 A 
HETATM   17  C6  UNL     1      17.422   0.042  51.365  1.00  0.00     0.010 A 
HETATM   18  C7  UNL     1      16.261  -0.744  51.390  1.00  0.00     0.024 A 
HETATM   19  C8  UNL     1      16.037  -1.800  52.219  1.00  0.00     0.034 A 
HETATM   20 CL1  UNL     1      14.554  -2.709  52.168  1.00  0.00    -0.084 Cl
HETATM   21  C9  UNL     1      17.069  -2.067  53.076  1.00  0.00     0.024 A 
HETATM   22  C10 UNL     1      18.271  -1.421  53.203  1.00  0.00     0.010 A 
ENDBRANCH  15  16
ENDBRANCH  13  15
ENDBRANCH   3  13
BRANCH   7  23
HETATM   23  N3  UNL     1      26.148   2.503  53.230  1.00  0.00    -0.340 N 
HETATM   24  H13 UNL     1      25.753   2.999  54.053  1.00  0.00     0.167 HD
BRANCH  23  25
HETATM   25  C14 UNL     1      27.343   1.705  53.381  1.00  0.00     0.035 A 
HETATM   26  C15 UNL     1      28.615   2.192  53.747  1.00  0.00     0.029 A 
HETATM   27  C16 UNL     1      29.566   1.205  53.818  1.00  0.00     0.004 A 
HETATM   28  C17 UNL     1      29.390  -0.117  53.580  1.00  0.00     0.019 A 
HETATM   29  C18 UNL     1      28.138  -0.567  53.225  1.00  0.00     0.013 A 
HETATM   30 BR1  UNL     1      27.824  -2.419  52.881  1.00  0.00    -0.051 Br
HETATM   31  C19 UNL     1      27.142   0.371  53.136  1.00  0.00     0.048 A 
ENDBRANCH  23  25
ENDBRANCH   7  23
TORSDOF 5
ENDMDL
MODEL 9
REMARK VINA RESULT:      -8.5      1.692      2.282
REMARK  5 active torsions:
REMARK  status: ('A' for Active; 'I' for Inactive)
REMARK    1  A    between atoms: C3_3  and  N1_4 
REMARK    2  A    between atoms: N1_4  and  C4_5 
REMARK    3  A    between atoms: C4_5  and  C5_6 
REMARK    4  A    between atoms: C13_16  and  N3_17 
REMARK    5  A    between atoms: N3_17  and  C14_18 
ROOT
HETATM    1  C1  UNL     1      21.422  -0.062  51.806  1.00  0.00     0.050 C 
HETATM    2  C2  UNL     1      22.274   1.144  51.915  1.00  0.00    -0.011 C 
HETATM    3  C3  UNL     1      23.085   1.334  52.952  1.00  0.00     0.105 C 
HETATM    4  N2  UNL     1      24.010   2.434  53.102  1.00  0.00    -0.352 N 
HETATM    5  C11 UNL     1      24.009   3.370  52.005  1.00  0.00     0.103 C 
HETATM    6  C12 UNL     1      23.227   3.263  50.961  1.00  0.00     0.032 C 
HETATM    7  C13 UNL     1      23.335   4.245  49.897  1.00  0.00     0.139 C 
HETATM    8  N4  UNL     1      22.664   4.084  48.813  1.00  0.00    -0.224 NA
HETATM    9  C20 UNL     1      21.802   2.922  48.761  1.00  0.00     0.230 C 
HETATM   10  N5  UNL     1      21.596   2.056  49.694  1.00  0.00    -0.268 NA
HETATM   11  C21 UNL     1      22.220   2.206  50.950  1.00  0.00     0.179 C 
HETATM   12  H11 UNL     1      24.583   2.466  53.956  1.00  0.00     0.166 HD
ENDROOT
BRANCH   3  13
HETATM   13  N1  UNL     1      23.086   0.313  53.973  1.00  0.00    -0.372 N 
HETATM   14  H4  UNL     1      22.671   0.175  54.917  1.00  0.00     0.161 HD
BRANCH  13  15
HETATM   15  C4  UNL     1      23.899  -0.784  53.492  1.00  0.00     0.160 C 
BRANCH  15  16
HETATM   16  C5  UNL     1      25.358  -0.535  53.643  1.00  0.00    -0.040 A 
HETATM   17  C6  UNL     1      26.116  -0.649  52.476  1.00  0.00     0.010 A 
HETATM   18  C7  UNL     1      27.484  -0.405  52.671  1.00  0.00     0.024 A 
HETATM   19  C8  UNL     1      28.070  -0.085  53.857  1.00  0.00     0.034 A 
HETATM   20 CL1  UNL     1      29.782   0.196  53.988  1.00  0.00    -0.084 Cl
HETATM   21  C9  UNL     1      27.200  -0.010  54.909  1.00  0.00     0.024 A 
HETATM   22  C10 UNL     1      25.844  -0.212  54.919  1.00  0.00     0.010 A 
ENDBRANCH  15  16
ENDBRANCH  13  15
ENDBRANCH   3  13
BRANCH   7  23
HETATM   23  N3  UNL     1      24.164   5.377  50.045  1.00  0.00    -0.340 N 
HETATM   24  H13 UNL     1      23.829   6.207  50.572  1.00  0.00     0.167 HD
BRANCH  23  25
HETATM   25  C14 UNL     1      25.487   5.385  49.463  1.00  0.00     0.035 A 
HETATM   26  C15 UNL     1      26.337   4.266  49.345  1.00  0.00     0.029 A 
HETATM   27  C16 UNL     1      27.535   4.567  48.746  1.00  0.00     0.004 A 
HETATM   28  C17 UNL     1      27.939   5.776  48.289  1.00  0.00     0.019 A 
HETATM   29  C18 UNL     1      27.090   6.852  48.416  1.00  0.00     0.013 A 
HETATM   30 BR1  UNL     1      27.598   8.582  47.786  1.00  0.00    -0.051 Br
HETATM   31  C19 UNL     1      25.874   6.618  49.007  1.00  0.00     0.048 A 
ENDBRANCH  23  25
ENDBRANCH   7  23
TORSDOF 5
ENDMDL
