MODEL 1
REMARK VINA RESULT:      -9.0      0.000      0.000
REMARK  5 active torsions:
REMARK  status: ('A' for Active; 'I' for Inactive)
REMARK    1  A    between atoms: O1_2  and  C2_3 
REMARK    2  A    between atoms: C6_9  and  N3_10 
REMARK    3  A    between atoms: N3_10  and  C7_11 
REMARK    4  A    between atoms: C15_21  and  O2_22 
REMARK    5  A    between atoms: C19_28  and  N5_29 
ROOT
HETATM    1  C2  UNL     1      20.257   3.250  52.023  1.00  0.00     0.067 C 
HETATM    2  C3  UNL     1      19.913   1.966  52.272  1.00  0.00     0.147 C 
HETATM    3  C4  UNL     1      20.604   0.644  52.319  1.00  0.00     0.099 C 
HETATM    4  N1  UNL     1      21.872   0.167  52.169  1.00  0.00    -0.258 NA
HETATM    5  C5  UNL     1      22.826   1.232  51.887  1.00  0.00     0.229 C 
HETATM    6  N2  UNL     1      23.586   2.003  51.205  1.00  0.00    -0.244 NA
HETATM    7  C6  UNL     1      24.357   3.032  51.943  1.00  0.00     0.201 C 
HETATM    8  C13 UNL     1      25.307   3.616  50.969  1.00  0.00     0.185 C 
HETATM    9  C14 UNL     1      24.941   3.216  49.577  1.00  0.00     0.107 C 
HETATM   10  C15 UNL     1      24.137   4.492  49.725  1.00  0.00     0.184 C 
HETATM   11  O3  UNL     1      24.930   4.948  50.745  1.00  0.00    -0.343 OA
HETATM   12  C16 UNL     1      22.710   4.259  50.020  1.00  0.00     0.139 C 
HETATM   13  C17 UNL     1      21.911   5.257  49.202  1.00  0.00     0.037 C 
HETATM   14  N4  UNL     1      22.337   4.149  51.361  1.00  0.00    -0.369 N 
HETATM   15  C18 UNL     1      21.003   4.524  51.686  1.00  0.00     0.152 C 
HETATM   16  C19 UNL     1      23.270   3.990  52.394  1.00  0.00     0.369 C 
ENDROOT
BRANCH   7  17
HETATM   17  N3  UNL     1      25.063   2.363  52.972  1.00  0.00    -0.357 N 
HETATM   18  H7  UNL     1      24.658   2.417  53.960  1.00  0.00     0.162 HD
BRANCH  17  19
HETATM   19  C7  UNL     1      26.245   1.575  53.057  1.00  0.00     0.031 A 
HETATM   20  C8  UNL     1      27.519   2.033  53.414  1.00  0.00     0.032 A 
HETATM   21  C9  UNL     1      28.593   1.185  53.487  1.00  0.00     0.046 A 
HETATM   22  C10 UNL     1      28.488  -0.160  53.216  1.00  0.00     0.138 A 
HETATM   23  F1  UNL     1      29.621  -0.864  53.328  1.00  0.00    -0.204 F 
HETATM   24  C11 UNL     1      27.251  -0.651  52.860  1.00  0.00     0.074 A 
HETATM   25 CL1  UNL     1      27.202  -2.365  52.532  1.00  0.00    -0.081 Cl
HETATM   26  C12 UNL     1      26.186   0.222  52.794  1.00  0.00     0.056 A 
ENDBRANCH  17  19
ENDBRANCH   7  17
BRANCH  16  27
HETATM   27  N5  UNL     1      23.717   5.188  53.018  1.00  0.00     0.105 N 
HETATM   28  H22 UNL     1      24.188   5.772  52.278  1.00  0.00     0.315 HD
HETATM   29  H23 UNL     1      22.949   5.796  53.382  1.00  0.00     0.315 HD
ENDBRANCH  16  27
BRANCH  10  30
HETATM   30  O2  UNL     1      24.297   5.216  48.518  1.00  0.00    -0.364 OA
HETATM   31  H14 UNL     1      23.757   4.807  47.801  1.00  0.00     0.213 HD
ENDBRANCH  10  30
BRANCH   1  32
HETATM   32  O1  UNL     1      18.902   3.584  52.257  1.00  0.00    -0.388 OA
HETATM   33  C1  UNL     1      17.907   3.187  51.370  1.00  0.00     0.202 C 
ENDBRANCH   1  32
TORSDOF 5
ENDMDL
MODEL 2
REMARK VINA RESULT:      -8.3      3.610      5.060
REMARK  5 active torsions:
REMARK  status: ('A' for Active; 'I' for Inactive)
REMARK    1  A    between atoms: O1_2  and  C2_3 
REMARK    2  A    between atoms: C6_9  and  N3_10 
REMARK    3  A    between atoms: N3_10  and  C7_11 
REMARK    4  A    between atoms: C15_21  and  O2_22 
REMARK    5  A    between atoms: C19_28  and  N5_29 
ROOT
HETATM    1  C2  UNL     1      21.944   0.545  53.517  1.00  0.00     0.067 C 
HETATM    2  C3  UNL     1      23.109  -0.048  53.860  1.00  0.00     0.147 C 
HETATM    3  C4  UNL     1      24.512  -0.068  53.351  1.00  0.00     0.099 C 
HETATM    4  N1  UNL     1      25.228   0.526  52.354  1.00  0.00    -0.258 NA
HETATM    5  C5  UNL     1      24.408   1.434  51.560  1.00  0.00     0.229 C 
HETATM    6  N2  UNL     1      23.686   1.848  50.589  1.00  0.00    -0.244 NA
HETATM    7  C6  UNL     1      23.167   3.235  50.664  1.00  0.00     0.201 C 
HETATM    8  C13 UNL     1      22.575   3.528  49.340  1.00  0.00     0.185 C 
HETATM    9  C14 UNL     1      22.420   2.273  48.546  1.00  0.00     0.107 C 
HETATM   10  C15 UNL     1      21.090   2.314  49.272  1.00  0.00     0.184 C 
HETATM   11  O3  UNL     1      21.189   3.660  49.507  1.00  0.00    -0.343 OA
HETATM   12  C16 UNL     1      21.030   1.418  50.443  1.00  0.00     0.139 C 
HETATM   13  C17 UNL     1      19.660   0.765  50.442  1.00  0.00     0.037 C 
HETATM   14  N4  UNL     1      21.448   1.931  51.672  1.00  0.00    -0.369 N 
HETATM   15  C18 UNL     1      20.863   1.359  52.836  1.00  0.00     0.152 C 
HETATM   16  C19 UNL     1      22.150   3.139  51.787  1.00  0.00     0.369 C 
ENDROOT
BRANCH   7  17
HETATM   17  N3  UNL     1      24.277   4.081  50.902  1.00  0.00    -0.357 N 
HETATM   18  H7  UNL     1      24.426   4.427  51.902  1.00  0.00     0.162 HD
BRANCH  17  19
HETATM   19  C7  UNL     1      25.330   4.632  50.118  1.00  0.00     0.031 A 
HETATM   20  C8  UNL     1      26.421   3.931  49.589  1.00  0.00     0.032 A 
HETATM   21  C9  UNL     1      27.372   4.555  48.825  1.00  0.00     0.046 A 
HETATM   22  C10 UNL     1      27.316   5.898  48.532  1.00  0.00     0.138 A 
HETATM   23  F1  UNL     1      28.315   6.368  47.775  1.00  0.00    -0.204 F 
HETATM   24  C11 UNL     1      26.259   6.624  49.033  1.00  0.00     0.074 A 
HETATM   25 CL1  UNL     1      26.260   8.319  48.616  1.00  0.00    -0.081 Cl
HETATM   26  C12 UNL     1      25.314   5.974  49.799  1.00  0.00     0.056 A 
ENDBRANCH  17  19
ENDBRANCH   7  17
BRANCH  16  27
HETATM   27  N5  UNL     1      21.358   4.300  52.008  1.00  0.00     0.105 N 
HETATM   28  H22 UNL     1      20.349   4.020  51.894  1.00  0.00     0.315 HD
HETATM   29  H23 UNL     1      21.416   4.681  52.980  1.00  0.00     0.315 HD
ENDBRANCH  16  27
BRANCH  10  30
HETATM   30  O2  UNL     1      20.096   1.978  48.320  1.00  0.00    -0.364 OA
HETATM   31  H14 UNL     1      19.388   1.437  48.743  1.00  0.00     0.213 HD
ENDBRANCH  10  30
BRANCH   1  32
HETATM   32  O1  UNL     1      21.364  -0.114  54.626  1.00  0.00    -0.388 OA
HETATM   33  C1  UNL     1      21.201  -1.495  54.629  1.00  0.00     0.202 C 
ENDBRANCH   1  32
TORSDOF 5
ENDMDL
MODEL 3
REMARK VINA RESULT:      -8.0      3.178      6.021
REMARK  5 active torsions:
REMARK  status: ('A' for Active; 'I' for Inactive)
REMARK    1  A    between atoms: O1_2  and  C2_3 
REMARK    2  A    between atoms: C6_9  and  N3_10 
REMARK    3  A    between atoms: N3_10  and  C7_11 
REMARK    4  A    between atoms: C15_21  and  O2_22 
REMARK    5  A    between atoms: C19_28  and  N5_29 
ROOT
HETATM    1  C2  UNL     1      26.141   3.738  49.843  1.00  0.00     0.067 C 
HETATM    2  C3  UNL     1      26.766   2.748  50.521  1.00  0.00     0.147 C 
HETATM    3  C4  UNL     1      26.394   1.724  51.541  1.00  0.00     0.099 C 
HETATM    4  N1  UNL     1      25.268   1.322  52.197  1.00  0.00    -0.258 NA
HETATM    5  C5  UNL     1      24.099   2.098  51.801  1.00  0.00     0.229 C 
HETATM    6  N2  UNL     1      23.190   2.995  51.854  1.00  0.00    -0.244 NA
HETATM    7  C6  UNL     1      22.198   3.032  50.752  1.00  0.00     0.201 C 
HETATM    8  C13 UNL     1      21.149   3.989  51.171  1.00  0.00     0.185 C 
HETATM    9  C14 UNL     1      21.607   4.787  52.346  1.00  0.00     0.107 C 
HETATM   10  C15 UNL     1      22.099   5.656  51.206  1.00  0.00     0.184 C 
HETATM   11  O3  UNL     1      21.214   5.100  50.319  1.00  0.00    -0.343 OA
HETATM   12  C16 UNL     1      23.539   5.500  50.925  1.00  0.00     0.139 C 
HETATM   13  C17 UNL     1      24.096   6.884  50.645  1.00  0.00     0.037 C 
HETATM   14  N4  UNL     1      23.917   4.508  50.018  1.00  0.00    -0.369 N 
HETATM   15  C18 UNL     1      25.127   4.724  49.302  1.00  0.00     0.152 C 
HETATM   16  C19 UNL     1      23.036   3.510  49.580  1.00  0.00     0.369 C 
ENDROOT
BRANCH   7  17
HETATM   17  N3  UNL     1      21.656   1.729  50.638  1.00  0.00    -0.357 N 
HETATM   18  H7  UNL     1      21.970   1.138  49.806  1.00  0.00     0.162 HD
BRANCH  17  19
HETATM   19  C7  UNL     1      20.745   0.932  51.387  1.00  0.00     0.031 A 
HETATM   20  C8  UNL     1      19.374   0.790  51.139  1.00  0.00     0.032 A 
HETATM   21  C9  UNL     1      18.586  -0.024  51.909  1.00  0.00     0.046 A 
HETATM   22  C10 UNL     1      19.087  -0.746  52.968  1.00  0.00     0.138 A 
HETATM   23  F1  UNL     1      18.198  -1.497  53.629  1.00  0.00    -0.204 F 
HETATM   24  C11 UNL     1      20.431  -0.635  53.246  1.00  0.00     0.074 A 
HETATM   25 CL1  UNL     1      20.988  -1.582  54.602  1.00  0.00    -0.081 Cl
HETATM   26  C12 UNL     1      21.204   0.190  52.456  1.00  0.00     0.056 A 
ENDBRANCH  17  19
ENDBRANCH   7  17
BRANCH  16  27
HETATM   27  N5  UNL     1      22.323   3.792  48.381  1.00  0.00     0.105 N 
HETATM   28  H22 UNL     1      22.304   4.839  48.264  1.00  0.00     0.315 HD
HETATM   29  H23 UNL     1      22.786   3.440  47.513  1.00  0.00     0.315 HD
ENDBRANCH  16  27
BRANCH  10  30
HETATM   30  O2  UNL     1      21.787   6.995  51.551  1.00  0.00    -0.364 OA
HETATM   31  H14 UNL     1      21.320   7.022  52.420  1.00  0.00     0.213 HD
ENDBRANCH  10  30
BRANCH   1  32
HETATM   32  O1  UNL     1      27.383   3.995  49.216  1.00  0.00    -0.388 OA
HETATM   33  C1  UNL     1      27.603   5.188  48.536  1.00  0.00     0.202 C 
ENDBRANCH   1  32
TORSDOF 5
ENDMDL
MODEL 4
REMARK VINA RESULT:      -7.9      3.982      5.910
REMARK  5 active torsions:
REMARK  status: ('A' for Active; 'I' for Inactive)
REMARK    1  A    between atoms: O1_2  and  C2_3 
REMARK    2  A    between atoms: C6_9  and  N3_10 
REMARK    3  A    between atoms: N3_10  and  C7_11 
REMARK    4  A    between atoms: C15_21  and  O2_22 
REMARK    5  A    between atoms: C19_28  and  N5_29 
ROOT
HETATM    1  C2  UNL     1      24.209   0.743  52.908  1.00  0.00     0.067 C 
HETATM    2  C3  UNL     1      25.549   0.570  52.963  1.00  0.00     0.147 C 
HETATM    3  C4  UNL     1      26.751   1.167  52.312  1.00  0.00     0.099 C 
HETATM    4  N1  UNL     1      27.021   2.159  51.416  1.00  0.00    -0.258 NA
HETATM    5  C5  UNL     1      25.809   2.830  50.964  1.00  0.00     0.229 C 
HETATM    6  N2  UNL     1      24.818   3.121  50.210  1.00  0.00    -0.244 NA
HETATM    7  C6  UNL     1      23.888   4.177  50.678  1.00  0.00     0.201 C 
HETATM    8  C13 UNL     1      22.989   4.473  49.539  1.00  0.00     0.185 C 
HETATM    9  C14 UNL     1      23.115   3.422  48.486  1.00  0.00     0.107 C 
HETATM   10  C15 UNL     1      22.015   2.831  49.344  1.00  0.00     0.184 C 
HETATM   11  O3  UNL     1      21.699   4.049  49.887  1.00  0.00    -0.343 OA
HETATM   12  C16 UNL     1      22.484   1.774  50.260  1.00  0.00     0.139 C 
HETATM   13  C17 UNL     1      21.439   0.673  50.253  1.00  0.00     0.037 C 
HETATM   14  N4  UNL     1      22.933   2.166  51.523  1.00  0.00    -0.369 N 
HETATM   15  C18 UNL     1      22.809   1.211  52.570  1.00  0.00     0.152 C 
HETATM   16  C19 UNL     1      23.197   3.503  51.850  1.00  0.00     0.369 C 
ENDROOT
BRANCH   7  17
HETATM   17  N3  UNL     1      24.673   5.313  50.989  1.00  0.00    -0.357 N 
HETATM   18  H7  UNL     1      25.021   5.409  51.995  1.00  0.00     0.162 HD
BRANCH  17  19
HETATM   19  C7  UNL     1      25.167   6.442  50.276  1.00  0.00     0.031 A 
HETATM   20  C8  UNL     1      24.721   7.762  50.408  1.00  0.00     0.032 A 
HETATM   21  C9  UNL     1      25.281   8.784  49.687  1.00  0.00     0.046 A 
HETATM   22  C10 UNL     1      26.308   8.579  48.795  1.00  0.00     0.138 A 
HETATM   23  F1  UNL     1      26.754   9.672  48.163  1.00  0.00    -0.204 F 
HETATM   24  C11 UNL     1      26.776   7.294  48.635  1.00  0.00     0.074 A 
HETATM   25 CL1  UNL     1      28.079   7.117  47.486  1.00  0.00    -0.081 Cl
HETATM   26  C12 UNL     1      26.197   6.282  49.372  1.00  0.00     0.056 A 
ENDBRANCH  17  19
ENDBRANCH   7  17
BRANCH  16  27
HETATM   27  N5  UNL     1      22.119   4.225  52.434  1.00  0.00     0.105 N 
HETATM   28  H22 UNL     1      22.529   4.877  53.152  1.00  0.00     0.315 HD
HETATM   29  H23 UNL     1      21.612   4.852  51.770  1.00  0.00     0.315 HD
ENDBRANCH  16  27
BRANCH  10  30
HETATM   30  O2  UNL     1      21.028   2.336  48.455  1.00  0.00    -0.364 OA
HETATM   31  H14 UNL     1      20.140   2.358  48.886  1.00  0.00     0.213 HD
ENDBRANCH  10  30
BRANCH   1  32
HETATM   32  O1  UNL     1      24.108  -0.279  53.881  1.00  0.00    -0.388 OA
HETATM   33  C1  UNL     1      22.883  -0.873  54.165  1.00  0.00     0.202 C 
ENDBRANCH   1  32
TORSDOF 5
ENDMDL
MODEL 5
REMARK VINA RESULT:      -7.9      3.525      5.408
REMARK  5 active torsions:
REMARK  status: ('A' for Active; 'I' for Inactive)
REMARK    1  A    between atoms: O1_2  and  C2_3 
REMARK    2  A    between atoms: C6_9  and  N3_10 
REMARK    3  A    between atoms: N3_10  and  C7_11 
REMARK    4  A    between atoms: C15_21  and  O2_22 
REMARK    5  A    between atoms: C19_28  and  N5_29 
ROOT
HETATM    1  C2  UNL     1      23.256   4.486  48.586  1.00  0.00     0.067 C 
HETATM    2  C3  UNL     1      22.286   3.860  47.883  1.00  0.00     0.147 C 
HETATM    3  C4  UNL     1      21.480   2.611  48.014  1.00  0.00     0.099 C 
HETATM    4  N1  UNL     1      21.346   1.590  48.908  1.00  0.00    -0.258 NA
HETATM    5  C5  UNL     1      22.227   1.753  50.058  1.00  0.00     0.229 C 
HETATM    6  N2  UNL     1      23.249   1.593  50.809  1.00  0.00    -0.244 NA
HETATM    7  C6  UNL     1      23.284   2.341  52.089  1.00  0.00     0.201 C 
HETATM    8  C13 UNL     1      24.436   1.807  52.850  1.00  0.00     0.185 C 
HETATM    9  C14 UNL     1      25.310   0.981  51.966  1.00  0.00     0.107 C 
HETATM   10  C15 UNL     1      25.930   2.351  51.775  1.00  0.00     0.184 C 
HETATM   11  O3  UNL     1      25.397   2.823  52.946  1.00  0.00    -0.343 OA
HETATM   12  C16 UNL     1      25.522   3.013  50.522  1.00  0.00     0.139 C 
HETATM   13  C17 UNL     1      26.754   3.686  49.944  1.00  0.00     0.037 C 
HETATM   14  N4  UNL     1      24.369   3.800  50.551  1.00  0.00    -0.369 N 
HETATM   15  C18 UNL     1      24.300   4.869  49.615  1.00  0.00     0.152 C 
HETATM   16  C19 UNL     1      23.464   3.774  51.622  1.00  0.00     0.369 C 
ENDROOT
BRANCH   7  17
HETATM   17  N3  UNL     1      22.074   2.056  52.768  1.00  0.00    -0.357 N 
HETATM   18  H7  UNL     1      21.513   2.886  53.140  1.00  0.00     0.162 HD
BRANCH  17  19
HETATM   19  C7  UNL     1      21.346   0.883  53.111  1.00  0.00     0.031 A 
HETATM   20  C8  UNL     1      21.791  -0.154  53.940  1.00  0.00     0.032 A 
HETATM   21  C9  UNL     1      20.999  -1.235  54.226  1.00  0.00     0.046 A 
HETATM   22  C10 UNL     1      19.727  -1.370  53.720  1.00  0.00     0.138 A 
HETATM   23  F1  UNL     1      19.073  -2.479  54.086  1.00  0.00    -0.204 F 
HETATM   24  C11 UNL     1      19.251  -0.372  52.899  1.00  0.00     0.074 A 
HETATM   25 CL1  UNL     1      17.630  -0.617  52.299  1.00  0.00    -0.081 Cl
HETATM   26  C12 UNL     1      20.066   0.707  52.626  1.00  0.00     0.056 A 
ENDBRANCH  17  19
ENDBRANCH   7  17
BRANCH  16  27
HETATM   27  N5  UNL     1      23.683   4.738  52.645  1.00  0.00     0.105 N 
HETATM   28  H22 UNL     1      23.189   4.397  53.510  1.00  0.00     0.315 HD
HETATM   29  H23 UNL     1      24.682   4.837  52.936  1.00  0.00     0.315 HD
ENDBRANCH  16  27
BRANCH  10  30
HETATM   30  O2  UNL     1      27.335   2.172  51.825  1.00  0.00    -0.364 OA
HETATM   31  H14 UNL     1      27.782   3.035  51.993  1.00  0.00     0.213 HD
ENDBRANCH  10  30
BRANCH   1  32
HETATM   32  O1  UNL     1      23.235   5.488  47.588  1.00  0.00    -0.388 OA
HETATM   33  C1  UNL     1      23.735   6.760  47.845  1.00  0.00     0.202 C 
ENDBRANCH   1  32
TORSDOF 5
ENDMDL
MODEL 6
REMARK VINA RESULT:      -7.5      4.997      6.653
REMARK  5 active torsions:
REMARK  status: ('A' for Active; 'I' for Inactive)
REMARK    1  A    between atoms: O1_2  and  C2_3 
REMARK    2  A    between atoms: C6_9  and  N3_10 
REMARK    3  A    between atoms: N3_10  and  C7_11 
REMARK    4  A    between atoms: C15_21  and  O2_22 
REMARK    5  A    between atoms: C19_28  and  N5_29 
ROOT
HETATM    1  C2  UNL     1      24.240   3.229  52.123  1.00  0.00     0.067 C 
HETATM    2  C3  UNL     1      25.246   2.361  51.875  1.00  0.00     0.147 C 
HETATM    3  C4  UNL     1      26.384   2.259  50.915  1.00  0.00     0.099 C 
HETATM    4  N1  UNL     1      26.919   3.006  49.908  1.00  0.00    -0.258 NA
HETATM    5  C5  UNL     1      26.188   4.250  49.703  1.00  0.00     0.229 C 
HETATM    6  N2  UNL     1      25.361   5.075  49.183  1.00  0.00    -0.244 NA
HETATM    7  C6  UNL     1      25.284   6.433  49.775  1.00  0.00     0.201 C 
HETATM    8  C13 UNL     1      24.442   7.237  48.860  1.00  0.00     0.185 C 
HETATM    9  C14 UNL     1      23.731   6.352  47.890  1.00  0.00     0.107 C 
HETATM   10  C15 UNL     1      22.727   6.391  49.026  1.00  0.00     0.184 C 
HETATM   11  O3  UNL     1      23.253   7.551  49.533  1.00  0.00    -0.343 OA
HETATM   12  C16 UNL     1      22.761   5.192  49.885  1.00  0.00     0.139 C 
HETATM   13  C17 UNL     1      21.324   4.827  50.208  1.00  0.00     0.037 C 
HETATM   14  N4  UNL     1      23.636   5.200  50.972  1.00  0.00    -0.369 N 
HETATM   15  C18 UNL     1      23.275   4.397  52.089  1.00  0.00     0.152 C 
HETATM   16  C19 UNL     1      24.644   6.162  51.124  1.00  0.00     0.369 C 
ENDROOT
BRANCH   7  17
HETATM   17  N3  UNL     1      26.603   6.947  49.804  1.00  0.00    -0.357 N 
HETATM   18  H7  UNL     1      27.169   6.797  50.698  1.00  0.00     0.162 HD
BRANCH  17  19
HETATM   19  C7  UNL     1      27.445   7.657  48.902  1.00  0.00     0.031 A 
HETATM   20  C8  UNL     1      27.926   7.183  47.675  1.00  0.00     0.032 A 
HETATM   21  C9  UNL     1      28.716   7.958  46.867  1.00  0.00     0.046 A 
HETATM   22  C10 UNL     1      29.084   9.240  47.207  1.00  0.00     0.138 A 
HETATM   23  F1  UNL     1      29.858   9.875  46.319  1.00  0.00    -0.204 F 
HETATM   24  C11 UNL     1      28.631   9.744  48.406  1.00  0.00     0.074 A 
HETATM   25 CL1  UNL     1      29.141  11.374  48.764  1.00  0.00    -0.081 Cl
HETATM   26  C12 UNL     1      27.837   8.945  49.202  1.00  0.00     0.056 A 
ENDBRANCH  17  19
ENDBRANCH   7  17
BRANCH  16  27
HETATM   27  N5  UNL     1      24.297   7.311  51.888  1.00  0.00     0.105 N 
HETATM   28  H22 UNL     1      25.160   7.617  52.408  1.00  0.00     0.315 HD
HETATM   29  H23 UNL     1      24.027   8.143  51.316  1.00  0.00     0.315 HD
ENDBRANCH  16  27
BRANCH  10  30
HETATM   30  O2  UNL     1      21.450   6.560  48.435  1.00  0.00    -0.364 OA
HETATM   31  H14 UNL     1      20.913   5.740  48.544  1.00  0.00     0.213 HD
ENDBRANCH  10  30
BRANCH   1  32
HETATM   32  O1  UNL     1      23.844   2.362  53.168  1.00  0.00    -0.388 OA
HETATM   33  C1  UNL     1      23.326   1.102  52.890  1.00  0.00     0.202 C 
ENDBRANCH   1  32
TORSDOF 5
ENDMDL
MODEL 7
REMARK VINA RESULT:      -7.4      2.175      4.464
REMARK  5 active torsions:
REMARK  status: ('A' for Active; 'I' for Inactive)
REMARK    1  A    between atoms: O1_2  and  C2_3 
REMARK    2  A    between atoms: C6_9  and  N3_10 
REMARK    3  A    between atoms: N3_10  and  C7_11 
REMARK    4  A    between atoms: C15_21  and  O2_22 
REMARK    5  A    between atoms: C19_28  and  N5_29 
ROOT
HETATM    1  C2  UNL     1      23.121   5.868  47.812  1.00  0.00     0.067 C 
HETATM    2  C3  UNL     1      24.096   6.798  47.694  1.00  0.00     0.147 C 
HETATM    3  C4  UNL     1      25.243   7.284  48.516  1.00  0.00     0.099 C 
HETATM    4  N1  UNL     1      25.821   6.980  49.713  1.00  0.00    -0.258 NA
HETATM    5  C5  UNL     1      25.143   5.877  50.383  1.00  0.00     0.229 C 
HETATM    6  N2  UNL     1      24.357   5.277  51.193  1.00  0.00    -0.244 NA
HETATM    7  C6  UNL     1      24.326   3.795  51.147  1.00  0.00     0.201 C 
HETATM    8  C13 UNL     1      23.530   3.361  52.317  1.00  0.00     0.185 C 
HETATM    9  C14 UNL     1      22.798   4.518  52.912  1.00  0.00     0.107 C 
HETATM   10  C15 UNL     1      21.780   4.030  51.899  1.00  0.00     0.184 C 
HETATM   11  O3  UNL     1      22.345   2.783  51.841  1.00  0.00    -0.343 OA
HETATM   12  C16 UNL     1      21.754   4.827  50.658  1.00  0.00     0.139 C 
HETATM   13  C17 UNL     1      20.299   5.001  50.263  1.00  0.00     0.037 C 
HETATM   14  N4  UNL     1      22.613   4.445  49.626  1.00  0.00    -0.369 N 
HETATM   15  C18 UNL     1      22.204   4.766  48.302  1.00  0.00     0.152 C 
HETATM   16  C19 UNL     1      23.656   3.527  49.812  1.00  0.00     0.369 C 
ENDROOT
BRANCH   7  17
HETATM   17  N3  UNL     1      25.664   3.348  51.272  1.00  0.00    -0.357 N 
HETATM   18  H7  UNL     1      26.429   3.969  50.860  1.00  0.00     0.162 HD
BRANCH  17  19
HETATM   19  C7  UNL     1      26.315   2.219  51.843  1.00  0.00     0.031 A 
HETATM   20  C8  UNL     1      26.015   0.875  51.588  1.00  0.00     0.032 A 
HETATM   21  C9  UNL     1      26.721  -0.141  52.176  1.00  0.00     0.046 A 
HETATM   22  C10 UNL     1      27.760   0.091  53.047  1.00  0.00     0.138 A 
HETATM   23  F1  UNL     1      28.357  -1.000  53.543  1.00  0.00    -0.204 F 
HETATM   24  C11 UNL     1      28.088   1.400  53.325  1.00  0.00     0.074 A 
HETATM   25 CL1  UNL     1      29.416   1.611  54.438  1.00  0.00    -0.081 Cl
HETATM   26  C12 UNL     1      27.363   2.406  52.721  1.00  0.00     0.056 A 
ENDBRANCH  17  19
ENDBRANCH   7  17
BRANCH  16  27
HETATM   27  N5  UNL     1      23.344   2.167  49.535  1.00  0.00     0.105 N 
HETATM   28  H22 UNL     1      24.234   1.695  49.230  1.00  0.00     0.315 HD
HETATM   29  H23 UNL     1      23.030   1.620  50.369  1.00  0.00     0.315 HD
ENDBRANCH  16  27
BRANCH  10  30
HETATM   30  O2  UNL     1      20.520   4.051  52.546  1.00  0.00    -0.364 OA
HETATM   31  H14 UNL     1      19.852   4.499  51.976  1.00  0.00     0.213 HD
ENDBRANCH  10  30
BRANCH   1  32
HETATM   32  O1  UNL     1      22.675   6.275  46.533  1.00  0.00    -0.388 OA
HETATM   33  C1  UNL     1      22.019   5.383  45.691  1.00  0.00     0.202 C 
ENDBRANCH   1  32
TORSDOF 5
ENDMDL
MODEL 8
REMARK VINA RESULT:      -7.4      3.752      6.640
REMARK  5 active torsions:
REMARK  status: ('A' for Active; 'I' for Inactive)
REMARK    1  A    between atoms: O1_2  and  C2_3 
REMARK    2  A    between atoms: C6_9  and  N3_10 
REMARK    3  A    between atoms: N3_10  and  C7_11 
REMARK    4  A    between atoms: C15_21  and  O2_22 
REMARK    5  A    between atoms: C19_28  and  N5_29 
ROOT
HETATM    1  C2  UNL     1      25.742   2.173  51.699  1.00  0.00     0.067 C 
HETATM    2  C3  UNL     1      25.828   1.133  52.558  1.00  0.00     0.147 C 
HETATM    3  C4  UNL     1      24.880   0.275  53.328  1.00  0.00     0.099 C 
HETATM    4  N1  UNL     1      23.530   0.146  53.470  1.00  0.00    -0.258 NA
HETATM    5  C5  UNL     1      22.801   1.102  52.646  1.00  0.00     0.229 C 
HETATM    6  N2  UNL     1      22.150   2.159  52.339  1.00  0.00    -0.244 NA
HETATM    7  C6  UNL     1      21.709   2.308  50.932  1.00  0.00     0.201 C 
HETATM    8  C13 UNL     1      20.800   3.477  50.903  1.00  0.00     0.185 C 
HETATM    9  C14 UNL     1      20.907   4.253  52.174  1.00  0.00     0.107 C 
HETATM   10  C15 UNL     1      21.978   4.927  51.340  1.00  0.00     0.184 C 
HETATM   11  O3  UNL     1      21.425   4.491  50.165  1.00  0.00    -0.343 OA
HETATM   12  C16 UNL     1      23.346   4.477  51.661  1.00  0.00     0.139 C 
HETATM   13  C17 UNL     1      24.240   5.704  51.649  1.00  0.00     0.037 C 
HETATM   14  N4  UNL     1      23.841   3.369  50.972  1.00  0.00    -0.369 N 
HETATM   15  C18 UNL     1      25.252   3.296  50.808  1.00  0.00     0.152 C 
HETATM   16  C19 UNL     1      23.022   2.531  50.203  1.00  0.00     0.369 C 
ENDROOT
BRANCH   7  17
HETATM   17  N3  UNL     1      21.002   1.130  50.592  1.00  0.00    -0.357 N 
HETATM   18  H7  UNL     1      21.536   0.372  50.060  1.00  0.00     0.162 HD
BRANCH  17  19
HETATM   19  C7  UNL     1      19.679   0.640  50.783  1.00  0.00     0.031 A 
HETATM   20  C8  UNL     1      18.594   0.831  49.919  1.00  0.00     0.032 A 
HETATM   21  C9  UNL     1      17.361   0.296  50.187  1.00  0.00     0.046 A 
HETATM   22  C10 UNL     1      17.113  -0.456  51.312  1.00  0.00     0.138 A 
HETATM   23  F1  UNL     1      15.861  -0.913  51.440  1.00  0.00    -0.204 F 
HETATM   24  C11 UNL     1      18.154  -0.668  52.188  1.00  0.00     0.074 A 
HETATM   25 CL1  UNL     1      17.759  -1.630  53.590  1.00  0.00    -0.081 Cl
HETATM   26  C12 UNL     1      19.386  -0.119  51.897  1.00  0.00     0.056 A 
ENDBRANCH  17  19
ENDBRANCH   7  17
BRANCH  16  27
HETATM   27  N5  UNL     1      22.918   2.859  48.822  1.00  0.00     0.105 N 
HETATM   28  H22 UNL     1      23.261   2.027  48.274  1.00  0.00     0.315 HD
HETATM   29  H23 UNL     1      21.939   3.007  48.488  1.00  0.00     0.315 HD
ENDBRANCH  16  27
BRANCH  10  30
HETATM   30  O2  UNL     1      21.837   6.322  51.547  1.00  0.00    -0.364 OA
HETATM   31  H14 UNL     1      20.889   6.584  51.470  1.00  0.00     0.213 HD
ENDBRANCH  10  30
BRANCH   1  32
HETATM   32  O1  UNL     1      27.154   2.142  51.629  1.00  0.00    -0.388 OA
HETATM   33  C1  UNL     1      27.926   2.176  52.786  1.00  0.00     0.202 C 
ENDBRANCH   1  32
TORSDOF 5
ENDMDL
MODEL 9
REMARK VINA RESULT:      -7.4      3.322      4.430
REMARK  5 active torsions:
REMARK  status: ('A' for Active; 'I' for Inactive)
REMARK    1  A    between atoms: O1_2  and  C2_3 
REMARK    2  A    between atoms: C6_9  and  N3_10 
REMARK    3  A    between atoms: N3_10  and  C7_11 
REMARK    4  A    between atoms: C15_21  and  O2_22 
REMARK    5  A    between atoms: C19_28  and  N5_29 
ROOT
HETATM    1  C2  UNL     1      21.300   7.466  49.646  1.00  0.00     0.067 C 
HETATM    2  C3  UNL     1      20.066   6.949  49.458  1.00  0.00     0.147 C 
HETATM    3  C4  UNL     1      19.431   5.599  49.509  1.00  0.00     0.099 C 
HETATM    4  N1  UNL     1      19.808   4.321  49.798  1.00  0.00    -0.258 NA
HETATM    5  C5  UNL     1      21.217   4.237  50.163  1.00  0.00     0.229 C 
HETATM    6  N2  UNL     1      22.473   4.033  50.031  1.00  0.00    -0.244 NA
HETATM    7  C6  UNL     1      23.332   4.260  51.218  1.00  0.00     0.201 C 
HETATM    8  C13 UNL     1      24.672   3.738  50.865  1.00  0.00     0.185 C 
HETATM    9  C14 UNL     1      24.765   3.483  49.398  1.00  0.00     0.107 C 
HETATM   10  C15 UNL     1      25.224   4.926  49.463  1.00  0.00     0.184 C 
HETATM   11  O3  UNL     1      25.553   4.825  50.790  1.00  0.00    -0.343 OA
HETATM   12  C16 UNL     1      24.177   5.895  49.089  1.00  0.00     0.139 C 
HETATM   13  C17 UNL     1      24.837   6.968  48.242  1.00  0.00     0.037 C 
HETATM   14  N4  UNL     1      23.338   6.364  50.102  1.00  0.00    -0.369 N 
HETATM   15  C18 UNL     1      22.778   7.659  49.920  1.00  0.00     0.152 C 
HETATM   16  C19 UNL     1      23.280   5.770  51.370  1.00  0.00     0.369 C 
ENDROOT
BRANCH   7  17
HETATM   17  N3  UNL     1      22.778   3.509  52.282  1.00  0.00    -0.357 N 
HETATM   18  H7  UNL     1      22.347   4.052  53.095  1.00  0.00     0.162 HD
BRANCH  17  19
HETATM   19  C7  UNL     1      22.621   2.127  52.585  1.00  0.00     0.031 A 
HETATM   20  C8  UNL     1      23.650   1.221  52.870  1.00  0.00     0.032 A 
HETATM   21  C9  UNL     1      23.390  -0.090  53.172  1.00  0.00     0.046 A 
HETATM   22  C10 UNL     1      22.111  -0.595  53.213  1.00  0.00     0.138 A 
HETATM   23  F1  UNL     1      22.010  -1.894  53.522  1.00  0.00    -0.204 F 
HETATM   24  C11 UNL     1      21.069   0.263  52.939  1.00  0.00     0.074 A 
HETATM   25 CL1  UNL     1      19.479  -0.454  53.012  1.00  0.00    -0.081 Cl
HETATM   26  C12 UNL     1      21.357   1.578  52.638  1.00  0.00     0.056 A 
ENDBRANCH  17  19
ENDBRANCH   7  17
BRANCH  16  27
HETATM   27  N5  UNL     1      24.141   6.325  52.357  1.00  0.00     0.105 N 
HETATM   28  H22 UNL     1      23.952   5.819  53.261  1.00  0.00     0.315 HD
HETATM   29  H23 UNL     1      25.159   6.167  52.178  1.00  0.00     0.315 HD
ENDBRANCH  16  27
BRANCH  10  30
HETATM   30  O2  UNL     1      26.350   5.034  48.609  1.00  0.00    -0.364 OA
HETATM   31  H14 UNL     1      26.950   5.751  48.925  1.00  0.00     0.213 HD
ENDBRANCH  10  30
BRANCH   1  32
HETATM   32  O1  UNL     1      20.737   8.732  49.365  1.00  0.00    -0.388 OA
HETATM   33  C1  UNL     1      19.643   9.201  50.086  1.00  0.00     0.202 C 
ENDBRANCH   1  32
TORSDOF 5
ENDMDL
