MODEL 1
REMARK VINA RESULT:      -7.3      0.000      0.000
REMARK  6 active torsions:
REMARK  status: ('A' for Active; 'I' for Inactive)
REMARK    1  A    between atoms: C3_3  and  C4_4 
REMARK    2  A    between atoms: C5_5  and  C6_6 
REMARK    3  A    between atoms: C6_6  and  N1_7 
REMARK    4  A    between atoms: N1_7  and  C7_8 
REMARK    5  A    between atoms: C7_8  and  C9_10 
REMARK    6  A    between atoms: C15_18  and  O1_19 
ROOT
HETATM    1  C9  UNL     1      26.309   1.473  53.528  1.00  0.00     0.118 A 
HETATM    2  C10 UNL     1      27.043   0.443  54.323  1.00  0.00     0.088 A 
HETATM    3  S1  UNL     1      28.642   0.540  54.646  1.00  0.00    -0.065 SA
HETATM    4  N2  UNL     1      26.075  -0.549  54.689  1.00  0.00    -0.349 N 
HETATM    5  C11 UNL     1      24.802  -0.173  54.159  1.00  0.00     0.042 A 
HETATM    6  C12 UNL     1      23.608  -0.857  54.284  1.00  0.00     0.030 A 
HETATM    7  C13 UNL     1      22.480  -0.327  53.694  1.00  0.00     0.005 A 
HETATM    8  C14 UNL     1      22.615   0.881  52.999  1.00  0.00     0.037 A 
HETATM    9  C15 UNL     1      23.801   1.563  52.872  1.00  0.00     0.075 A 
HETATM   10  C16 UNL     1      24.915   1.017  53.468  1.00  0.00     0.015 A 
HETATM   11  H16 UNL     1      26.390  -1.366  55.257  1.00  0.00     0.166 HD
ENDROOT
BRANCH   1  12
HETATM   12  C7  UNL     1      26.950   1.744  52.207  1.00  0.00     0.232 C 
HETATM   13  C8  UNL     1      26.645   0.631  51.264  1.00  0.00     0.043 C 
BRANCH  12  14
HETATM   14  N1  UNL     1      26.591   3.048  51.680  1.00  0.00     0.092 N 
HETATM   15  H10 UNL     1      25.737   3.421  52.109  1.00  0.00     0.316 HD
BRANCH  14  16
HETATM   16  C6  UNL     1      26.521   2.992  50.234  1.00  0.00     0.297 C 
BRANCH  16  17
HETATM   17  C5  UNL     1      26.012   4.270  49.688  1.00  0.00     0.003 C 
HETATM   18  C4  UNL     1      26.625   5.179  48.959  1.00  0.00    -0.003 C 
BRANCH  18  19
HETATM   19  C3  UNL     1      27.998   5.050  48.552  1.00  0.00    -0.005 C 
HETATM   20  C2  UNL     1      28.664   6.127  48.150  1.00  0.00    -0.031 C 
HETATM   21  C1  UNL     1      30.086   6.085  47.711  1.00  0.00     0.036 C 
ENDBRANCH  18  19
ENDBRANCH  16  17
ENDBRANCH  14  16
ENDBRANCH  12  14
ENDBRANCH   1  12
BRANCH   9  22
HETATM   22  O1  UNL     1      23.851   2.752  52.167  1.00  0.00    -0.360 OA
HETATM   23  H20 UNL     1      23.410   2.724  51.244  1.00  0.00     0.217 HD
ENDBRANCH   9  22
TORSDOF 6
ENDMDL
MODEL 2
REMARK VINA RESULT:      -7.3      3.146      4.949
REMARK  6 active torsions:
REMARK  status: ('A' for Active; 'I' for Inactive)
REMARK    1  A    between atoms: C3_3  and  C4_4 
REMARK    2  A    between atoms: C5_5  and  C6_6 
REMARK    3  A    between atoms: C6_6  and  N1_7 
REMARK    4  A    between atoms: N1_7  and  C7_8 
REMARK    5  A    between atoms: C7_8  and  C9_10 
REMARK    6  A    between atoms: C15_18  and  O1_19 
ROOT
HETATM    1  C9  UNL     1      24.214   1.298  53.174  1.00  0.00     0.118 A 
HETATM    2  C10 UNL     1      23.434   0.060  53.476  1.00  0.00     0.088 A 
HETATM    3  S1  UNL     1      23.683  -0.844  54.815  1.00  0.00    -0.065 SA
HETATM    4  N2  UNL     1      22.508  -0.108  52.395  1.00  0.00    -0.349 N 
HETATM    5  C11 UNL     1      22.687   0.959  51.461  1.00  0.00     0.042 A 
HETATM    6  C12 UNL     1      21.994   1.165  50.284  1.00  0.00     0.030 A 
HETATM    7  C13 UNL     1      22.318   2.261  49.512  1.00  0.00     0.005 A 
HETATM    8  C14 UNL     1      23.336   3.104  49.973  1.00  0.00     0.037 A 
HETATM    9  C15 UNL     1      24.028   2.901  51.143  1.00  0.00     0.075 A 
HETATM   10  C16 UNL     1      23.690   1.801  51.898  1.00  0.00     0.015 A 
HETATM   11  H16 UNL     1      21.860  -0.926  52.417  1.00  0.00     0.166 HD
ENDROOT
BRANCH   1  12
HETATM   12  C7  UNL     1      25.689   1.072  53.214  1.00  0.00     0.232 C 
HETATM   13  C8  UNL     1      26.120   0.357  51.980  1.00  0.00     0.043 C 
BRANCH  12  14
HETATM   14  N1  UNL     1      26.426   2.302  53.443  1.00  0.00     0.092 N 
HETATM   15  H10 UNL     1      25.891   3.135  53.170  1.00  0.00     0.316 HD
BRANCH  14  16
HETATM   16  C6  UNL     1      27.722   2.225  52.802  1.00  0.00     0.297 C 
BRANCH  16  17
HETATM   17  C5  UNL     1      28.804   2.247  53.813  1.00  0.00     0.003 C 
HETATM   18  C4  UNL     1      29.347   1.254  54.487  1.00  0.00    -0.003 C 
BRANCH  18  19
HETATM   19  C3  UNL     1      28.932  -0.113  54.325  1.00  0.00    -0.005 C 
HETATM   20  C2  UNL     1      29.584  -0.897  53.475  1.00  0.00    -0.031 C 
HETATM   21  C1  UNL     1      29.222  -2.323  53.244  1.00  0.00     0.036 C 
ENDBRANCH  18  19
ENDBRANCH  16  17
ENDBRANCH  14  16
ENDBRANCH  12  14
ENDBRANCH   1  12
BRANCH   9  22
HETATM   22  O1  UNL     1      25.023   3.781  51.528  1.00  0.00    -0.360 OA
HETATM   23  H20 UNL     1      25.356   3.661  52.489  1.00  0.00     0.217 HD
ENDBRANCH   9  22
TORSDOF 6
ENDMDL
MODEL 3
REMARK VINA RESULT:      -7.2      3.525      5.044
REMARK  6 active torsions:
REMARK  status: ('A' for Active; 'I' for Inactive)
REMARK    1  A    between atoms: C3_3  and  C4_4 
REMARK    2  A    between atoms: C5_5  and  C6_6 
REMARK    3  A    between atoms: C6_6  and  N1_7 
REMARK    4  A    between atoms: N1_7  and  C7_8 
REMARK    5  A    between atoms: C7_8  and  C9_10 
REMARK    6  A    between atoms: C15_18  and  O1_19 
ROOT
HETATM    1  C9  UNL     1      23.911   1.134  51.768  1.00  0.00     0.118 A 
HETATM    2  C10 UNL     1      22.854   1.869  51.010  1.00  0.00     0.088 A 
HETATM    3  S1  UNL     1      23.181   2.818  49.720  1.00  0.00    -0.065 SA
HETATM    4  N2  UNL     1      21.609   1.556  51.647  1.00  0.00    -0.349 N 
HETATM    5  C11 UNL     1      21.857   0.675  52.744  1.00  0.00     0.042 A 
HETATM    6  C12 UNL     1      20.927   0.138  53.614  1.00  0.00     0.030 A 
HETATM    7  C13 UNL     1      21.369  -0.698  54.617  1.00  0.00     0.005 A 
HETATM    8  C14 UNL     1      22.744  -0.953  54.694  1.00  0.00     0.037 A 
HETATM    9  C15 UNL     1      23.671  -0.420  53.831  1.00  0.00     0.075 A 
HETATM   10  C16 UNL     1      23.209   0.412  52.837  1.00  0.00     0.015 A 
HETATM   11  H16 UNL     1      20.733   1.976  51.263  1.00  0.00     0.166 HD
ENDROOT
BRANCH   1  12
HETATM   12  C7  UNL     1      25.019   2.025  52.220  1.00  0.00     0.232 C 
HETATM   13  C8  UNL     1      24.566   2.837  53.385  1.00  0.00     0.043 C 
BRANCH  12  14
HETATM   14  N1  UNL     1      26.242   1.289  52.484  1.00  0.00     0.092 N 
HETATM   15  H10 UNL     1      26.236   0.839  53.407  1.00  0.00     0.316 HD
BRANCH  14  16
HETATM   16  C6  UNL     1      27.389   2.149  52.279  1.00  0.00     0.297 C 
BRANCH  16  17
HETATM   17  C5  UNL     1      28.127   2.342  53.548  1.00  0.00     0.003 C 
HETATM   18  C4  UNL     1      29.056   1.592  54.105  1.00  0.00    -0.003 C 
BRANCH  18  19
HETATM   19  C3  UNL     1      29.528   0.371  53.511  1.00  0.00    -0.005 C 
HETATM   20  C2  UNL     1      28.958  -0.781  53.846  1.00  0.00    -0.031 C 
HETATM   21  C1  UNL     1      29.383  -2.091  53.281  1.00  0.00     0.036 C 
ENDBRANCH  18  19
ENDBRANCH  16  17
ENDBRANCH  14  16
ENDBRANCH  12  14
ENDBRANCH   1  12
BRANCH   9  22
HETATM   22  O1  UNL     1      25.013  -0.721  53.975  1.00  0.00    -0.360 OA
HETATM   23  H20 UNL     1      25.208  -1.663  54.327  1.00  0.00     0.217 HD
ENDBRANCH   9  22
TORSDOF 6
ENDMDL
MODEL 4
REMARK VINA RESULT:      -7.1      2.454      3.066
REMARK  6 active torsions:
REMARK  status: ('A' for Active; 'I' for Inactive)
REMARK    1  A    between atoms: C3_3  and  C4_4 
REMARK    2  A    between atoms: C5_5  and  C6_6 
REMARK    3  A    between atoms: C6_6  and  N1_7 
REMARK    4  A    between atoms: N1_7  and  C7_8 
REMARK    5  A    between atoms: C7_8  and  C9_10 
REMARK    6  A    between atoms: C15_18  and  O1_19 
ROOT
HETATM    1  C9  UNL     1      24.205   1.363  51.788  1.00  0.00     0.118 A 
HETATM    2  C10 UNL     1      22.792   1.369  51.300  1.00  0.00     0.088 A 
HETATM    3  S1  UNL     1      22.306   2.216  49.990  1.00  0.00    -0.065 SA
HETATM    4  N2  UNL     1      22.054   0.523  52.192  1.00  0.00    -0.349 N 
HETATM    5  C11 UNL     1      22.942   0.011  53.187  1.00  0.00     0.042 A 
HETATM    6  C12 UNL     1      22.629  -0.839  54.231  1.00  0.00     0.030 A 
HETATM    7  C13 UNL     1      23.634  -1.222  55.093  1.00  0.00     0.005 A 
HETATM    8  C14 UNL     1      24.920  -0.722  54.856  1.00  0.00     0.037 A 
HETATM    9  C15 UNL     1      25.235   0.123  53.820  1.00  0.00     0.075 A 
HETATM   10  C16 UNL     1      24.217   0.494  52.971  1.00  0.00     0.015 A 
HETATM   11  H16 UNL     1      21.032   0.391  52.021  1.00  0.00     0.166 HD
ENDROOT
BRANCH   1  12
HETATM   12  C7  UNL     1      24.744   2.739  52.000  1.00  0.00     0.232 C 
HETATM   13  C8  UNL     1      24.267   3.268  53.310  1.00  0.00     0.043 C 
BRANCH  12  14
HETATM   14  N1  UNL     1      26.188   2.789  51.861  1.00  0.00     0.092 N 
HETATM   15  H10 UNL     1      26.611   3.531  52.431  1.00  0.00     0.316 HD
BRANCH  14  16
HETATM   16  C6  UNL     1      26.545   2.875  50.461  1.00  0.00     0.297 C 
BRANCH  16  17
HETATM   17  C5  UNL     1      25.929   4.069  49.839  1.00  0.00     0.003 C 
HETATM   18  C4  UNL     1      26.451   4.955  49.016  1.00  0.00    -0.003 C 
BRANCH  18  19
HETATM   19  C3  UNL     1      27.813   4.884  48.562  1.00  0.00    -0.005 C 
HETATM   20  C2  UNL     1      28.483   6.007  48.330  1.00  0.00    -0.031 C 
HETATM   21  C1  UNL     1      29.895   6.027  47.858  1.00  0.00     0.036 C 
ENDBRANCH  18  19
ENDBRANCH  16  17
ENDBRANCH  14  16
ENDBRANCH  12  14
ENDBRANCH   1  12
BRANCH   9  22
HETATM   22  O1  UNL     1      26.532   0.574  53.655  1.00  0.00    -0.360 OA
HETATM   23  H20 UNL     1      26.636   1.359  53.006  1.00  0.00     0.217 HD
ENDBRANCH   9  22
TORSDOF 6
ENDMDL
MODEL 5
REMARK VINA RESULT:      -7.1      2.280      3.244
REMARK  6 active torsions:
REMARK  status: ('A' for Active; 'I' for Inactive)
REMARK    1  A    between atoms: C3_3  and  C4_4 
REMARK    2  A    between atoms: C5_5  and  C6_6 
REMARK    3  A    between atoms: C6_6  and  N1_7 
REMARK    4  A    between atoms: N1_7  and  C7_8 
REMARK    5  A    between atoms: C7_8  and  C9_10 
REMARK    6  A    between atoms: C15_18  and  O1_19 
ROOT
HETATM    1  C9  UNL     1      24.714   1.805  51.769  1.00  0.00     0.118 A 
HETATM    2  C10 UNL     1      23.536   0.942  52.090  1.00  0.00     0.088 A 
HETATM    3  S1  UNL     1      22.094   1.087  51.335  1.00  0.00    -0.065 SA
HETATM    4  N2  UNL     1      23.962   0.048  53.127  1.00  0.00    -0.349 N 
HETATM    5  C11 UNL     1      25.327   0.325  53.447  1.00  0.00     0.042 A 
HETATM    6  C12 UNL     1      26.111  -0.310  54.391  1.00  0.00     0.030 A 
HETATM    7  C13 UNL     1      27.415   0.107  54.553  1.00  0.00     0.005 A 
HETATM    8  C14 UNL     1      27.868   1.156  53.744  1.00  0.00     0.037 A 
HETATM    9  C15 UNL     1      27.092   1.790  52.804  1.00  0.00     0.075 A 
HETATM   10  C16 UNL     1      25.793   1.359  52.659  1.00  0.00     0.015 A 
HETATM   11  H16 UNL     1      23.277  -0.647  53.497  1.00  0.00     0.166 HD
ENDROOT
BRANCH   1  12
HETATM   12  C7  UNL     1      24.393   3.261  51.832  1.00  0.00     0.232 C 
HETATM   13  C8  UNL     1      24.219   3.674  53.253  1.00  0.00     0.043 C 
BRANCH  12  14
HETATM   14  N1  UNL     1      25.369   4.068  51.122  1.00  0.00     0.092 N 
HETATM   15  H10 UNL     1      25.428   5.024  51.492  1.00  0.00     0.316 HD
BRANCH  14  16
HETATM   16  C6  UNL     1      25.101   4.026  49.700  1.00  0.00     0.297 C 
BRANCH  16  17
HETATM   17  C5  UNL     1      25.220   5.377  49.108  1.00  0.00     0.003 C 
HETATM   18  C4  UNL     1      26.274   5.989  48.608  1.00  0.00    -0.003 C 
BRANCH  18  19
HETATM   19  C3  UNL     1      27.575   5.379  48.560  1.00  0.00    -0.005 C 
HETATM   20  C2  UNL     1      28.617   6.094  48.151  1.00  0.00    -0.031 C 
HETATM   21  C1  UNL     1      29.998   5.544  48.070  1.00  0.00     0.036 C 
ENDBRANCH  18  19
ENDBRANCH  16  17
ENDBRANCH  14  16
ENDBRANCH  12  14
ENDBRANCH   1  12
BRANCH   9  22
HETATM   22  O1  UNL     1      27.615   2.820  52.044  1.00  0.00    -0.360 OA
HETATM   23  H20 UNL     1      26.950   3.560  51.806  1.00  0.00     0.217 HD
ENDBRANCH   9  22
TORSDOF 6
ENDMDL
MODEL 6
REMARK VINA RESULT:      -7.0      1.648      2.852
REMARK  6 active torsions:
REMARK  status: ('A' for Active; 'I' for Inactive)
REMARK    1  A    between atoms: C3_3  and  C4_4 
REMARK    2  A    between atoms: C5_5  and  C6_6 
REMARK    3  A    between atoms: C6_6  and  N1_7 
REMARK    4  A    between atoms: N1_7  and  C7_8 
REMARK    5  A    between atoms: C7_8  and  C9_10 
REMARK    6  A    between atoms: C15_18  and  O1_19 
ROOT
HETATM    1  C9  UNL     1      26.169   1.329  53.672  1.00  0.00     0.118 A 
HETATM    2  C10 UNL     1      26.863   0.208  54.375  1.00  0.00     0.088 A 
HETATM    3  S1  UNL     1      28.464   0.218  54.701  1.00  0.00    -0.065 SA
HETATM    4  N2  UNL     1      25.859  -0.775  54.657  1.00  0.00    -0.349 N 
HETATM    5  C11 UNL     1      24.601  -0.308  54.163  1.00  0.00     0.042 A 
HETATM    6  C12 UNL     1      23.383  -0.956  54.232  1.00  0.00     0.030 A 
HETATM    7  C13 UNL     1      22.276  -0.336  53.692  1.00  0.00     0.005 A 
HETATM    8  C14 UNL     1      22.457   0.921  53.102  1.00  0.00     0.037 A 
HETATM    9  C15 UNL     1      23.667   1.568  53.031  1.00  0.00     0.075 A 
HETATM   10  C16 UNL     1      24.759   0.932  53.576  1.00  0.00     0.015 A 
HETATM   11  H16 UNL     1      26.142  -1.649  55.153  1.00  0.00     0.166 HD
ENDROOT
BRANCH   1  12
HETATM   12  C7  UNL     1      26.821   1.687  52.378  1.00  0.00     0.232 C 
HETATM   13  C8  UNL     1      26.484   0.666  51.347  1.00  0.00     0.043 C 
BRANCH  12  14
HETATM   14  N1  UNL     1      26.504   3.041  51.960  1.00  0.00     0.092 N 
HETATM   15  H10 UNL     1      25.597   3.359  52.320  1.00  0.00     0.316 HD
BRANCH  14  16
HETATM   16  C6  UNL     1      26.611   3.149  50.520  1.00  0.00     0.297 C 
BRANCH  16  17
HETATM   17  C5  UNL     1      25.769   4.258  50.017  1.00  0.00     0.003 C 
HETATM   18  C4  UNL     1      24.628   4.219  49.361  1.00  0.00    -0.003 C 
BRANCH  18  19
HETATM   19  C3  UNL     1      23.978   2.986  49.007  1.00  0.00    -0.005 C 
HETATM   20  C2  UNL     1      22.673   2.853  49.214  1.00  0.00    -0.031 C 
HETATM   21  C1  UNL     1      21.920   1.614  48.878  1.00  0.00     0.036 C 
ENDBRANCH  18  19
ENDBRANCH  16  17
ENDBRANCH  14  16
ENDBRANCH  12  14
ENDBRANCH   1  12
BRANCH   9  22
HETATM   22  O1  UNL     1      23.762   2.809  52.430  1.00  0.00    -0.360 OA
HETATM   23  H20 UNL     1      23.746   2.795  51.407  1.00  0.00     0.217 HD
ENDBRANCH   9  22
TORSDOF 6
ENDMDL
MODEL 7
REMARK VINA RESULT:      -7.0      3.578      5.998
REMARK  6 active torsions:
REMARK  status: ('A' for Active; 'I' for Inactive)
REMARK    1  A    between atoms: C3_3  and  C4_4 
REMARK    2  A    between atoms: C5_5  and  C6_6 
REMARK    3  A    between atoms: C6_6  and  N1_7 
REMARK    4  A    between atoms: N1_7  and  C7_8 
REMARK    5  A    between atoms: C7_8  and  C9_10 
REMARK    6  A    between atoms: C15_18  and  O1_19 
ROOT
HETATM    1  C9  UNL     1      25.124   1.362  53.514  1.00  0.00     0.118 A 
HETATM    2  C10 UNL     1      25.168   2.466  52.507  1.00  0.00     0.088 A 
HETATM    3  S1  UNL     1      23.834   3.039  51.756  1.00  0.00    -0.065 SA
HETATM    4  N2  UNL     1      26.544   2.849  52.387  1.00  0.00    -0.349 N 
HETATM    5  C11 UNL     1      27.329   2.038  53.264  1.00  0.00     0.042 A 
HETATM    6  C12 UNL     1      28.697   2.087  53.448  1.00  0.00     0.030 A 
HETATM    7  C13 UNL     1      29.273   1.213  54.346  1.00  0.00     0.005 A 
HETATM    8  C14 UNL     1      28.429   0.323  55.021  1.00  0.00     0.037 A 
HETATM    9  C15 UNL     1      27.067   0.272  54.840  1.00  0.00     0.075 A 
HETATM   10  C16 UNL     1      26.513   1.152  53.939  1.00  0.00     0.015 A 
HETATM   11  H16 UNL     1      26.791   3.617  51.725  1.00  0.00     0.166 HD
ENDROOT
BRANCH   1  12
HETATM   12  C7  UNL     1      24.420   0.149  53.005  1.00  0.00     0.232 C 
HETATM   13  C8  UNL     1      25.394  -0.744  52.316  1.00  0.00     0.043 C 
BRANCH  12  14
HETATM   14  N1  UNL     1      23.671  -0.528  54.048  1.00  0.00     0.092 N 
HETATM   15  H10 UNL     1      24.245  -1.204  54.566  1.00  0.00     0.316 HD
BRANCH  14  16
HETATM   16  C6  UNL     1      22.469  -1.113  53.491  1.00  0.00     0.297 C 
BRANCH  16  17
HETATM   17  C5  UNL     1      21.374  -0.118  53.458  1.00  0.00     0.003 C 
HETATM   18  C4  UNL     1      20.823   0.495  52.430  1.00  0.00    -0.003 C 
BRANCH  18  19
HETATM   19  C3  UNL     1      21.242   0.266  51.074  1.00  0.00    -0.005 C 
HETATM   20  C2  UNL     1      21.036   1.207  50.160  1.00  0.00    -0.031 C 
HETATM   21  C1  UNL     1      21.437   1.054  48.734  1.00  0.00     0.036 C 
ENDBRANCH  18  19
ENDBRANCH  16  17
ENDBRANCH  14  16
ENDBRANCH  12  14
ENDBRANCH   1  12
BRANCH   9  22
HETATM   22  O1  UNL     1      26.303  -0.639  55.546  1.00  0.00    -0.360 OA
HETATM   23  H20 UNL     1      26.735  -1.559  55.671  1.00  0.00     0.217 HD
ENDBRANCH   9  22
TORSDOF 6
ENDMDL
MODEL 8
REMARK VINA RESULT:      -6.9      3.305      5.655
REMARK  6 active torsions:
REMARK  status: ('A' for Active; 'I' for Inactive)
REMARK    1  A    between atoms: C3_3  and  C4_4 
REMARK    2  A    between atoms: C5_5  and  C6_6 
REMARK    3  A    between atoms: C6_6  and  N1_7 
REMARK    4  A    between atoms: N1_7  and  C7_8 
REMARK    5  A    between atoms: C7_8  and  C9_10 
REMARK    6  A    between atoms: C15_18  and  O1_19 
ROOT
HETATM    1  C9  UNL     1      25.135   0.949  52.474  1.00  0.00     0.118 A 
HETATM    2  C10 UNL     1      24.526  -0.102  53.344  1.00  0.00     0.088 A 
HETATM    3  S1  UNL     1      23.013  -0.677  53.118  1.00  0.00    -0.065 SA
HETATM    4  N2  UNL     1      25.515  -0.435  54.327  1.00  0.00    -0.349 N 
HETATM    5  C11 UNL     1      26.683   0.355  54.096  1.00  0.00     0.042 A 
HETATM    6  C12 UNL     1      27.860   0.339  54.819  1.00  0.00     0.030 A 
HETATM    7  C13 UNL     1      28.880   1.185  54.437  1.00  0.00     0.005 A 
HETATM    8  C14 UNL     1      28.657   2.014  53.331  1.00  0.00     0.037 A 
HETATM    9  C15 UNL     1      27.488   2.033  52.610  1.00  0.00     0.075 A 
HETATM   10  C16 UNL     1      26.483   1.181  53.008  1.00  0.00     0.015 A 
HETATM   11  H16 UNL     1      25.283  -1.162  55.040  1.00  0.00     0.166 HD
ENDROOT
BRANCH   1  12
HETATM   12  C7  UNL     1      24.277   2.164  52.354  1.00  0.00     0.232 C 
HETATM   13  C8  UNL     1      24.498   3.052  53.531  1.00  0.00     0.043 C 
BRANCH  12  14
HETATM   14  N1  UNL     1      24.467   2.847  51.087  1.00  0.00     0.092 N 
HETATM   15  H10 UNL     1      25.121   3.634  51.161  1.00  0.00     0.316 HD
BRANCH  14  16
HETATM   16  C6  UNL     1      23.182   3.226  50.535  1.00  0.00     0.297 C 
BRANCH  16  17
HETATM   17  C5  UNL     1      22.694   2.191  49.596  1.00  0.00     0.003 C 
HETATM   18  C4  UNL     1      21.679   1.360  49.712  1.00  0.00    -0.003 C 
BRANCH  18  19
HETATM   19  C3  UNL     1      20.824   1.335  50.867  1.00  0.00    -0.005 C 
HETATM   20  C2  UNL     1      19.952   0.344  51.013  1.00  0.00    -0.031 C 
HETATM   21  C1  UNL     1      19.028   0.240  52.177  1.00  0.00     0.036 C 
ENDBRANCH  18  19
ENDBRANCH  16  17
ENDBRANCH  14  16
ENDBRANCH  12  14
ENDBRANCH   1  12
BRANCH   9  22
HETATM   22  O1  UNL     1      27.347   2.883  51.529  1.00  0.00    -0.360 OA
HETATM   23  H20 UNL     1      26.785   3.720  51.709  1.00  0.00     0.217 HD
ENDBRANCH   9  22
TORSDOF 6
ENDMDL
MODEL 9
REMARK VINA RESULT:      -6.8      3.230      5.283
REMARK  6 active torsions:
REMARK  status: ('A' for Active; 'I' for Inactive)
REMARK    1  A    between atoms: C3_3  and  C4_4 
REMARK    2  A    between atoms: C5_5  and  C6_6 
REMARK    3  A    between atoms: C6_6  and  N1_7 
REMARK    4  A    between atoms: N1_7  and  C7_8 
REMARK    5  A    between atoms: C7_8  and  C9_10 
REMARK    6  A    between atoms: C15_18  and  O1_19 
ROOT
HETATM    1  C9  UNL     1      24.707   2.435  51.189  1.00  0.00     0.118 A 
HETATM    2  C10 UNL     1      24.661   3.228  49.923  1.00  0.00     0.088 A 
HETATM    3  S1  UNL     1      25.854   4.248  49.469  1.00  0.00    -0.065 SA
HETATM    4  N2  UNL     1      23.424   2.893  49.282  1.00  0.00    -0.349 N 
HETATM    5  C11 UNL     1      22.724   1.945  50.089  1.00  0.00     0.042 A 
HETATM    6  C12 UNL     1      21.496   1.369  49.829  1.00  0.00     0.030 A 
HETATM    7  C13 UNL     1      20.984   0.469  50.740  1.00  0.00     0.005 A 
HETATM    8  C14 UNL     1      21.747   0.192  51.881  1.00  0.00     0.037 A 
HETATM    9  C15 UNL     1      22.969   0.763  52.143  1.00  0.00     0.075 A 
HETATM   10  C16 UNL     1      23.461   1.659  51.222  1.00  0.00     0.015 A 
HETATM   11  H16 UNL     1      23.198   3.347  48.369  1.00  0.00     0.166 HD
ENDROOT
BRANCH   1  12
HETATM   12  C7  UNL     1      24.964   3.283  52.390  1.00  0.00     0.232 C 
HETATM   13  C8  UNL     1      23.683   3.880  52.865  1.00  0.00     0.043 C 
BRANCH  12  14
HETATM   14  N1  UNL     1      25.672   2.560  53.430  1.00  0.00     0.092 N 
HETATM   15  H10 UNL     1      25.911   3.159  54.229  1.00  0.00     0.316 HD
BRANCH  14  16
HETATM   16  C6  UNL     1      26.821   1.883  52.865  1.00  0.00     0.297 C 
BRANCH  16  17
HETATM   17  C5  UNL     1      28.071   2.372  53.488  1.00  0.00     0.003 C 
HETATM   18  C4  UNL     1      29.029   1.700  54.093  1.00  0.00    -0.003 C 
BRANCH  18  19
HETATM   19  C3  UNL     1      28.997   0.272  54.250  1.00  0.00    -0.005 C 
HETATM   20  C2  UNL     1      29.714  -0.491  53.433  1.00  0.00    -0.031 C 
HETATM   21  C1  UNL     1      29.740  -1.977  53.523  1.00  0.00     0.036 C 
ENDBRANCH  18  19
ENDBRANCH  16  17
ENDBRANCH  14  16
ENDBRANCH  12  14
ENDBRANCH   1  12
BRANCH   9  22
HETATM   22  O1  UNL     1      23.660   0.437  53.295  1.00  0.00    -0.360 OA
HETATM   23  H20 UNL     1      23.224  -0.292  53.867  1.00  0.00     0.217 HD
ENDBRANCH   9  22
TORSDOF 6
ENDMDL
