MODEL 1
REMARK VINA RESULT:      -7.5      0.000      0.000
REMARK  4 active torsions:
REMARK  status: ('A' for Active; 'I' for Inactive)
REMARK    1  A    between atoms: O1_2  and  C2_3 
REMARK    2  A    between atoms: C5_6  and  N1_7 
REMARK    3  A    between atoms: N1_7  and  C7_9 
REMARK    4  A    between atoms: C15_20  and  O2_21 
ROOT
HETATM    1  C2  UNL     1      22.996   1.320  51.312  1.00  0.00     0.103 A 
HETATM    2  C3  UNL     1      23.985   0.982  52.114  1.00  0.00     0.062 A 
HETATM    3  C4  UNL     1      23.921   0.069  53.209  1.00  0.00     0.050 A 
HETATM    4  C5  UNL     1      24.902  -0.217  53.996  1.00  0.00     0.148 C 
HETATM    5  N2  UNL     1      24.842  -0.958  55.209  1.00  0.00    -0.224 NA
HETATM    6  C13 UNL     1      23.702  -1.430  55.657  1.00  0.00     0.215 C 
HETATM    7  N3  UNL     1      22.419  -1.261  55.014  1.00  0.00    -0.337 N 
HETATM    8  S1  UNL     1      22.372  -0.827  53.470  1.00  0.00    -0.130 SA
HETATM    9  C14 UNL     1      21.329  -0.183  52.365  1.00  0.00     0.086 A 
HETATM   10  C15 UNL     1      21.676   0.727  51.470  1.00  0.00     0.107 A 
HETATM   11  H14 UNL     1      21.620  -1.447  55.653  1.00  0.00     0.173 HD
HETATM   12  H15 UNL     1      22.966  -2.464  52.581  1.00  0.00     0.112 HD
ENDROOT
BRANCH   4  13
HETATM   13  N1  UNL     1      26.208   0.380  53.811  1.00  0.00    -0.335 N 
HETATM   14  C6  UNL     1      26.396   1.819  53.820  1.00  0.00     0.158 C 
BRANCH  13  15
HETATM   15  C7  UNL     1      27.348  -0.449  53.615  1.00  0.00     0.035 A 
HETATM   16  C8  UNL     1      27.146  -1.645  52.956  1.00  0.00     0.029 A 
HETATM   17  C9  UNL     1      28.252  -2.478  52.751  1.00  0.00     0.002 A 
HETATM   18  C10 UNL     1      29.488  -2.106  53.195  1.00  0.00     0.000 A 
HETATM   19  C11 UNL     1      29.698  -0.910  53.856  1.00  0.00     0.002 A 
HETATM   20  C12 UNL     1      28.598  -0.076  54.063  1.00  0.00     0.029 A 
ENDBRANCH  13  15
ENDBRANCH   4  13
BRANCH   1  21
HETATM   21  O1  UNL     1      23.271   2.242  50.313  1.00  0.00    -0.353 OA
HETATM   22  C1  UNL     1      24.232   3.250  50.578  1.00  0.00     0.210 C 
ENDBRANCH   1  21
BRANCH  10  23
HETATM   23  O2  UNL     1      20.712   1.192  50.569  1.00  0.00    -0.353 OA
HETATM   24  C16 UNL     1      19.331   1.016  50.737  1.00  0.00     0.210 C 
ENDBRANCH  10  23
TORSDOF 4
ENDMDL
MODEL 2
REMARK VINA RESULT:      -7.2      2.621      5.968
REMARK  4 active torsions:
REMARK  status: ('A' for Active; 'I' for Inactive)
REMARK    1  A    between atoms: O1_2  and  C2_3 
REMARK    2  A    between atoms: C5_6  and  N1_7 
REMARK    3  A    between atoms: N1_7  and  C7_9 
REMARK    4  A    between atoms: C15_20  and  O2_21 
ROOT
HETATM    1  C2  UNL     1      25.943   1.054  52.294  1.00  0.00     0.103 A 
HETATM    2  C3  UNL     1      24.704   1.489  52.181  1.00  0.00     0.062 A 
HETATM    3  C4  UNL     1      23.543   0.924  52.790  1.00  0.00     0.050 A 
HETATM    4  C5  UNL     1      22.337   1.355  52.633  1.00  0.00     0.148 C 
HETATM    5  N2  UNL     1      21.136   0.718  53.051  1.00  0.00    -0.224 NA
HETATM    6  C13 UNL     1      21.164  -0.445  53.659  1.00  0.00     0.215 C 
HETATM    7  N3  UNL     1      22.359  -1.199  53.963  1.00  0.00    -0.337 N 
HETATM    8  S1  UNL     1      23.779  -0.452  53.940  1.00  0.00    -0.130 SA
HETATM    9  C14 UNL     1      25.391  -0.794  53.852  1.00  0.00     0.086 A 
HETATM   10  C15 UNL     1      26.252  -0.097  53.130  1.00  0.00     0.107 A 
HETATM   11  H14 UNL     1      22.163  -2.198  54.174  1.00  0.00     0.173 HD
HETATM   12  H15 UNL     1      23.673   0.650  55.552  1.00  0.00     0.112 HD
ENDROOT
BRANCH   4  13
HETATM   13  N1  UNL     1      22.058   2.508  51.804  1.00  0.00    -0.335 N 
HETATM   14  C6  UNL     1      21.691   3.789  52.379  1.00  0.00     0.158 C 
BRANCH  13  15
HETATM   15  C7  UNL     1      22.142   2.403  50.387  1.00  0.00     0.035 A 
HETATM   16  C8  UNL     1      22.805   3.416  49.723  1.00  0.00     0.029 A 
HETATM   17  C9  UNL     1      22.901   3.335  48.329  1.00  0.00     0.002 A 
HETATM   18  C10 UNL     1      22.352   2.281  47.659  1.00  0.00     0.000 A 
HETATM   19  C11 UNL     1      21.687   1.263  48.317  1.00  0.00     0.002 A 
HETATM   20  C12 UNL     1      21.588   1.338  49.707  1.00  0.00     0.029 A 
ENDBRANCH  13  15
ENDBRANCH   4  13
BRANCH   1  21
HETATM   21  O1  UNL     1      26.927   1.745  51.603  1.00  0.00    -0.353 OA
HETATM   22  C1  UNL     1      26.528   2.811  50.757  1.00  0.00     0.210 C 
ENDBRANCH   1  21
BRANCH  10  23
HETATM   23  O2  UNL     1      27.602  -0.467  53.142  1.00  0.00    -0.353 OA
HETATM   24  C16 UNL     1      28.482  -0.189  54.196  1.00  0.00     0.210 C 
ENDBRANCH  10  23
TORSDOF 4
ENDMDL
MODEL 3
REMARK VINA RESULT:      -7.0      2.520      5.928
REMARK  4 active torsions:
REMARK  status: ('A' for Active; 'I' for Inactive)
REMARK    1  A    between atoms: O1_2  and  C2_3 
REMARK    2  A    between atoms: C5_6  and  N1_7 
REMARK    3  A    between atoms: N1_7  and  C7_9 
REMARK    4  A    between atoms: C15_20  and  O2_21 
ROOT
HETATM    1  C2  UNL     1      25.765   0.351  52.656  1.00  0.00     0.103 A 
HETATM    2  C3  UNL     1      24.540   0.636  52.265  1.00  0.00     0.062 A 
HETATM    3  C4  UNL     1      23.326   0.230  52.897  1.00  0.00     0.050 A 
HETATM    4  C5  UNL     1      22.139   0.500  52.469  1.00  0.00     0.148 C 
HETATM    5  N2  UNL     1      20.912  -0.040  52.944  1.00  0.00    -0.224 NA
HETATM    6  C13 UNL     1      20.893  -0.925  53.913  1.00  0.00     0.215 C 
HETATM    7  N3  UNL     1      22.059  -1.448  54.588  1.00  0.00    -0.337 N 
HETATM    8  S1  UNL     1      23.450  -0.657  54.468  1.00  0.00    -0.130 SA
HETATM    9  C14 UNL     1      25.068  -0.897  54.682  1.00  0.00     0.086 A 
HETATM   10  C15 UNL     1      25.996  -0.427  53.865  1.00  0.00     0.107 A 
HETATM   11  H14 UNL     1      21.865  -2.328  55.106  1.00  0.00     0.173 HD
HETATM   12  H15 UNL     1      23.109   0.914  55.582  1.00  0.00     0.112 HD
ENDROOT
BRANCH   4  13
HETATM   13  N1  UNL     1      21.938   1.284  51.269  1.00  0.00    -0.335 N 
HETATM   14  C6  UNL     1      21.393   0.698  50.058  1.00  0.00     0.158 C 
BRANCH  13  15
HETATM   15  C7  UNL     1      22.275   2.668  51.258  1.00  0.00     0.035 A 
HETATM   16  C8  UNL     1      23.074   3.107  50.222  1.00  0.00     0.029 A 
HETATM   17  C9  UNL     1      23.419   4.463  50.188  1.00  0.00     0.002 A 
HETATM   18  C10 UNL     1      22.972   5.314  51.157  1.00  0.00     0.000 A 
HETATM   19  C11 UNL     1      22.171   4.880  52.197  1.00  0.00     0.002 A 
HETATM   20  C12 UNL     1      21.823   3.529  52.236  1.00  0.00     0.029 A 
ENDBRANCH  13  15
ENDBRANCH   4  13
BRANCH   1  21
HETATM   21  O1  UNL     1      26.811   0.834  51.884  1.00  0.00    -0.353 OA
HETATM   22  C1  UNL     1      26.828   2.217  51.570  1.00  0.00     0.210 C 
ENDBRANCH   1  21
BRANCH  10  23
HETATM   23  O2  UNL     1      27.342  -0.678  54.153  1.00  0.00    -0.353 OA
HETATM   24  C16 UNL     1      28.151   0.170  54.923  1.00  0.00     0.210 C 
ENDBRANCH  10  23
TORSDOF 4
ENDMDL
MODEL 4
REMARK VINA RESULT:      -6.8      3.263      6.971
REMARK  4 active torsions:
REMARK  status: ('A' for Active; 'I' for Inactive)
REMARK    1  A    between atoms: O1_2  and  C2_3 
REMARK    2  A    between atoms: C5_6  and  N1_7 
REMARK    3  A    between atoms: N1_7  and  C7_9 
REMARK    4  A    between atoms: C15_20  and  O2_21 
ROOT
HETATM    1  C2  UNL     1      25.119   0.724  53.206  1.00  0.00     0.103 A 
HETATM    2  C3  UNL     1      24.353   1.618  52.613  1.00  0.00     0.062 A 
HETATM    3  C4  UNL     1      24.759   2.574  51.634  1.00  0.00     0.050 A 
HETATM    4  C5  UNL     1      23.990   3.458  51.095  1.00  0.00     0.148 C 
HETATM    5  N2  UNL     1      24.382   4.550  50.272  1.00  0.00    -0.224 NA
HETATM    6  C13 UNL     1      25.645   4.763  49.988  1.00  0.00     0.215 C 
HETATM    7  N3  UNL     1      26.753   3.961  50.457  1.00  0.00    -0.337 N 
HETATM    8  S1  UNL     1      26.462   2.491  51.031  1.00  0.00    -0.130 SA
HETATM    9  C14 UNL     1      27.175   1.328  51.959  1.00  0.00     0.086 A 
HETATM   10  C15 UNL     1      26.529   0.611  52.864  1.00  0.00     0.107 A 
HETATM   11  H14 UNL     1      27.668   4.447  50.370  1.00  0.00     0.173 HD
HETATM   12  H15 UNL     1      26.020   1.510  49.398  1.00  0.00     0.112 HD
ENDROOT
BRANCH   4  13
HETATM   13  N1  UNL     1      22.588   3.543  51.446  1.00  0.00    -0.335 N 
HETATM   14  C6  UNL     1      22.083   4.586  52.319  1.00  0.00     0.158 C 
BRANCH  13  15
HETATM   15  C7  UNL     1      21.667   2.588  50.931  1.00  0.00     0.035 A 
HETATM   16  C8  UNL     1      20.698   2.123  51.798  1.00  0.00     0.029 A 
HETATM   17  C9  UNL     1      19.780   1.183  51.314  1.00  0.00     0.002 A 
HETATM   18  C10 UNL     1      19.852   0.749  50.022  1.00  0.00     0.000 A 
HETATM   19  C11 UNL     1      20.819   1.211  49.149  1.00  0.00     0.002 A 
HETATM   20  C12 UNL     1      21.737   2.148  49.625  1.00  0.00     0.029 A 
ENDBRANCH  13  15
ENDBRANCH   4  13
BRANCH   1  21
HETATM   21  O1  UNL     1      24.523  -0.104  54.145  1.00  0.00    -0.353 OA
HETATM   22  C1  UNL     1      23.209  -0.571  53.889  1.00  0.00     0.210 C 
ENDBRANCH   1  21
BRANCH  10  23
HETATM   23  O2  UNL     1      27.232  -0.362  53.584  1.00  0.00    -0.353 OA
HETATM   24  C16 UNL     1      28.248  -0.074  54.506  1.00  0.00     0.210 C 
ENDBRANCH  10  23
TORSDOF 4
ENDMDL
MODEL 5
REMARK VINA RESULT:      -6.8      2.911      6.562
REMARK  4 active torsions:
REMARK  status: ('A' for Active; 'I' for Inactive)
REMARK    1  A    between atoms: O1_2  and  C2_3 
REMARK    2  A    between atoms: C5_6  and  N1_7 
REMARK    3  A    between atoms: N1_7  and  C7_9 
REMARK    4  A    between atoms: C15_20  and  O2_21 
ROOT
HETATM    1  C2  UNL     1      26.333   2.513  51.318  1.00  0.00     0.103 A 
HETATM    2  C3  UNL     1      25.058   2.355  51.026  1.00  0.00     0.062 A 
HETATM    3  C4  UNL     1      24.122   1.524  51.713  1.00  0.00     0.050 A 
HETATM    4  C5  UNL     1      22.885   1.368  51.382  1.00  0.00     0.148 C 
HETATM    5  N2  UNL     1      21.971   0.411  51.905  1.00  0.00    -0.224 NA
HETATM    6  C13 UNL     1      22.346  -0.453  52.818  1.00  0.00     0.215 C 
HETATM    7  N3  UNL     1      23.674  -0.549  53.381  1.00  0.00    -0.337 N 
HETATM    8  S1  UNL     1      24.681   0.689  53.216  1.00  0.00    -0.130 SA
HETATM    9  C14 UNL     1      26.293   1.033  53.307  1.00  0.00     0.086 A 
HETATM   10  C15 UNL     1      26.923   1.829  52.460  1.00  0.00     0.107 A 
HETATM   11  H14 UNL     1      23.845  -1.457  53.857  1.00  0.00     0.173 HD
HETATM   12  H15 UNL     1      23.903   1.998  54.442  1.00  0.00     0.112 HD
ENDROOT
BRANCH   4  13
HETATM   13  N1  UNL     1      22.321   2.067  50.247  1.00  0.00    -0.335 N 
HETATM   14  C6  UNL     1      21.838   1.356  49.077  1.00  0.00     0.158 C 
BRANCH  13  15
HETATM   15  C7  UNL     1      22.227   3.488  50.261  1.00  0.00     0.035 A 
HETATM   16  C8  UNL     1      22.615   4.151  49.115  1.00  0.00     0.029 A 
HETATM   17  C9  UNL     1      22.532   5.548  49.104  1.00  0.00     0.002 A 
HETATM   18  C10 UNL     1      22.078   6.221  50.201  1.00  0.00     0.000 A 
HETATM   19  C11 UNL     1      21.688   5.564  51.353  1.00  0.00     0.002 A 
HETATM   20  C12 UNL     1      21.769   4.170  51.369  1.00  0.00     0.029 A 
ENDBRANCH  13  15
ENDBRANCH   4  13
BRANCH   1  21
HETATM   21  O1  UNL     1      27.073   3.361  50.508  1.00  0.00    -0.353 OA
HETATM   22  C1  UNL     1      26.427   3.957  49.396  1.00  0.00     0.210 C 
ENDBRANCH   1  21
BRANCH  10  23
HETATM   23  O2  UNL     1      28.291   2.064  52.642  1.00  0.00    -0.353 OA
HETATM   24  C16 UNL     1      28.890   2.280  53.891  1.00  0.00     0.210 C 
ENDBRANCH  10  23
TORSDOF 4
ENDMDL
MODEL 6
REMARK VINA RESULT:      -6.7      2.798      4.382
REMARK  4 active torsions:
REMARK  status: ('A' for Active; 'I' for Inactive)
REMARK    1  A    between atoms: O1_2  and  C2_3 
REMARK    2  A    between atoms: C5_6  and  N1_7 
REMARK    3  A    between atoms: N1_7  and  C7_9 
REMARK    4  A    between atoms: C15_20  and  O2_21 
ROOT
HETATM    1  C2  UNL     1      20.354   0.267  52.540  1.00  0.00     0.103 A 
HETATM    2  C3  UNL     1      21.492   0.917  52.404  1.00  0.00     0.062 A 
HETATM    3  C4  UNL     1      21.944   1.614  51.244  1.00  0.00     0.050 A 
HETATM    4  C5  UNL     1      23.081   2.215  51.134  1.00  0.00     0.148 C 
HETATM    5  N2  UNL     1      23.658   2.748  49.948  1.00  0.00    -0.224 NA
HETATM    6  C13 UNL     1      23.042   2.651  48.793  1.00  0.00     0.215 C 
HETATM    7  N3  UNL     1      21.762   2.015  48.581  1.00  0.00    -0.337 N 
HETATM    8  S1  UNL     1      20.808   1.744  49.843  1.00  0.00    -0.130 SA
HETATM    9  C14 UNL     1      19.509   0.824  50.276  1.00  0.00     0.086 A 
HETATM   10  C15 UNL     1      19.387   0.231  51.452  1.00  0.00     0.107 A 
HETATM   11  H14 UNL     1      21.585   1.787  47.583  1.00  0.00     0.173 HD
HETATM   12  H15 UNL     1      20.203   3.552  50.277  1.00  0.00     0.112 HD
ENDROOT
BRANCH   4  13
HETATM   13  N1  UNL     1      24.020   2.244  52.234  1.00  0.00    -0.335 N 
HETATM   14  C6  UNL     1      24.153   3.408  53.092  1.00  0.00     0.158 C 
BRANCH  13  15
HETATM   15  C7  UNL     1      24.843   1.112  52.498  1.00  0.00     0.035 A 
HETATM   16  C8  UNL     1      25.970   0.963  51.717  1.00  0.00     0.029 A 
HETATM   17  C9  UNL     1      26.795  -0.142  51.958  1.00  0.00     0.002 A 
HETATM   18  C10 UNL     1      26.481  -1.037  52.939  1.00  0.00     0.000 A 
HETATM   19  C11 UNL     1      25.354  -0.893  53.725  1.00  0.00     0.002 A 
HETATM   20  C12 UNL     1      24.528   0.207  53.490  1.00  0.00     0.029 A 
ENDBRANCH  13  15
ENDBRANCH   4  13
BRANCH   1  21
HETATM   21  O1  UNL     1      20.115  -0.357  53.754  1.00  0.00    -0.353 OA
HETATM   22  C1  UNL     1      21.102  -1.243  54.256  1.00  0.00     0.210 C 
ENDBRANCH   1  21
BRANCH  10  23
HETATM   23  O2  UNL     1      18.232  -0.514  51.718  1.00  0.00    -0.353 OA
HETATM   24  C16 UNL     1      16.932   0.007  51.659  1.00  0.00     0.210 C 
ENDBRANCH  10  23
TORSDOF 4
ENDMDL
MODEL 7
REMARK VINA RESULT:      -6.7      3.116      6.361
REMARK  4 active torsions:
REMARK  status: ('A' for Active; 'I' for Inactive)
REMARK    1  A    between atoms: O1_2  and  C2_3 
REMARK    2  A    between atoms: C5_6  and  N1_7 
REMARK    3  A    between atoms: N1_7  and  C7_9 
REMARK    4  A    between atoms: C15_20  and  O2_21 
ROOT
HETATM    1  C2  UNL     1      26.103   0.087  52.688  1.00  0.00     0.103 A 
HETATM    2  C3  UNL     1      24.918   0.406  52.207  1.00  0.00     0.062 A 
HETATM    3  C4  UNL     1      24.534   1.661  51.647  1.00  0.00     0.050 A 
HETATM    4  C5  UNL     1      23.354   1.952  51.213  1.00  0.00     0.148 C 
HETATM    5  N2  UNL     1      22.871   3.235  50.833  1.00  0.00    -0.224 NA
HETATM    6  C13 UNL     1      23.638   4.296  50.911  1.00  0.00     0.215 C 
HETATM    7  N3  UNL     1      25.006   4.305  51.378  1.00  0.00    -0.337 N 
HETATM    8  S1  UNL     1      25.815   2.921  51.444  1.00  0.00    -0.130 SA
HETATM    9  C14 UNL     1      27.155   2.268  52.152  1.00  0.00     0.086 A 
HETATM   10  C15 UNL     1      27.199   1.045  52.655  1.00  0.00     0.107 A 
HETATM   11  H14 UNL     1      25.338   5.255  51.636  1.00  0.00     0.173 HD
HETATM   12  H15 UNL     1      26.123   2.552  49.548  1.00  0.00     0.112 HD
ENDROOT
BRANCH   4  13
HETATM   13  N1  UNL     1      22.284   0.978  51.249  1.00  0.00    -0.335 N 
HETATM   14  C6  UNL     1      21.574   0.581  50.047  1.00  0.00     0.158 C 
BRANCH  13  15
HETATM   15  C7  UNL     1      21.905   0.382  52.485  1.00  0.00     0.035 A 
HETATM   16  C8  UNL     1      22.225  -0.950  52.661  1.00  0.00     0.029 A 
HETATM   17  C9  UNL     1      21.863  -1.558  53.868  1.00  0.00     0.002 A 
HETATM   18  C10 UNL     1      21.214  -0.845  54.834  1.00  0.00     0.000 A 
HETATM   19  C11 UNL     1      20.891   0.488  54.665  1.00  0.00     0.002 A 
HETATM   20  C12 UNL     1      21.249   1.101  53.463  1.00  0.00     0.029 A 
ENDBRANCH  13  15
ENDBRANCH   4  13
BRANCH   1  21
HETATM   21  O1  UNL     1      26.260  -1.190  53.204  1.00  0.00    -0.353 OA
HETATM   22  C1  UNL     1      26.806  -2.190  52.360  1.00  0.00     0.210 C 
ENDBRANCH   1  21
BRANCH  10  23
HETATM   23  O2  UNL     1      28.395   0.587  53.219  1.00  0.00    -0.353 OA
HETATM   24  C16 UNL     1      28.694   0.656  54.587  1.00  0.00     0.210 C 
ENDBRANCH  10  23
TORSDOF 4
ENDMDL
MODEL 8
REMARK VINA RESULT:      -6.6      3.695      5.204
REMARK  4 active torsions:
REMARK  status: ('A' for Active; 'I' for Inactive)
REMARK    1  A    between atoms: O1_2  and  C2_3 
REMARK    2  A    between atoms: C5_6  and  N1_7 
REMARK    3  A    between atoms: N1_7  and  C7_9 
REMARK    4  A    between atoms: C15_20  and  O2_21 
ROOT
HETATM    1  C2  UNL     1      20.469   0.640  53.268  1.00  0.00     0.103 A 
HETATM    2  C3  UNL     1      21.207   1.582  52.716  1.00  0.00     0.062 A 
HETATM    3  C4  UNL     1      21.147   2.031  51.363  1.00  0.00     0.050 A 
HETATM    4  C5  UNL     1      21.907   2.935  50.846  1.00  0.00     0.148 C 
HETATM    5  N2  UNL     1      22.022   3.276  49.469  1.00  0.00    -0.224 NA
HETATM    6  C13 UNL     1      21.325   2.643  48.556  1.00  0.00     0.215 C 
HETATM    7  N3  UNL     1      20.398   1.563  48.813  1.00  0.00    -0.337 N 
HETATM    8  S1  UNL     1      19.850   1.346  50.305  1.00  0.00    -0.130 SA
HETATM    9  C14 UNL     1      19.124   0.191  51.233  1.00  0.00     0.086 A 
HETATM   10  C15 UNL     1      19.442  -0.045  52.496  1.00  0.00     0.107 A 
HETATM   11  H14 UNL     1      20.173   1.013  47.960  1.00  0.00     0.173 HD
HETATM   12  H15 UNL     1      18.639   2.868  50.508  1.00  0.00     0.112 HD
ENDROOT
BRANCH   4  13
HETATM   13  N1  UNL     1      22.915   3.607  51.638  1.00  0.00    -0.335 N 
HETATM   14  C6  UNL     1      22.632   4.848  52.337  1.00  0.00     0.158 C 
BRANCH  13  15
HETATM   15  C7  UNL     1      24.221   3.052  51.749  1.00  0.00     0.035 A 
HETATM   16  C8  UNL     1      24.601   2.591  52.993  1.00  0.00     0.029 A 
HETATM   17  C9  UNL     1      25.881   2.040  53.127  1.00  0.00     0.002 A 
HETATM   18  C10 UNL     1      26.717   1.967  52.051  1.00  0.00     0.000 A 
HETATM   19  C11 UNL     1      26.343   2.426  50.802  1.00  0.00     0.002 A 
HETATM   20  C12 UNL     1      25.068   2.976  50.662  1.00  0.00     0.029 A 
ENDBRANCH  13  15
ENDBRANCH   4  13
BRANCH   1  21
HETATM   21  O1  UNL     1      20.701   0.346  54.602  1.00  0.00    -0.353 OA
HETATM   22  C1  UNL     1      21.737  -0.570  54.916  1.00  0.00     0.210 C 
ENDBRANCH   1  21
BRANCH  10  23
HETATM   23  O2  UNL     1      18.748  -1.040  53.194  1.00  0.00    -0.353 OA
HETATM   24  C16 UNL     1      17.361  -1.229  53.119  1.00  0.00     0.210 C 
ENDBRANCH  10  23
TORSDOF 4
ENDMDL
MODEL 9
REMARK VINA RESULT:      -6.5      3.177      6.242
REMARK  4 active torsions:
REMARK  status: ('A' for Active; 'I' for Inactive)
REMARK    1  A    between atoms: O1_2  and  C2_3 
REMARK    2  A    between atoms: C5_6  and  N1_7 
REMARK    3  A    between atoms: N1_7  and  C7_9 
REMARK    4  A    between atoms: C15_20  and  O2_21 
ROOT
HETATM    1  C2  UNL     1      21.859   1.372  53.031  1.00  0.00     0.103 A 
HETATM    2  C3  UNL     1      22.515   2.156  52.199  1.00  0.00     0.062 A 
HETATM    3  C4  UNL     1      23.899   2.075  51.862  1.00  0.00     0.050 A 
HETATM    4  C5  UNL     1      24.519   2.879  51.067  1.00  0.00     0.148 C 
HETATM    5  N2  UNL     1      25.923   2.963  50.854  1.00  0.00    -0.224 NA
HETATM    6  C13 UNL     1      26.754   2.182  51.504  1.00  0.00     0.215 C 
HETATM    7  N3  UNL     1      26.372   1.187  52.481  1.00  0.00    -0.337 N 
HETATM    8  S1  UNL     1      24.848   0.687  52.528  1.00  0.00    -0.130 SA
HETATM    9  C14 UNL     1      23.798  -0.086  53.540  1.00  0.00     0.086 A 
HETATM   10  C15 UNL     1      22.532   0.265  53.694  1.00  0.00     0.107 A 
HETATM   11  H14 UNL     1      27.165   0.887  53.081  1.00  0.00     0.173 HD
HETATM   12  H15 UNL     1      24.736  -0.396  50.904  1.00  0.00     0.112 HD
ENDROOT
BRANCH   4  13
HETATM   13  N1  UNL     1      23.823   3.967  50.413  1.00  0.00    -0.335 N 
HETATM   14  C6  UNL     1      23.740   5.287  51.011  1.00  0.00     0.158 C 
BRANCH  13  15
HETATM   15  C7  UNL     1      23.200   3.756  49.150  1.00  0.00     0.035 A 
HETATM   16  C8  UNL     1      22.817   4.881  48.447  1.00  0.00     0.029 A 
HETATM   17  C9  UNL     1      22.202   4.699  47.203  1.00  0.00     0.002 A 
HETATM   18  C10 UNL     1      21.994   3.443  46.712  1.00  0.00     0.000 A 
HETATM   19  C11 UNL     1      22.375   2.313  47.411  1.00  0.00     0.002 A 
HETATM   20  C12 UNL     1      22.989   2.488  48.652  1.00  0.00     0.029 A 
ENDBRANCH  13  15
ENDBRANCH   4  13
BRANCH   1  21
HETATM   21  O1  UNL     1      20.512   1.636  53.229  1.00  0.00    -0.353 OA
HETATM   22  C1  UNL     1      19.661   1.667  52.095  1.00  0.00     0.210 C 
ENDBRANCH   1  21
BRANCH  10  23
HETATM   23  O2  UNL     1      21.727  -0.473  54.568  1.00  0.00    -0.353 OA
HETATM   24  C16 UNL     1      21.168  -1.721  54.257  1.00  0.00     0.210 C 
ENDBRANCH  10  23
TORSDOF 4
ENDMDL
