MODEL 1
REMARK VINA RESULT:      -7.5      0.000      0.000
REMARK  8 active torsions:
REMARK  status: ('A' for Active; 'I' for Inactive)
REMARK    1  A    between atoms: C2_2  and  C3_3 
REMARK       I    between atoms: C3_3  and  N1_5 
REMARK    2  A    between atoms: N1_5  and  C4_6 
REMARK    3  A    between atoms: C7_9  and  N2_10 
REMARK    4  A    between atoms: C10_14  and  C11_15 
REMARK    5  A    between atoms: C13_17  and  N4_18 
REMARK    6  A    between atoms: N4_18  and  S1_19 
REMARK    7  A    between atoms: S1_19  and  C14_22 
REMARK    8  A    between atoms: C19_29  and  O4_30 
ROOT
HETATM    1  C4  UNL     1      26.106   2.783  50.906  1.00  0.00     0.069 A 
HETATM    2  C5  UNL     1      24.780   2.492  50.651  1.00  0.00     0.050 A 
HETATM    3  C6  UNL     1      24.117   1.667  51.533  1.00  0.00     0.041 A 
HETATM    4  C7  UNL     1      22.801   1.431  51.200  1.00  0.00     0.141 A 
HETATM    5  N5  UNL     1      22.049   0.629  52.002  1.00  0.00    -0.224 NA
HETATM    6  C16 UNL     1      22.600   0.072  53.113  1.00  0.00     0.236 A 
HETATM    7  N6  UNL     1      23.903   0.306  53.442  1.00  0.00    -0.241 NA
HETATM    8  C17 UNL     1      24.660   1.095  52.665  1.00  0.00     0.075 A 
HETATM    9  C18 UNL     1      25.977   1.399  52.897  1.00  0.00     0.071 A 
HETATM   10  C19 UNL     1      26.702   2.225  52.043  1.00  0.00     0.097 A 
ENDROOT
BRANCH   4  11
HETATM   11  N2  UNL     1      22.041   1.913  50.097  1.00  0.00    -0.340 N 
HETATM   12  C8  UNL     1      21.863   1.452  48.708  1.00  0.00     0.172 C 
HETATM   13  C9  UNL     1      21.833   2.650  47.793  1.00  0.00     0.103 C 
HETATM   14  N3  UNL     1      21.892   3.854  48.186  1.00  0.00    -0.295 NA
HETATM   15  C10 UNL     1      21.992   4.193  49.559  1.00  0.00     0.145 C 
HETATM   16  C13 UNL     1      21.259   3.130  50.358  1.00  0.00     0.198 C 
BRANCH  15  17
HETATM   17  C11 UNL     1      21.507   5.587  49.864  1.00  0.00     0.026 C 
HETATM   18  C12 UNL     1      21.812   5.847  51.325  1.00  0.00     0.007 C 
ENDBRANCH  15  17
BRANCH  16  19
HETATM   19  N4  UNL     1      19.953   2.922  49.784  1.00  0.00    -0.195 NA
HETATM   20  H18 UNL     1      19.735   3.608  49.019  1.00  0.00     0.141 HD
BRANCH  19  21
HETATM   21  S1  UNL     1      18.690   3.131  50.942  1.00  0.00     0.210 S 
HETATM   22  O2  UNL     1      17.753   4.228  50.538  1.00  0.00    -0.211 OA
HETATM   23  O3  UNL     1      19.207   3.424  52.309  1.00  0.00    -0.211 OA
BRANCH  21  24
HETATM   24  C14 UNL     1      17.715   1.632  51.088  1.00  0.00     0.153 C 
HETATM   25  C15 UNL     1      18.562   0.411  50.943  1.00  0.00     0.022 C 
ENDBRANCH  21  24
ENDBRANCH  19  21
ENDBRANCH  16  19
ENDBRANCH   4  11
BRANCH   1  26
HETATM   26  N1  UNL     1      26.884   3.620  50.066  1.00  0.00    -0.325 N 
HETATM   27  C3  UNL     1      26.390   4.753  49.393  1.00  0.00     0.221 C 
HETATM   28  O1  UNL     1      25.259   5.287  49.346  1.00  0.00    -0.273 OA
HETATM   29  H6  UNL     1      27.882   3.352  49.959  1.00  0.00     0.169 HD
BRANCH  27  30
HETATM   30  C2  UNL     1      27.329   5.533  48.545  1.00  0.00     0.098 C 
HETATM   31  C1  UNL     1      26.776   6.909  48.219  1.00  0.00     0.014 C 
ENDBRANCH  27  30
ENDBRANCH   1  26
BRANCH  10  32
HETATM   32  O4  UNL     1      28.038   2.532  52.280  1.00  0.00    -0.354 OA
HETATM   33  C20 UNL     1      28.538   2.342  53.587  1.00  0.00     0.210 C 
ENDBRANCH  10  32
TORSDOF 8
ENDMDL
MODEL 2
REMARK VINA RESULT:      -7.5      2.457      4.518
REMARK  8 active torsions:
REMARK  status: ('A' for Active; 'I' for Inactive)
REMARK    1  A    between atoms: C2_2  and  C3_3 
REMARK       I    between atoms: C3_3  and  N1_5 
REMARK    2  A    between atoms: N1_5  and  C4_6 
REMARK    3  A    between atoms: C7_9  and  N2_10 
REMARK    4  A    between atoms: C10_14  and  C11_15 
REMARK    5  A    between atoms: C13_17  and  N4_18 
REMARK    6  A    between atoms: N4_18  and  S1_19 
REMARK    7  A    between atoms: S1_19  and  C14_22 
REMARK    8  A    between atoms: C19_29  and  O4_30 
ROOT
HETATM    1  C4  UNL     1      25.695   0.617  52.846  1.00  0.00     0.069 A 
HETATM    2  C5  UNL     1      25.152   1.565  52.002  1.00  0.00     0.050 A 
HETATM    3  C6  UNL     1      23.782   1.710  51.987  1.00  0.00     0.041 A 
HETATM    4  C7  UNL     1      23.329   2.677  51.115  1.00  0.00     0.141 A 
HETATM    5  N5  UNL     1      21.991   2.906  51.018  1.00  0.00    -0.224 NA
HETATM    6  C16 UNL     1      21.122   2.183  51.775  1.00  0.00     0.236 A 
HETATM    7  N6  UNL     1      21.572   1.226  52.637  1.00  0.00    -0.241 NA
HETATM    8  C17 UNL     1      22.887   0.986  52.748  1.00  0.00     0.075 A 
HETATM    9  C18 UNL     1      23.450   0.051  53.578  1.00  0.00     0.071 A 
HETATM   10  C19 UNL     1      24.827  -0.143  53.638  1.00  0.00     0.097 A 
ENDROOT
BRANCH   4  11
HETATM   11  N2  UNL     1      24.062   3.535  50.248  1.00  0.00    -0.340 N 
HETATM   12  C8  UNL     1      25.376   3.430  49.588  1.00  0.00     0.172 C 
HETATM   13  C9  UNL     1      26.060   4.772  49.639  1.00  0.00     0.103 C 
HETATM   14  N3  UNL     1      25.542   5.823  50.123  1.00  0.00    -0.295 NA
HETATM   15  C10 UNL     1      24.236   5.833  50.674  1.00  0.00     0.145 C 
HETATM   16  C13 UNL     1      23.404   4.808  49.922  1.00  0.00     0.198 C 
BRANCH  15  17
HETATM   17  C11 UNL     1      23.605   7.201  50.682  1.00  0.00     0.026 C 
HETATM   18  C12 UNL     1      24.638   8.163  50.131  1.00  0.00     0.007 C 
ENDBRANCH  15  17
BRANCH  16  19
HETATM   19  N4  UNL     1      23.565   5.014  48.505  1.00  0.00    -0.195 NA
HETATM   20  H18 UNL     1      23.977   5.954  48.278  1.00  0.00     0.141 HD
BRANCH  19  21
HETATM   21  S1  UNL     1      22.058   4.976  47.664  1.00  0.00     0.210 S 
HETATM   22  O2  UNL     1      21.934   6.124  46.709  1.00  0.00    -0.211 OA
HETATM   23  O3  UNL     1      20.886   4.993  48.585  1.00  0.00    -0.211 OA
BRANCH  21  24
HETATM   24  C14 UNL     1      21.913   3.470  46.700  1.00  0.00     0.153 C 
HETATM   25  C15 UNL     1      22.325   2.272  47.489  1.00  0.00     0.022 C 
ENDBRANCH  21  24
ENDBRANCH  19  21
ENDBRANCH  16  19
ENDBRANCH   4  11
BRANCH   1  26
HETATM   26  N1  UNL     1      27.091   0.383  52.943  1.00  0.00    -0.325 N 
HETATM   27  C3  UNL     1      27.993   1.222  53.623  1.00  0.00     0.221 C 
HETATM   28  O1  UNL     1      27.846   2.287  54.263  1.00  0.00    -0.273 OA
HETATM   29  H6  UNL     1      27.441  -0.472  52.468  1.00  0.00     0.169 HD
BRANCH  27  30
HETATM   30  C2  UNL     1      29.431   0.845  53.636  1.00  0.00     0.098 C 
HETATM   31  C1  UNL     1      29.613  -0.661  53.703  1.00  0.00     0.014 C 
ENDBRANCH  27  30
ENDBRANCH   1  26
BRANCH  10  32
HETATM   32  O4  UNL     1      25.396  -1.092  54.481  1.00  0.00    -0.354 OA
HETATM   33  C20 UNL     1      24.862  -1.225  55.782  1.00  0.00     0.210 C 
ENDBRANCH  10  32
TORSDOF 8
ENDMDL
MODEL 3
REMARK VINA RESULT:      -7.4      2.326      5.361
REMARK  8 active torsions:
REMARK  status: ('A' for Active; 'I' for Inactive)
REMARK    1  A    between atoms: C2_2  and  C3_3 
REMARK       I    between atoms: C3_3  and  N1_5 
REMARK    2  A    between atoms: N1_5  and  C4_6 
REMARK    3  A    between atoms: C7_9  and  N2_10 
REMARK    4  A    between atoms: C10_14  and  C11_15 
REMARK    5  A    between atoms: C13_17  and  N4_18 
REMARK    6  A    between atoms: N4_18  and  S1_19 
REMARK    7  A    between atoms: S1_19  and  C14_22 
REMARK    8  A    between atoms: C19_29  and  O4_30 
ROOT
HETATM    1  C4  UNL     1      24.717   0.691  52.921  1.00  0.00     0.069 A 
HETATM    2  C5  UNL     1      24.175   1.771  52.254  1.00  0.00     0.050 A 
HETATM    3  C6  UNL     1      25.002   2.506  51.432  1.00  0.00     0.041 A 
HETATM    4  C7  UNL     1      24.376   3.564  50.808  1.00  0.00     0.141 A 
HETATM    5  N5  UNL     1      25.098   4.359  49.972  1.00  0.00    -0.224 NA
HETATM    6  C16 UNL     1      26.417   4.103  49.763  1.00  0.00     0.236 A 
HETATM    7  N6  UNL     1      27.035   3.055  50.381  1.00  0.00    -0.241 NA
HETATM    8  C17 UNL     1      26.341   2.259  51.208  1.00  0.00     0.075 A 
HETATM    9  C18 UNL     1      26.856   1.182  51.881  1.00  0.00     0.071 A 
HETATM   10  C19 UNL     1      26.072   0.401  52.726  1.00  0.00     0.097 A 
ENDROOT
BRANCH   4  11
HETATM   11  N2  UNL     1      23.023   3.997  50.888  1.00  0.00    -0.340 N 
HETATM   12  C8  UNL     1      22.284   4.852  51.835  1.00  0.00     0.172 C 
HETATM   13  C9  UNL     1      20.920   4.257  52.072  1.00  0.00     0.103 C 
HETATM   14  N3  UNL     1      20.479   3.220  51.492  1.00  0.00    -0.295 NA
HETATM   15  C10 UNL     1      21.249   2.506  50.540  1.00  0.00     0.145 C 
HETATM   16  C13 UNL     1      22.142   3.502  49.821  1.00  0.00     0.198 C 
BRANCH  15  17
HETATM   17  C11 UNL     1      20.411   1.687  49.592  1.00  0.00     0.026 C 
HETATM   18  C12 UNL     1      21.370   0.840  48.780  1.00  0.00     0.007 C 
ENDBRANCH  15  17
BRANCH  16  19
HETATM   19  N4  UNL     1      21.347   4.620  49.379  1.00  0.00    -0.195 NA
HETATM   20  H18 UNL     1      20.325   4.389  49.318  1.00  0.00     0.141 HD
BRANCH  19  21
HETATM   21  S1  UNL     1      21.779   5.142  47.791  1.00  0.00     0.210 S 
HETATM   22  O2  UNL     1      23.042   5.948  47.803  1.00  0.00    -0.211 OA
HETATM   23  O3  UNL     1      20.706   5.945  47.138  1.00  0.00    -0.211 OA
BRANCH  21  24
HETATM   24  C14 UNL     1      22.066   3.731  46.720  1.00  0.00     0.153 C 
HETATM   25  C15 UNL     1      21.468   3.938  45.368  1.00  0.00     0.022 C 
ENDBRANCH  21  24
ENDBRANCH  19  21
ENDBRANCH  16  19
ENDBRANCH   4  11
BRANCH   1  26
HETATM   26  N1  UNL     1      23.959  -0.134  53.792  1.00  0.00    -0.325 N 
HETATM   27  C3  UNL     1      22.685  -0.650  53.491  1.00  0.00     0.221 C 
HETATM   28  O1  UNL     1      21.941  -0.546  52.491  1.00  0.00    -0.273 OA
HETATM   29  H6  UNL     1      24.400  -0.353  54.707  1.00  0.00     0.169 HD
BRANCH  27  30
HETATM   30  C2  UNL     1      22.012  -1.500  54.507  1.00  0.00     0.098 C 
HETATM   31  C1  UNL     1      20.532  -1.663  54.209  1.00  0.00     0.014 C 
ENDBRANCH  27  30
ENDBRANCH   1  26
BRANCH  10  32
HETATM   32  O4  UNL     1      26.597  -0.692  53.408  1.00  0.00    -0.354 OA
HETATM   33  C20 UNL     1      27.011  -1.809  52.648  1.00  0.00     0.210 C 
ENDBRANCH  10  32
TORSDOF 8
ENDMDL
MODEL 4
REMARK VINA RESULT:      -7.3      2.960      5.264
REMARK  8 active torsions:
REMARK  status: ('A' for Active; 'I' for Inactive)
REMARK    1  A    between atoms: C2_2  and  C3_3 
REMARK       I    between atoms: C3_3  and  N1_5 
REMARK    2  A    between atoms: N1_5  and  C4_6 
REMARK    3  A    between atoms: C7_9  and  N2_10 
REMARK    4  A    between atoms: C10_14  and  C11_15 
REMARK    5  A    between atoms: C13_17  and  N4_18 
REMARK    6  A    between atoms: N4_18  and  S1_19 
REMARK    7  A    between atoms: S1_19  and  C14_22 
REMARK    8  A    between atoms: C19_29  and  O4_30 
ROOT
HETATM    1  C4  UNL     1      25.604   0.649  52.839  1.00  0.00     0.069 A 
HETATM    2  C5  UNL     1      24.665   1.609  52.521  1.00  0.00     0.050 A 
HETATM    3  C6  UNL     1      23.333   1.280  52.652  1.00  0.00     0.041 A 
HETATM    4  C7  UNL     1      22.468   2.298  52.313  1.00  0.00     0.141 A 
HETATM    5  N5  UNL     1      21.127   2.084  52.405  1.00  0.00    -0.224 NA
HETATM    6  C16 UNL     1      20.659   0.879  52.827  1.00  0.00     0.236 A 
HETATM    7  N6  UNL     1      21.516  -0.128  53.163  1.00  0.00    -0.241 NA
HETATM    8  C17 UNL     1      22.841   0.064  53.080  1.00  0.00     0.075 A 
HETATM    9  C18 UNL     1      23.793  -0.873  53.389  1.00  0.00     0.071 A 
HETATM   10  C19 UNL     1      25.154  -0.603  53.276  1.00  0.00     0.097 A 
ENDROOT
BRANCH   4  11
HETATM   11  N2  UNL     1      22.748   3.617  51.857  1.00  0.00    -0.340 N 
HETATM   12  C8  UNL     1      22.588   4.954  52.457  1.00  0.00     0.172 C 
HETATM   13  C9  UNL     1      22.102   5.912  51.400  1.00  0.00     0.103 C 
HETATM   14  N3  UNL     1      21.926   5.606  50.182  1.00  0.00    -0.295 NA
HETATM   15  C10 UNL     1      22.178   4.301  49.690  1.00  0.00     0.145 C 
HETATM   16  C13 UNL     1      23.314   3.706  50.504  1.00  0.00     0.198 C 
BRANCH  15  17
HETATM   17  C11 UNL     1      22.445   4.266  48.207  1.00  0.00     0.026 C 
HETATM   18  C12 UNL     1      22.277   2.827  47.766  1.00  0.00     0.007 C 
ENDBRANCH  15  17
BRANCH  16  19
HETATM   19  N4  UNL     1      24.400   4.651  50.563  1.00  0.00    -0.195 NA
HETATM   20  H18 UNL     1      24.191   5.539  50.042  1.00  0.00     0.141 HD
BRANCH  19  21
HETATM   21  S1  UNL     1      25.841   4.038  49.835  1.00  0.00     0.210 S 
HETATM   22  O2  UNL     1      25.541   2.911  48.893  1.00  0.00    -0.211 OA
HETATM   23  O3  UNL     1      26.837   3.569  50.839  1.00  0.00    -0.211 OA
BRANCH  21  24
HETATM   24  C14 UNL     1      26.659   5.319  48.882  1.00  0.00     0.153 C 
HETATM   25  C15 UNL     1      28.064   4.941  48.547  1.00  0.00     0.022 C 
ENDBRANCH  21  24
ENDBRANCH  19  21
ENDBRANCH  16  19
ENDBRANCH   4  11
BRANCH   1  26
HETATM   26  N1  UNL     1      27.001   0.877  52.740  1.00  0.00    -0.325 N 
HETATM   27  C3  UNL     1      27.857   1.055  53.843  1.00  0.00     0.221 C 
HETATM   28  O1  UNL     1      27.662   1.062  55.078  1.00  0.00    -0.273 OA
HETATM   29  H6  UNL     1      27.388   0.912  51.777  1.00  0.00     0.169 HD
BRANCH  27  30
HETATM   30  C2  UNL     1      29.302   1.288  53.580  1.00  0.00     0.098 C 
HETATM   31  C1  UNL     1      30.078  -0.017  53.535  1.00  0.00     0.014 C 
ENDBRANCH  27  30
ENDBRANCH   1  26
BRANCH  10  32
HETATM   32  O4  UNL     1      26.118  -1.554  53.592  1.00  0.00    -0.354 OA
HETATM   33  C20 UNL     1      26.737  -2.247  52.527  1.00  0.00     0.210 C 
ENDBRANCH  10  32
TORSDOF 8
ENDMDL
MODEL 5
REMARK VINA RESULT:      -7.2      2.645      3.797
REMARK  8 active torsions:
REMARK  status: ('A' for Active; 'I' for Inactive)
REMARK    1  A    between atoms: C2_2  and  C3_3 
REMARK       I    between atoms: C3_3  and  N1_5 
REMARK    2  A    between atoms: N1_5  and  C4_6 
REMARK    3  A    between atoms: C7_9  and  N2_10 
REMARK    4  A    between atoms: C10_14  and  C11_15 
REMARK    5  A    between atoms: C13_17  and  N4_18 
REMARK    6  A    between atoms: N4_18  and  S1_19 
REMARK    7  A    between atoms: S1_19  and  C14_22 
REMARK    8  A    between atoms: C19_29  and  O4_30 
ROOT
HETATM    1  C4  UNL     1      24.468  -0.046  53.411  1.00  0.00     0.069 A 
HETATM    2  C5  UNL     1      23.429   0.397  52.617  1.00  0.00     0.050 A 
HETATM    3  C6  UNL     1      22.149   0.008  52.948  1.00  0.00     0.041 A 
HETATM    4  C7  UNL     1      21.178   0.496  52.101  1.00  0.00     0.141 A 
HETATM    5  N5  UNL     1      19.876   0.174  52.334  1.00  0.00    -0.224 NA
HETATM    6  C16 UNL     1      19.551  -0.619  53.390  1.00  0.00     0.236 A 
HETATM    7  N6  UNL     1      20.514  -1.102  54.227  1.00  0.00    -0.241 NA
HETATM    8  C17 UNL     1      21.802  -0.795  54.015  1.00  0.00     0.075 A 
HETATM    9  C18 UNL     1      22.851  -1.223  54.789  1.00  0.00     0.071 A 
HETATM   10  C19 UNL     1      24.166  -0.865  54.506  1.00  0.00     0.097 A 
ENDROOT
BRANCH   4  11
HETATM   11  N2  UNL     1      21.305   1.333  50.957  1.00  0.00    -0.340 N 
HETATM   12  C8  UNL     1      21.616   1.074  49.540  1.00  0.00     0.172 C 
HETATM   13  C9  UNL     1      22.526   2.163  49.031  1.00  0.00     0.103 C 
HETATM   14  N3  UNL     1      22.901   3.163  49.715  1.00  0.00    -0.295 NA
HETATM   15  C10 UNL     1      22.485   3.355  51.055  1.00  0.00     0.145 C 
HETATM   16  C13 UNL     1      21.092   2.766  51.202  1.00  0.00     0.198 C 
BRANCH  15  17
HETATM   17  C11 UNL     1      22.558   4.793  51.500  1.00  0.00     0.026 C 
HETATM   18  C12 UNL     1      23.438   4.825  52.734  1.00  0.00     0.007 C 
ENDBRANCH  15  17
BRANCH  16  19
HETATM   19  N4  UNL     1      20.256   3.256  50.135  1.00  0.00    -0.195 NA
HETATM   20  H18 UNL     1      20.459   4.257  49.892  1.00  0.00     0.141 HD
BRANCH  19  21
HETATM   21  S1  UNL     1      18.581   3.232  50.555  1.00  0.00     0.210 S 
HETATM   22  O2  UNL     1      18.377   3.513  52.012  1.00  0.00    -0.211 OA
HETATM   23  O3  UNL     1      17.925   1.935  50.222  1.00  0.00    -0.211 OA
BRANCH  21  24
HETATM   24  C14 UNL     1      17.686   4.492  49.644  1.00  0.00     0.153 C 
HETATM   25  C15 UNL     1      16.217   4.226  49.640  1.00  0.00     0.022 C 
ENDBRANCH  21  24
ENDBRANCH  19  21
ENDBRANCH  16  19
ENDBRANCH   4  11
BRANCH   1  26
HETATM   26  N1  UNL     1      25.824   0.292  53.164  1.00  0.00    -0.325 N 
HETATM   27  C3  UNL     1      26.437   1.484  53.592  1.00  0.00     0.221 C 
HETATM   28  O1  UNL     1      26.018   2.471  54.237  1.00  0.00    -0.273 OA
HETATM   29  H6  UNL     1      26.374  -0.406  52.626  1.00  0.00     0.169 HD
BRANCH  27  30
HETATM   30  C2  UNL     1      27.868   1.699  53.255  1.00  0.00     0.098 C 
HETATM   31  C1  UNL     1      28.696   0.453  53.512  1.00  0.00     0.014 C 
ENDBRANCH  27  30
ENDBRANCH   1  26
BRANCH  10  32
HETATM   32  O4  UNL     1      25.228  -1.299  55.292  1.00  0.00    -0.354 OA
HETATM   33  C20 UNL     1      25.248  -0.910  56.650  1.00  0.00     0.210 C 
ENDBRANCH  10  32
TORSDOF 8
ENDMDL
MODEL 6
REMARK VINA RESULT:      -7.2      2.363      3.494
REMARK  8 active torsions:
REMARK  status: ('A' for Active; 'I' for Inactive)
REMARK    1  A    between atoms: C2_2  and  C3_3 
REMARK       I    between atoms: C3_3  and  N1_5 
REMARK    2  A    between atoms: N1_5  and  C4_6 
REMARK    3  A    between atoms: C7_9  and  N2_10 
REMARK    4  A    between atoms: C10_14  and  C11_15 
REMARK    5  A    between atoms: C13_17  and  N4_18 
REMARK    6  A    between atoms: N4_18  and  S1_19 
REMARK    7  A    between atoms: S1_19  and  C14_22 
REMARK    8  A    between atoms: C19_29  and  O4_30 
ROOT
HETATM    1  C4  UNL     1      25.331   1.377  51.750  1.00  0.00     0.069 A 
HETATM    2  C5  UNL     1      23.975   1.600  51.886  1.00  0.00     0.050 A 
HETATM    3  C6  UNL     1      23.279   0.830  52.793  1.00  0.00     0.041 A 
HETATM    4  C7  UNL     1      21.934   1.122  52.860  1.00  0.00     0.141 A 
HETATM    5  N5  UNL     1      21.148   0.421  53.724  1.00  0.00    -0.224 NA
HETATM    6  C16 UNL     1      21.695  -0.550  54.503  1.00  0.00     0.236 A 
HETATM    7  N6  UNL     1      23.027  -0.838  54.435  1.00  0.00    -0.241 NA
HETATM    8  C17 UNL     1      23.818  -0.158  53.591  1.00  0.00     0.075 A 
HETATM    9  C18 UNL     1      25.165  -0.361  53.438  1.00  0.00     0.071 A 
HETATM   10  C19 UNL     1      25.923   0.383  52.539  1.00  0.00     0.097 A 
ENDROOT
BRANCH   4  11
HETATM   11  N2  UNL     1      21.175   2.089  52.144  1.00  0.00    -0.340 N 
HETATM   12  C8  UNL     1      20.761   3.474  52.434  1.00  0.00     0.172 C 
HETATM   13  C9  UNL     1      19.344   3.673  51.958  1.00  0.00     0.103 C 
HETATM   14  N3  UNL     1      18.661   2.793  51.352  1.00  0.00    -0.295 NA
HETATM   15  C10 UNL     1      19.181   1.508  51.057  1.00  0.00     0.145 C 
HETATM   16  C13 UNL     1      20.677   1.650  50.832  1.00  0.00     0.198 C 
BRANCH  15  17
HETATM   17  C11 UNL     1      18.481   0.834  49.905  1.00  0.00     0.026 C 
HETATM   18  C12 UNL     1      17.437  -0.086  50.506  1.00  0.00     0.007 C 
ENDBRANCH  15  17
BRANCH  16  19
HETATM   19  N4  UNL     1      20.917   2.729  49.908  1.00  0.00    -0.195 NA
HETATM   20  H18 UNL     1      20.028   3.156  49.547  1.00  0.00     0.141 HD
BRANCH  19  21
HETATM   21  S1  UNL     1      21.762   2.204  48.497  1.00  0.00     0.210 S 
HETATM   22  O2  UNL     1      21.612   0.728  48.285  1.00  0.00    -0.211 OA
HETATM   23  O3  UNL     1      23.215   2.534  48.541  1.00  0.00    -0.211 OA
BRANCH  21  24
HETATM   24  C14 UNL     1      21.111   3.016  47.035  1.00  0.00     0.153 C 
HETATM   25  C15 UNL     1      19.629   3.173  47.109  1.00  0.00     0.022 C 
ENDBRANCH  21  24
ENDBRANCH  19  21
ENDBRANCH  16  19
ENDBRANCH   4  11
BRANCH   1  26
HETATM   26  N1  UNL     1      26.144   2.110  50.848  1.00  0.00    -0.325 N 
HETATM   27  C3  UNL     1      25.909   3.444  50.470  1.00  0.00     0.221 C 
HETATM   28  O1  UNL     1      25.024   4.272  50.780  1.00  0.00    -0.273 OA
HETATM   29  H6  UNL     1      26.960   1.599  50.456  1.00  0.00     0.169 HD
BRANCH  27  30
HETATM   30  C2  UNL     1      26.851   4.080  49.511  1.00  0.00     0.098 C 
HETATM   31  C1  UNL     1      26.321   5.412  49.008  1.00  0.00     0.014 C 
ENDBRANCH  27  30
ENDBRANCH   1  26
BRANCH  10  32
HETATM   32  O4  UNL     1      27.290   0.176  52.386  1.00  0.00    -0.354 OA
HETATM   33  C20 UNL     1      27.885  -0.875  53.119  1.00  0.00     0.210 C 
ENDBRANCH  10  32
TORSDOF 8
ENDMDL
MODEL 7
REMARK VINA RESULT:      -6.5      2.869      5.341
REMARK  8 active torsions:
REMARK  status: ('A' for Active; 'I' for Inactive)
REMARK    1  A    between atoms: C2_2  and  C3_3 
REMARK       I    between atoms: C3_3  and  N1_5 
REMARK    2  A    between atoms: N1_5  and  C4_6 
REMARK    3  A    between atoms: C7_9  and  N2_10 
REMARK    4  A    between atoms: C10_14  and  C11_15 
REMARK    5  A    between atoms: C13_17  and  N4_18 
REMARK    6  A    between atoms: N4_18  and  S1_19 
REMARK    7  A    between atoms: S1_19  and  C14_22 
REMARK    8  A    between atoms: C19_29  and  O4_30 
ROOT
HETATM    1  C4  UNL     1      23.512   0.924  52.530  1.00  0.00     0.069 A 
HETATM    2  C5  UNL     1      23.511   1.840  51.498  1.00  0.00     0.050 A 
HETATM    3  C6  UNL     1      22.461   1.808  50.605  1.00  0.00     0.041 A 
HETATM    4  C7  UNL     1      22.543   2.756  49.608  1.00  0.00     0.141 A 
HETATM    5  N5  UNL     1      21.559   2.815  48.669  1.00  0.00    -0.224 NA
HETATM    6  C16 UNL     1      20.516   1.945  48.724  1.00  0.00     0.236 A 
HETATM    7  N6  UNL     1      20.436   1.006  49.711  1.00  0.00    -0.241 NA
HETATM    8  C17 UNL     1      21.396   0.933  50.646  1.00  0.00     0.075 A 
HETATM    9  C18 UNL     1      21.419   0.033  51.680  1.00  0.00     0.071 A 
HETATM   10  C19 UNL     1      22.452   0.014  52.614  1.00  0.00     0.097 A 
ENDROOT
BRANCH   4  11
HETATM   11  N2  UNL     1      23.536   3.749  49.376  1.00  0.00    -0.340 N 
HETATM   12  C8  UNL     1      25.001   3.704  49.222  1.00  0.00     0.172 C 
HETATM   13  C9  UNL     1      25.608   4.884  49.936  1.00  0.00     0.103 C 
HETATM   14  N3  UNL     1      24.938   5.791  50.517  1.00  0.00    -0.295 NA
HETATM   15  C10 UNL     1      23.522   5.779  50.548  1.00  0.00     0.145 C 
HETATM   16  C13 UNL     1      23.033   5.126  49.266  1.00  0.00     0.198 C 
BRANCH  15  17
HETATM   17  C11 UNL     1      22.920   7.142  50.772  1.00  0.00     0.026 C 
HETATM   18  C12 UNL     1      24.043   8.147  50.621  1.00  0.00     0.007 C 
ENDBRANCH  15  17
BRANCH  16  19
HETATM   19  N4  UNL     1      23.701   5.730  48.141  1.00  0.00    -0.195 NA
HETATM   20  H18 UNL     1      24.419   6.440  48.432  1.00  0.00     0.141 HD
BRANCH  19  21
HETATM   21  S1  UNL     1      22.610   6.594  47.120  1.00  0.00     0.210 S 
HETATM   22  O2  UNL     1      22.671   6.098  45.708  1.00  0.00    -0.211 OA
HETATM   23  O3  UNL     1      22.865   8.063  47.121  1.00  0.00    -0.211 OA
BRANCH  21  24
HETATM   24  C14 UNL     1      20.919   6.381  47.682  1.00  0.00     0.153 C 
HETATM   25  C15 UNL     1      19.949   7.048  46.764  1.00  0.00     0.022 C 
ENDBRANCH  21  24
ENDBRANCH  19  21
ENDBRANCH  16  19
ENDBRANCH   4  11
BRANCH   1  26
HETATM   26  N1  UNL     1      24.541   0.867  53.506  1.00  0.00    -0.325 N 
HETATM   27  C3  UNL     1      25.763   0.190  53.334  1.00  0.00     0.221 C 
HETATM   28  O1  UNL     1      26.240  -0.475  52.388  1.00  0.00    -0.273 OA
HETATM   29  H6  UNL     1      24.350   1.366  54.396  1.00  0.00     0.169 HD
BRANCH  27  30
HETATM   30  C2  UNL     1      26.745   0.218  54.449  1.00  0.00     0.098 C 
HETATM   31  C1  UNL     1      28.143   0.545  53.954  1.00  0.00     0.014 C 
ENDBRANCH  27  30
ENDBRANCH   1  26
BRANCH  10  32
HETATM   32  O4  UNL     1      22.474  -0.899  53.663  1.00  0.00    -0.354 OA
HETATM   33  C20 UNL     1      21.561  -0.710  54.724  1.00  0.00     0.210 C 
ENDBRANCH  10  32
TORSDOF 8
ENDMDL
MODEL 8
REMARK VINA RESULT:      -6.4      5.148      9.350
REMARK  8 active torsions:
REMARK  status: ('A' for Active; 'I' for Inactive)
REMARK    1  A    between atoms: C2_2  and  C3_3 
REMARK       I    between atoms: C3_3  and  N1_5 
REMARK    2  A    between atoms: N1_5  and  C4_6 
REMARK    3  A    between atoms: C7_9  and  N2_10 
REMARK    4  A    between atoms: C10_14  and  C11_15 
REMARK    5  A    between atoms: C13_17  and  N4_18 
REMARK    6  A    between atoms: N4_18  and  S1_19 
REMARK    7  A    between atoms: S1_19  and  C14_22 
REMARK    8  A    between atoms: C19_29  and  O4_30 
ROOT
HETATM    1  C4  UNL     1      25.873   6.660  48.384  1.00  0.00     0.069 A 
HETATM    2  C5  UNL     1      26.892   7.352  47.762  1.00  0.00     0.050 A 
HETATM    3  C6  UNL     1      28.148   6.784  47.750  1.00  0.00     0.041 A 
HETATM    4  C7  UNL     1      29.102   7.545  47.108  1.00  0.00     0.141 A 
HETATM    5  N5  UNL     1      30.379   7.080  47.036  1.00  0.00    -0.224 NA
HETATM    6  C16 UNL     1      30.698   5.881  47.594  1.00  0.00     0.236 A 
HETATM    7  N6  UNL     1      29.753   5.130  48.229  1.00  0.00    -0.241 NA
HETATM    8  C17 UNL     1      28.488   5.570  48.310  1.00  0.00     0.075 A 
HETATM    9  C18 UNL     1      27.459   4.902  48.922  1.00  0.00     0.071 A 
HETATM   10  C19 UNL     1      26.169   5.423  48.968  1.00  0.00     0.097 A 
ENDROOT
BRANCH   4  11
HETATM   11  N2  UNL     1      28.977   8.808  46.464  1.00  0.00    -0.340 N 
HETATM   12  C8  UNL     1      28.725   9.217  45.071  1.00  0.00     0.172 C 
HETATM   13  C9  UNL     1      29.587  10.409  44.745  1.00  0.00     0.103 C 
HETATM   14  N3  UNL     1      30.353  10.988  45.574  1.00  0.00    -0.295 NA
HETATM   15  C10 UNL     1      30.470  10.556  46.918  1.00  0.00     0.145 C 
HETATM   16  C13 UNL     1      29.131   9.977  47.341  1.00  0.00     0.198 C 
BRANCH  15  17
HETATM   17  C11 UNL     1      30.957  11.636  47.849  1.00  0.00     0.026 C 
HETATM   18  C12 UNL     1      30.826  11.092  49.257  1.00  0.00     0.007 C 
ENDBRANCH  15  17
BRANCH  16  19
HETATM   19  N4  UNL     1      28.083  10.904  46.995  1.00  0.00    -0.195 NA
HETATM   20  H18 UNL     1      28.455  11.820  46.641  1.00  0.00     0.141 HD
BRANCH  19  21
HETATM   21  S1  UNL     1      27.103  11.319  48.355  1.00  0.00     0.210 S 
HETATM   22  O2  UNL     1      27.330  12.737  48.781  1.00  0.00    -0.211 OA
HETATM   23  O3  UNL     1      27.337  10.426  49.525  1.00  0.00    -0.211 OA
BRANCH  21  24
HETATM   24  C14 UNL     1      25.363  11.162  47.948  1.00  0.00     0.153 C 
HETATM   25  C15 UNL     1      24.855  12.372  47.235  1.00  0.00     0.022 C 
ENDBRANCH  21  24
ENDBRANCH  19  21
ENDBRANCH  16  19
ENDBRANCH   4  11
BRANCH   1  26
HETATM   26  N1  UNL     1      24.543   7.150  48.457  1.00  0.00    -0.325 N 
HETATM   27  C3  UNL     1      24.072   8.025  49.453  1.00  0.00     0.221 C 
HETATM   28  O1  UNL     1      24.619   8.561  50.442  1.00  0.00    -0.273 OA
HETATM   29  H6  UNL     1      23.898   6.822  47.712  1.00  0.00     0.169 HD
BRANCH  27  30
HETATM   30  C2  UNL     1      22.649   8.452  49.398  1.00  0.00     0.098 C 
HETATM   31  C1  UNL     1      22.285   9.010  48.033  1.00  0.00     0.014 C 
ENDBRANCH  27  30
ENDBRANCH   1  26
BRANCH  10  32
HETATM   32  O4  UNL     1      25.127   4.743  49.590  1.00  0.00    -0.354 OA
HETATM   33  C20 UNL     1      25.272   3.353  49.793  1.00  0.00     0.210 C 
ENDBRANCH  10  32
TORSDOF 8
ENDMDL
MODEL 9
REMARK VINA RESULT:      -6.3      8.134     11.625
REMARK  8 active torsions:
REMARK  status: ('A' for Active; 'I' for Inactive)
REMARK    1  A    between atoms: C2_2  and  C3_3 
REMARK       I    between atoms: C3_3  and  N1_5 
REMARK    2  A    between atoms: N1_5  and  C4_6 
REMARK    3  A    between atoms: C7_9  and  N2_10 
REMARK    4  A    between atoms: C10_14  and  C11_15 
REMARK    5  A    between atoms: C13_17  and  N4_18 
REMARK    6  A    between atoms: N4_18  and  S1_19 
REMARK    7  A    between atoms: S1_19  and  C14_22 
REMARK    8  A    between atoms: C19_29  and  O4_30 
ROOT
HETATM    1  C4  UNL     1      32.830   5.288  44.735  1.00  0.00     0.069 A 
HETATM    2  C5  UNL     1      32.420   6.327  45.546  1.00  0.00     0.050 A 
HETATM    3  C6  UNL     1      32.365   7.592  45.000  1.00  0.00     0.041 A 
HETATM    4  C7  UNL     1      31.945   8.565  45.881  1.00  0.00     0.141 A 
HETATM    5  N5  UNL     1      31.854   9.853  45.448  1.00  0.00    -0.224 NA
HETATM    6  C16 UNL     1      32.175  10.162  44.164  1.00  0.00     0.236 A 
HETATM    7  N6  UNL     1      32.591   9.197  43.293  1.00  0.00    -0.241 NA
HETATM    8  C17 UNL     1      32.686   7.922  43.700  1.00  0.00     0.075 A 
HETATM    9  C18 UNL     1      33.092   6.874  42.915  1.00  0.00     0.071 A 
HETATM   10  C19 UNL     1      33.169   5.574  43.407  1.00  0.00     0.097 A 
ENDROOT
BRANCH   4  11
HETATM   11  N2  UNL     1      31.563   8.453  47.247  1.00  0.00    -0.340 N 
HETATM   12  C8  UNL     1      32.320   8.329  48.506  1.00  0.00     0.172 C 
HETATM   13  C9  UNL     1      31.618   7.344  49.406  1.00  0.00     0.103 C 
HETATM   14  N3  UNL     1      30.520   6.774  49.127  1.00  0.00    -0.295 NA
HETATM   15  C10 UNL     1      29.834   7.018  47.911  1.00  0.00     0.145 C 
HETATM   16  C13 UNL     1      30.115   8.452  47.496  1.00  0.00     0.198 C 
BRANCH  15  17
HETATM   17  C11 UNL     1      28.359   6.714  47.990  1.00  0.00     0.026 C 
HETATM   18  C12 UNL     1      28.233   5.271  48.434  1.00  0.00     0.007 C 
ENDBRANCH  15  17
BRANCH  16  19
HETATM   19  N4  UNL     1      29.879   9.326  48.617  1.00  0.00    -0.195 NA
HETATM   20  H18 UNL     1      29.214   8.913  49.317  1.00  0.00     0.141 HD
BRANCH  19  21
HETATM   21  S1  UNL     1      29.154  10.819  48.141  1.00  0.00     0.210 S 
HETATM   22  O2  UNL     1      30.185  11.882  47.916  1.00  0.00    -0.211 OA
HETATM   23  O3  UNL     1      28.163  11.318  49.137  1.00  0.00    -0.211 OA
BRANCH  21  24
HETATM   24  C14 UNL     1      28.256  10.620  46.601  1.00  0.00     0.153 C 
HETATM   25  C15 UNL     1      26.851  10.174  46.838  1.00  0.00     0.022 C 
ENDBRANCH  21  24
ENDBRANCH  19  21
ENDBRANCH  16  19
ENDBRANCH   4  11
BRANCH   1  26
HETATM   26  N1  UNL     1      32.924   3.948  45.192  1.00  0.00    -0.325 N 
HETATM   27  C3  UNL     1      32.312   3.462  46.362  1.00  0.00     0.221 C 
HETATM   28  O1  UNL     1      31.595   4.002  47.233  1.00  0.00    -0.273 OA
HETATM   29  H6  UNL     1      33.491   3.307  44.603  1.00  0.00     0.169 HD
BRANCH  27  30
HETATM   30  C2  UNL     1      32.503   2.030  46.712  1.00  0.00     0.098 C 
HETATM   31  C1  UNL     1      33.223   1.870  48.040  1.00  0.00     0.014 C 
ENDBRANCH  27  30
ENDBRANCH   1  26
BRANCH  10  32
HETATM   32  O4  UNL     1      33.580   4.512  42.609  1.00  0.00    -0.354 OA
HETATM   33  C20 UNL     1      32.955   4.348  41.353  1.00  0.00     0.210 C 
ENDBRANCH  10  32
TORSDOF 8
ENDMDL
