MODEL 1
REMARK VINA RESULT:      -6.9      0.000      0.000
REMARK  2 active torsions:
REMARK  status: ('A' for Active; 'I' for Inactive)
REMARK    1  A    between atoms: C2_2  and  N1_3 
REMARK    2  A    between atoms: C8_11  and  O1_12 
ROOT
HETATM    1  N1  UNL     1      25.173   5.065  50.224  1.00  0.00    -0.366 N 
HETATM    2  C3  UNL     1      24.368   6.232  50.610  1.00  0.00     0.106 A 
HETATM    3  N2  UNL     1      23.097   6.394  50.760  1.00  0.00     0.000 N 
HETATM    4  C4  UNL     1      22.495   7.636  50.552  1.00  0.00     0.092 A 
HETATM    5  N3  UNL     1      21.567   6.691  50.907  1.00  0.00    -0.205 NA
HETATM    6  C5  UNL     1      21.923   5.396  51.168  1.00  0.00     0.076 A 
HETATM    7  C6  UNL     1      20.864   4.720  51.613  1.00  0.00     0.044 A 
HETATM    8  C7  UNL     1      21.374   3.581  52.146  1.00  0.00     0.134 A 
HETATM    9  C8  UNL     1      22.668   3.228  52.232  1.00  0.00     0.089 A 
HETATM   10  C10 UNL     1      23.158   4.283  51.627  1.00  0.00     0.089 A 
HETATM   11  C11 UNL     1      23.232   5.569  50.938  1.00  0.00     0.043 A 
HETATM   12  O2  UNL     1      20.543   2.521  52.672  1.00  0.00    -0.196 OA
HETATM   13  O3  UNL     1      20.201   1.706  51.551  1.00  0.00    -0.235 OA
HETATM   14  C12 UNL     1      21.137   0.758  51.314  1.00  0.00     0.212 C 
HETATM   15  C13 UNL     1      21.604   0.636  49.903  1.00  0.00     0.050 C 
HETATM   16  C14 UNL     1      22.064   1.921  49.229  1.00  0.00     0.016 A 
HETATM   17  C15 UNL     1      21.369   2.236  48.059  1.00  0.00     0.031 A 
HETATM   18  C16 UNL     1      22.238   2.893  48.526  1.00  0.00     0.029 A 
HETATM   19  S1  UNL     1      23.174   3.583  49.047  1.00  0.00    -0.201 SA
HETATM   20  C17 UNL     1      23.178   3.585  49.047  1.00  0.00     0.094 A 
HETATM   21  H17 UNL     1      24.158   4.323  49.568  1.00  0.00     0.094 HD
ENDROOT
BRANCH   1  22
HETATM   22  C2  UNL     1      26.103   4.016  49.919  1.00  0.00     0.124 C 
HETATM   23  C1  UNL     1      27.209   4.323  49.013  1.00  0.00     0.027 C 
ENDBRANCH   1  22
BRANCH   9  24
HETATM   24  O1  UNL     1      23.236   2.142  52.779  1.00  0.00    -0.357 OA
HETATM   25  C9  UNL     1      24.454   1.534  52.672  1.00  0.00     0.209 C 
ENDBRANCH   9  24
TORSDOF 2
ENDMDL
MODEL 2
REMARK VINA RESULT:      -6.9      3.103      5.024
REMARK  2 active torsions:
REMARK  status: ('A' for Active; 'I' for Inactive)
REMARK    1  A    between atoms: C2_2  and  N1_3 
REMARK    2  A    between atoms: C8_11  and  O1_12 
ROOT
HETATM    1  N1  UNL     1      24.832   0.065  52.683  1.00  0.00    -0.366 N 
HETATM    2  C3  UNL     1      23.704  -0.530  53.413  1.00  0.00     0.106 A 
HETATM    3  N2  UNL     1      22.547  -0.066  53.743  1.00  0.00     0.000 N 
HETATM    4  C4  UNL     1      21.881  -0.522  54.881  1.00  0.00     0.092 A 
HETATM    5  N3  UNL     1      21.147   0.438  54.231  1.00  0.00    -0.205 NA
HETATM    6  C5  UNL     1      21.597   1.030  53.082  1.00  0.00     0.076 A 
HETATM    7  C6  UNL     1      20.647   1.823  52.586  1.00  0.00     0.044 A 
HETATM    8  C7  UNL     1      21.044   2.092  51.317  1.00  0.00     0.134 A 
HETATM    9  C8  UNL     1      22.140   1.632  50.689  1.00  0.00     0.089 A 
HETATM   10  C10 UNL     1      22.620   0.945  51.697  1.00  0.00     0.089 A 
HETATM   11  C11 UNL     1      22.751   0.352  53.026  1.00  0.00     0.043 A 
HETATM   12  O2  UNL     1      20.326   2.997  50.445  1.00  0.00    -0.196 OA
HETATM   13  O3  UNL     1      20.820   4.301  50.753  1.00  0.00    -0.235 OA
HETATM   14  C12 UNL     1      21.928   4.601  50.035  1.00  0.00     0.212 C 
HETATM   15  C13 UNL     1      23.080   5.150  50.806  1.00  0.00     0.050 C 
HETATM   16  C14 UNL     1      23.520   4.353  52.025  1.00  0.00     0.016 A 
HETATM   17  C15 UNL     1      23.493   5.072  53.222  1.00  0.00     0.031 A 
HETATM   18  C16 UNL     1      23.811   3.935  53.125  1.00  0.00     0.029 A 
HETATM   19  S1  UNL     1      24.149   2.712  52.997  1.00  0.00    -0.201 SA
HETATM   20  C17 UNL     1      24.151   2.709  52.997  1.00  0.00     0.094 A 
HETATM   21  H17 UNL     1      24.513   1.431  52.890  1.00  0.00     0.094 HD
ENDROOT
BRANCH   1  22
HETATM   22  C2  UNL     1      25.993   0.473  51.945  1.00  0.00     0.124 C 
HETATM   23  C1  UNL     1      27.286   0.436  52.627  1.00  0.00     0.027 C 
ENDBRANCH   1  22
BRANCH   9  24
HETATM   24  O1  UNL     1      22.565   1.827  49.431  1.00  0.00    -0.357 OA
HETATM   25  C9  UNL     1      22.097   1.494  48.192  1.00  0.00     0.209 C 
ENDBRANCH   9  24
TORSDOF 2
ENDMDL
MODEL 3
REMARK VINA RESULT:      -6.9      3.139      5.429
REMARK  2 active torsions:
REMARK  status: ('A' for Active; 'I' for Inactive)
REMARK    1  A    between atoms: C2_2  and  N1_3 
REMARK    2  A    between atoms: C8_11  and  O1_12 
ROOT
HETATM    1  N1  UNL     1      20.136  -0.319  52.858  1.00  0.00    -0.366 N 
HETATM    2  C3  UNL     1      21.404  -0.221  53.595  1.00  0.00     0.106 A 
HETATM    3  N2  UNL     1      22.489   0.437  53.364  1.00  0.00     0.000 N 
HETATM    4  C4  UNL     1      23.726  -0.026  53.812  1.00  0.00     0.092 A 
HETATM    5  N3  UNL     1      23.860   1.155  53.128  1.00  0.00    -0.205 NA
HETATM    6  C5  UNL     1      22.778   1.805  52.597  1.00  0.00     0.076 A 
HETATM    7  C6  UNL     1      23.160   2.982  52.103  1.00  0.00     0.044 A 
HETATM    8  C7  UNL     1      22.008   3.672  51.911  1.00  0.00     0.134 A 
HETATM    9  C8  UNL     1      20.757   3.265  52.189  1.00  0.00     0.089 A 
HETATM   10  C10 UNL     1      21.075   2.069  52.622  1.00  0.00     0.089 A 
HETATM   11  C11 UNL     1      21.871   0.905  53.002  1.00  0.00     0.043 A 
HETATM   12  O2  UNL     1      21.971   4.984  51.304  1.00  0.00    -0.196 OA
HETATM   13  O3  UNL     1      21.933   4.756  49.896  1.00  0.00    -0.235 OA
HETATM   14  C12 UNL     1      20.667   4.590  49.447  1.00  0.00     0.212 C 
HETATM   15  C13 UNL     1      20.433   3.412  48.564  1.00  0.00     0.050 C 
HETATM   16  C14 UNL     1      20.919   2.068  49.086  1.00  0.00     0.016 A 
HETATM   17  C15 UNL     1      21.832   1.422  48.248  1.00  0.00     0.031 A 
HETATM   18  C16 UNL     1      21.455   0.999  49.289  1.00  0.00     0.029 A 
HETATM   19  S1  UNL     1      21.036   0.565  50.412  1.00  0.00    -0.201 SA
HETATM   20  C17 UNL     1      21.034   0.563  50.415  1.00  0.00     0.094 A 
HETATM   21  H17 UNL     1      20.608   0.084  51.583  1.00  0.00     0.094 HD
ENDROOT
BRANCH   1  22
HETATM   22  C2  UNL     1      18.826  -0.480  52.296  1.00  0.00     0.124 C 
HETATM   23  C1  UNL     1      17.867  -1.315  53.019  1.00  0.00     0.027 C 
ENDBRANCH   1  22
BRANCH   9  24
HETATM   24  O1  UNL     1      19.587   3.910  52.062  1.00  0.00    -0.357 OA
HETATM   25  C9  UNL     1      18.313   3.541  51.735  1.00  0.00     0.209 C 
ENDBRANCH   9  24
TORSDOF 2
ENDMDL
MODEL 4
REMARK VINA RESULT:      -6.9      2.707      5.081
REMARK  2 active torsions:
REMARK  status: ('A' for Active; 'I' for Inactive)
REMARK    1  A    between atoms: C2_2  and  N1_3 
REMARK    2  A    between atoms: C8_11  and  O1_12 
ROOT
HETATM    1  N1  UNL     1      21.785   1.368  52.748  1.00  0.00    -0.366 N 
HETATM    2  C3  UNL     1      23.110   0.860  53.129  1.00  0.00     0.106 A 
HETATM    3  N2  UNL     1      24.261   0.931  52.551  1.00  0.00     0.000 N 
HETATM    4  C4  UNL     1      25.228  -0.059  52.738  1.00  0.00     0.092 A 
HETATM    5  N3  UNL     1      25.681   0.920  51.890  1.00  0.00    -0.205 NA
HETATM    6  C5  UNL     1      24.907   2.000  51.561  1.00  0.00     0.076 A 
HETATM    7  C6  UNL     1      25.623   2.859  50.835  1.00  0.00     0.044 A 
HETATM    8  C7  UNL     1      24.903   4.008  50.843  1.00  0.00     0.134 A 
HETATM    9  C8  UNL     1      23.738   4.238  51.473  1.00  0.00     0.089 A 
HETATM   10  C10 UNL     1      23.590   3.033  51.970  1.00  0.00     0.089 A 
HETATM   11  C11 UNL     1      23.847   1.633  52.294  1.00  0.00     0.043 A 
HETATM   12  O2  UNL     1      25.292   5.183  50.094  1.00  0.00    -0.196 OA
HETATM   13  O3  UNL     1      24.762   4.996  48.782  1.00  0.00    -0.235 OA
HETATM   14  C12 UNL     1      23.488   5.444  48.686  1.00  0.00     0.212 C 
HETATM   15  C13 UNL     1      22.511   4.512  48.054  1.00  0.00     0.050 C 
HETATM   16  C14 UNL     1      22.464   3.098  48.615  1.00  0.00     0.016 A 
HETATM   17  C15 UNL     1      22.711   2.097  47.672  1.00  0.00     0.031 A 
HETATM   18  C16 UNL     1      22.494   1.904  48.821  1.00  0.00     0.029 A 
HETATM   19  S1  UNL     1      22.258   1.720  50.060  1.00  0.00    -0.201 SA
HETATM   20  C17 UNL     1      22.257   1.719  50.063  1.00  0.00     0.094 A 
HETATM   21  H17 UNL     1      22.008   1.498  51.354  1.00  0.00     0.094 HD
ENDROOT
BRANCH   1  22
HETATM   22  C2  UNL     1      20.444   1.840  52.553  1.00  0.00     0.124 C 
HETATM   23  C1  UNL     1      19.397   0.848  52.311  1.00  0.00     0.027 C 
ENDBRANCH   1  22
BRANCH   9  24
HETATM   24  O1  UNL     1      23.001   5.356  51.553  1.00  0.00    -0.357 OA
HETATM   25  C9  UNL     1      21.663   5.631  51.570  1.00  0.00     0.209 C 
ENDBRANCH   9  24
TORSDOF 2
ENDMDL
MODEL 5
REMARK VINA RESULT:      -6.5      1.733      2.465
REMARK  2 active torsions:
REMARK  status: ('A' for Active; 'I' for Inactive)
REMARK    1  A    between atoms: C2_2  and  N1_3 
REMARK    2  A    between atoms: C8_11  and  O1_12 
ROOT
HETATM    1  N1  UNL     1      24.300   2.856  52.614  1.00  0.00    -0.366 N 
HETATM    2  C3  UNL     1      24.263   4.317  52.456  1.00  0.00     0.106 A 
HETATM    3  N2  UNL     1      23.510   5.091  51.751  1.00  0.00     0.000 N 
HETATM    4  C4  UNL     1      23.973   6.322  51.283  1.00  0.00     0.092 A 
HETATM    5  N3  UNL     1      22.681   6.096  50.884  1.00  0.00    -0.205 NA
HETATM    6  C5  UNL     1      22.010   4.954  51.229  1.00  0.00     0.076 A 
HETATM    7  C6  UNL     1      20.742   5.041  50.830  1.00  0.00     0.044 A 
HETATM    8  C7  UNL     1      20.099   4.045  51.491  1.00  0.00     0.134 A 
HETATM    9  C8  UNL     1      20.623   3.181  52.377  1.00  0.00     0.089 A 
HETATM   10  C10 UNL     1      21.858   3.618  52.308  1.00  0.00     0.089 A 
HETATM   11  C11 UNL     1      23.022   4.410  51.920  1.00  0.00     0.043 A 
HETATM   12  O2  UNL     1      18.701   3.737  51.277  1.00  0.00    -0.196 OA
HETATM   13  O3  UNL     1      18.668   2.857  50.154  1.00  0.00    -0.235 OA
HETATM   14  C12 UNL     1      18.824   1.564  50.524  1.00  0.00     0.212 C 
HETATM   15  C13 UNL     1      19.831   0.779  49.756  1.00  0.00     0.050 C 
HETATM   16  C14 UNL     1      21.217   1.394  49.630  1.00  0.00     0.016 A 
HETATM   17  C15 UNL     1      21.642   1.589  48.314  1.00  0.00     0.031 A 
HETATM   18  C16 UNL     1      22.271   1.878  49.275  1.00  0.00     0.029 A 
HETATM   19  S1  UNL     1      22.929   2.181  50.324  1.00  0.00    -0.201 SA
HETATM   20  C17 UNL     1      22.931   2.181  50.327  1.00  0.00     0.094 A 
HETATM   21  H17 UNL     1      23.642   2.503  51.408  1.00  0.00     0.094 HD
ENDROOT
BRANCH   1  22
HETATM   22  C2  UNL     1      24.432   1.461  52.921  1.00  0.00     0.124 C 
HETATM   23  C1  UNL     1      25.679   0.793  52.548  1.00  0.00     0.027 C 
ENDBRANCH   1  22
BRANCH   9  24
HETATM   24  O1  UNL     1      20.037   2.207  53.090  1.00  0.00    -0.357 OA
HETATM   25  C9  UNL     1      20.438   0.998  53.582  1.00  0.00     0.209 C 
ENDBRANCH   9  24
TORSDOF 2
ENDMDL
MODEL 6
REMARK VINA RESULT:      -6.5      2.239      4.200
REMARK  2 active torsions:
REMARK  status: ('A' for Active; 'I' for Inactive)
REMARK    1  A    between atoms: C2_2  and  N1_3 
REMARK    2  A    between atoms: C8_11  and  O1_12 
ROOT
HETATM    1  N1  UNL     1      26.135   2.728  50.476  1.00  0.00    -0.366 N 
HETATM    2  C3  UNL     1      26.395   1.727  51.519  1.00  0.00     0.106 A 
HETATM    3  N2  UNL     1      25.682   1.301  52.506  1.00  0.00     0.000 N 
HETATM    4  C4  UNL     1      26.275   0.822  53.675  1.00  0.00     0.092 A 
HETATM    5  N3  UNL     1      24.907   0.773  53.759  1.00  0.00    -0.205 NA
HETATM    6  C5  UNL     1      24.107   1.187  52.728  1.00  0.00     0.076 A 
HETATM    7  C6  UNL     1      22.834   0.915  53.011  1.00  0.00     0.044 A 
HETATM    8  C7  UNL     1      22.177   1.048  51.830  1.00  0.00     0.134 A 
HETATM    9  C8  UNL     1      22.704   1.356  50.633  1.00  0.00     0.089 A 
HETATM   10  C10 UNL     1      23.943   1.498  51.040  1.00  0.00     0.089 A 
HETATM   11  C11 UNL     1      25.112   1.539  51.914  1.00  0.00     0.043 A 
HETATM   12  O2  UNL     1      20.741   0.916  51.713  1.00  0.00    -0.196 OA
HETATM   13  O3  UNL     1      20.211   2.205  52.020  1.00  0.00    -0.235 OA
HETATM   14  C12 UNL     1      20.157   3.001  50.927  1.00  0.00     0.212 C 
HETATM   15  C13 UNL     1      20.716   4.374  51.087  1.00  0.00     0.050 C 
HETATM   16  C14 UNL     1      22.122   4.470  51.661  1.00  0.00     0.016 A 
HETATM   17  C15 UNL     1      22.216   5.233  52.827  1.00  0.00     0.031 A 
HETATM   18  C16 UNL     1      23.126   4.680  52.306  1.00  0.00     0.029 A 
HETATM   19  S1  UNL     1      24.089   4.077  51.730  1.00  0.00    -0.201 SA
HETATM   20  C17 UNL     1      24.093   4.076  51.728  1.00  0.00     0.094 A 
HETATM   21  H17 UNL     1      25.118   3.460  51.142  1.00  0.00     0.094 HD
ENDROOT
BRANCH   1  22
HETATM   22  C2  UNL     1      26.019   3.629  49.364  1.00  0.00     0.124 C 
HETATM   23  C1  UNL     1      27.184   4.443  49.018  1.00  0.00     0.027 C 
ENDBRANCH   1  22
BRANCH   9  24
HETATM   24  O1  UNL     1      22.120   1.462  49.430  1.00  0.00    -0.357 OA
HETATM   25  C9  UNL     1      22.401   2.139  48.277  1.00  0.00     0.209 C 
ENDBRANCH   9  24
TORSDOF 2
ENDMDL
MODEL 7
REMARK VINA RESULT:      -6.4      3.076      5.095
REMARK  2 active torsions:
REMARK  status: ('A' for Active; 'I' for Inactive)
REMARK    1  A    between atoms: C2_2  and  N1_3 
REMARK    2  A    between atoms: C8_11  and  O1_12 
ROOT
HETATM    1  N1  UNL     1      21.682   3.207  48.526  1.00  0.00    -0.366 N 
HETATM    2  C3  UNL     1      21.026   3.560  49.792  1.00  0.00     0.106 A 
HETATM    3  N2  UNL     1      21.461   4.141  50.859  1.00  0.00     0.000 N 
HETATM    4  C4  UNL     1      20.906   3.871  52.110  1.00  0.00     0.092 A 
HETATM    5  N3  UNL     1      21.923   4.785  52.209  1.00  0.00    -0.205 NA
HETATM    6  C5  UNL     1      22.617   5.210  51.108  1.00  0.00     0.076 A 
HETATM    7  C6  UNL     1      23.456   6.186  51.457  1.00  0.00     0.044 A 
HETATM    8  C7  UNL     1      23.839   6.753  50.285  1.00  0.00     0.134 A 
HETATM    9  C8  UNL     1      23.435   6.421  49.047  1.00  0.00     0.089 A 
HETATM   10  C10 UNL     1      22.656   5.426  49.399  1.00  0.00     0.089 A 
HETATM   11  C11 UNL     1      21.943   4.458  50.227  1.00  0.00     0.043 A 
HETATM   12  O2  UNL     1      24.822   7.811  50.211  1.00  0.00    -0.196 OA
HETATM   13  O3  UNL     1      26.090   7.157  50.175  1.00  0.00    -0.235 OA
HETATM   14  C12 UNL     1      26.452   6.829  48.913  1.00  0.00     0.212 C 
HETATM   15  C13 UNL     1      26.924   5.430  48.709  1.00  0.00     0.050 C 
HETATM   16  C14 UNL     1      26.017   4.326  49.233  1.00  0.00     0.016 A 
HETATM   17  C15 UNL     1      26.623   3.475  50.161  1.00  0.00     0.031 A 
HETATM   18  C16 UNL     1      25.499   3.387  49.798  1.00  0.00     0.029 A 
HETATM   19  S1  UNL     1      24.292   3.311  49.394  1.00  0.00    -0.201 SA
HETATM   20  C17 UNL     1      24.288   3.310  49.393  1.00  0.00     0.094 A 
HETATM   21  H17 UNL     1      23.025   3.206  48.983  1.00  0.00     0.094 HD
ENDROOT
BRANCH   1  22
HETATM   22  C2  UNL     1      22.153   2.846  47.219  1.00  0.00     0.124 C 
HETATM   23  C1  UNL     1      21.907   3.779  46.120  1.00  0.00     0.027 C 
ENDBRANCH   1  22
BRANCH   9  24
HETATM   24  O1  UNL     1      23.743   6.965  47.859  1.00  0.00    -0.357 OA
HETATM   25  C9  UNL     1      23.028   7.533  46.844  1.00  0.00     0.209 C 
ENDBRANCH   9  24
TORSDOF 2
ENDMDL
MODEL 8
REMARK VINA RESULT:      -6.3      2.898      4.829
REMARK  2 active torsions:
REMARK  status: ('A' for Active; 'I' for Inactive)
REMARK    1  A    between atoms: C2_2  and  N1_3 
REMARK    2  A    between atoms: C8_11  and  O1_12 
ROOT
HETATM    1  N1  UNL     1      24.811   1.649  53.250  1.00  0.00    -0.366 N 
HETATM    2  C3  UNL     1      23.815   0.628  52.900  1.00  0.00     0.106 A 
HETATM    3  N2  UNL     1      22.767   0.664  52.150  1.00  0.00     0.000 N 
HETATM    4  C4  UNL     1      21.671  -0.165  52.394  1.00  0.00     0.092 A 
HETATM    5  N3  UNL     1      21.449   0.638  51.305  1.00  0.00    -0.205 NA
HETATM    6  C5  UNL     1      22.387   1.535  50.869  1.00  0.00     0.076 A 
HETATM    7  C6  UNL     1      21.980   2.091  49.728  1.00  0.00     0.044 A 
HETATM    8  C7  UNL     1      23.085   2.689  49.217  1.00  0.00     0.134 A 
HETATM    9  C8  UNL     1      24.325   2.693  49.735  1.00  0.00     0.089 A 
HETATM   10  C10 UNL     1      24.044   2.006  50.816  1.00  0.00     0.089 A 
HETATM   11  C11 UNL     1      23.294   1.247  51.813  1.00  0.00     0.043 A 
HETATM   12  O2  UNL     1      23.058   3.486  48.010  1.00  0.00    -0.196 OA
HETATM   13  O3  UNL     1      22.679   4.799  48.424  1.00  0.00    -0.235 OA
HETATM   14  C12 UNL     1      23.750   5.536  48.801  1.00  0.00     0.212 C 
HETATM   15  C13 UNL     1      23.628   6.249  50.105  1.00  0.00     0.050 C 
HETATM   16  C14 UNL     1      23.199   5.409  51.299  1.00  0.00     0.016 A 
HETATM   17  C15 UNL     1      22.038   5.859  51.931  1.00  0.00     0.031 A 
HETATM   18  C16 UNL     1      22.656   4.903  52.257  1.00  0.00     0.029 A 
HETATM   19  S1  UNL     1      23.336   3.877  52.589  1.00  0.00    -0.201 SA
HETATM   20  C17 UNL     1      23.339   3.875  52.591  1.00  0.00     0.094 A 
HETATM   21  H17 UNL     1      24.035   2.801  52.963  1.00  0.00     0.094 HD
ENDROOT
BRANCH   1  22
HETATM   22  C2  UNL     1      25.892   2.507  53.644  1.00  0.00     0.124 C 
HETATM   23  C1  UNL     1      27.249   2.121  53.257  1.00  0.00     0.027 C 
ENDBRANCH   1  22
BRANCH   9  24
HETATM   24  O1  UNL     1      25.461   3.228  49.262  1.00  0.00    -0.357 OA
HETATM   25  C9  UNL     1      26.659   3.588  49.810  1.00  0.00     0.209 C 
ENDBRANCH   9  24
TORSDOF 2
ENDMDL
MODEL 9
REMARK VINA RESULT:      -6.1     24.089     26.725
REMARK  2 active torsions:
REMARK  status: ('A' for Active; 'I' for Inactive)
REMARK    1  A    between atoms: C2_2  and  N1_3 
REMARK    2  A    between atoms: C8_11  and  O1_12 
ROOT
HETATM    1  N1  UNL     1      40.568  -4.201  69.440  1.00  0.00    -0.366 N 
HETATM    2  C3  UNL     1      39.908  -4.149  68.128  1.00  0.00     0.106 A 
HETATM    3  N2  UNL     1      39.531  -3.161  67.389  1.00  0.00     0.000 N 
HETATM    4  C4  UNL     1      38.449  -3.282  66.515  1.00  0.00     0.092 A 
HETATM    5  N3  UNL     1      38.991  -2.023  66.459  1.00  0.00    -0.205 NA
HETATM    6  C5  UNL     1      40.069  -1.670  67.226  1.00  0.00     0.076 A 
HETATM    7  C6  UNL     1      40.476  -0.446  66.890  1.00  0.00     0.044 A 
HETATM    8  C7  UNL     1      41.708  -0.323  67.444  1.00  0.00     0.134 A 
HETATM    9  C8  UNL     1      42.381  -1.246  68.152  1.00  0.00     0.089 A 
HETATM   10  C10 UNL     1      41.453  -2.172  68.122  1.00  0.00     0.089 A 
HETATM   11  C11 UNL     1      40.198  -2.859  67.830  1.00  0.00     0.043 A 
HETATM   12  O2  UNL     1      42.476   0.902  67.385  1.00  0.00    -0.196 OA
HETATM   13  O3  UNL     1      42.027   1.691  68.487  1.00  0.00    -0.235 OA
HETATM   14  C12 UNL     1      42.707   1.404  69.621  1.00  0.00     0.212 C 
HETATM   15  C13 UNL     1      41.880   1.163  70.838  1.00  0.00     0.050 C 
HETATM   16  C14 UNL     1      40.755   0.148  70.702  1.00  0.00     0.016 A 
HETATM   17  C15 UNL     1      39.486   0.653  70.997  1.00  0.00     0.031 A 
HETATM   18  C16 UNL     1      39.706  -0.459  70.654  1.00  0.00     0.029 A 
HETATM   19  S1  UNL     1      39.967  -1.650  70.282  1.00  0.00    -0.201 SA
HETATM   20  C17 UNL     1      39.968  -1.654  70.282  1.00  0.00     0.094 A 
HETATM   21  H17 UNL     1      40.214  -2.907  69.900  1.00  0.00     0.094 HD
ENDROOT
BRANCH   1  22
HETATM   22  C2  UNL     1      41.255  -4.426  70.679  1.00  0.00     0.124 C 
HETATM   23  C1  UNL     1      42.615  -4.962  70.621  1.00  0.00     0.027 C 
ENDBRANCH   1  22
BRANCH   9  24
HETATM   24  O1  UNL     1      43.610  -1.201  68.689  1.00  0.00    -0.357 OA
HETATM   25  C9  UNL     1      44.193  -1.722  69.809  1.00  0.00     0.209 C 
ENDBRANCH   9  24
TORSDOF 2
ENDMDL
