MODEL 1
REMARK VINA RESULT:      -7.3      0.000      0.000
REMARK  3 active torsions:
REMARK  status: ('A' for Active; 'I' for Inactive)
REMARK    1  A    between atoms: C3_3  and  C4_4 
REMARK       I    between atoms: C4_4  and  N1_6 
REMARK    2  A    between atoms: C10_15  and  N4_16 
REMARK    3  A    between atoms: N4_16  and  C11_17 
ROOT
HETATM    1  C1  UNL     1      27.782   6.509  48.203  1.00  0.00     0.112 C 
HETATM    2  C2  UNL     1      27.065   5.412  48.828  1.00  0.00    -0.101 C 
HETATM    3  C3  UNL     1      26.458   4.445  49.380  1.00  0.00    -0.006 C 
ENDROOT
BRANCH   3   4
HETATM    4  C4  UNL     1      25.769   3.307  50.035  1.00  0.00     0.301 C 
HETATM    5  O1  UNL     1      26.752   2.542  49.973  1.00  0.00    -0.258 OA
HETATM    6  N1  UNL     1      24.455   3.874  50.284  1.00  0.00    -0.304 N 
HETATM    7  C5  UNL     1      23.838   5.167  50.020  1.00  0.00     0.156 C 
HETATM    8  C10 UNL     1      23.403   3.072  50.956  1.00  0.00     0.192 A 
HETATM    9  C6  UNL     1      23.454   5.847  51.319  1.00  0.00     0.190 C 
HETATM   10  O2  UNL     1      23.760   4.972  52.393  1.00  0.00    -0.358 OA
HETATM   11  C7  UNL     1      22.936   3.845  52.136  1.00  0.00     0.299 A 
HETATM   12  N2  UNL     1      21.600   4.358  52.015  1.00  0.00    -0.246 NA
HETATM   13  C8  UNL     1      20.772   4.240  51.080  1.00  0.00     0.229 A 
HETATM   14  N3  UNL     1      21.118   3.492  49.892  1.00  0.00    -0.254 NA
HETATM   15  C9  UNL     1      22.329   2.986  49.899  1.00  0.00     0.149 A 
BRANCH   8  16
HETATM   16  N4  UNL     1      23.847   1.738  51.224  1.00  0.00    -0.355 N 
HETATM   17  H11 UNL     1      24.543   1.382  50.499  1.00  0.00     0.162 HD
BRANCH  16  18
HETATM   18  C11 UNL     1      23.517   0.833  52.273  1.00  0.00     0.030 A 
HETATM   19  C12 UNL     1      22.213   0.408  52.475  1.00  0.00     0.029 A 
HETATM   20  C13 UNL     1      21.924  -0.483  53.517  1.00  0.00     0.002 A 
HETATM   21  C14 UNL     1      22.976  -0.895  54.296  1.00  0.00     0.000 A 
HETATM   22  C15 UNL     1      24.298  -0.510  54.147  1.00  0.00     0.002 A 
HETATM   23  C16 UNL     1      24.508   0.369  53.101  1.00  0.00     0.029 A 
ENDBRANCH  16  18
ENDBRANCH   8  16
ENDBRANCH   3   4
TORSDOF 3
ENDMDL
MODEL 2
REMARK VINA RESULT:      -7.2      0.513      1.149
REMARK  3 active torsions:
REMARK  status: ('A' for Active; 'I' for Inactive)
REMARK    1  A    between atoms: C3_3  and  C4_4 
REMARK       I    between atoms: C4_4  and  N1_6 
REMARK    2  A    between atoms: C10_15  and  N4_16 
REMARK    3  A    between atoms: N4_16  and  C11_17 
ROOT
HETATM    1  C1  UNL     1      27.881   5.844  48.211  1.00  0.00     0.112 C 
HETATM    2  C2  UNL     1      27.145   4.841  48.962  1.00  0.00    -0.101 C 
HETATM    3  C3  UNL     1      26.520   3.954  49.617  1.00  0.00    -0.006 C 
ENDROOT
BRANCH   3   4
HETATM    4  C4  UNL     1      25.810   2.904  50.386  1.00  0.00     0.301 C 
HETATM    5  O1  UNL     1      26.792   2.136  50.443  1.00  0.00    -0.258 OA
HETATM    6  N1  UNL     1      24.492   3.496  50.529  1.00  0.00    -0.304 N 
HETATM    7  C5  UNL     1      23.887   4.747  50.094  1.00  0.00     0.156 C 
HETATM    8  C10 UNL     1      23.420   2.782  51.265  1.00  0.00     0.192 A 
HETATM    9  C6  UNL     1      23.471   5.580  51.291  1.00  0.00     0.190 C 
HETATM   10  O2  UNL     1      23.745   4.841  52.471  1.00  0.00    -0.358 OA
HETATM   11  C7  UNL     1      22.925   3.692  52.330  1.00  0.00     0.299 A 
HETATM   12  N2  UNL     1      21.593   4.187  52.112  1.00  0.00    -0.246 NA
HETATM   13  C8  UNL     1      20.790   3.956  51.177  1.00  0.00     0.229 A 
HETATM   14  N3  UNL     1      21.165   3.070  50.097  1.00  0.00    -0.254 NA
HETATM   15  C9  UNL     1      22.374   2.569  50.198  1.00  0.00     0.149 A 
BRANCH   8  16
HETATM   16  N4  UNL     1      23.852   1.489  51.704  1.00  0.00    -0.355 N 
HETATM   17  H11 UNL     1      24.716   1.145  51.183  1.00  0.00     0.162 HD
BRANCH  16  18
HETATM   18  C11 UNL     1      23.328   0.613  52.696  1.00  0.00     0.030 A 
HETATM   19  C12 UNL     1      24.158  -0.038  53.595  1.00  0.00     0.029 A 
HETATM   20  C13 UNL     1      23.608  -0.893  54.558  1.00  0.00     0.002 A 
HETATM   21  C14 UNL     1      22.243  -1.041  54.557  1.00  0.00     0.000 A 
HETATM   22  C15 UNL     1      21.360  -0.421  53.689  1.00  0.00     0.002 A 
HETATM   23  C16 UNL     1      21.972   0.406  52.767  1.00  0.00     0.029 A 
ENDBRANCH  16  18
ENDBRANCH   8  16
ENDBRANCH   3   4
TORSDOF 3
ENDMDL
MODEL 3
REMARK VINA RESULT:      -7.1      1.693      5.739
REMARK  3 active torsions:
REMARK  status: ('A' for Active; 'I' for Inactive)
REMARK    1  A    between atoms: C3_3  and  C4_4 
REMARK       I    between atoms: C4_4  and  N1_6 
REMARK    2  A    between atoms: C10_15  and  N4_16 
REMARK    3  A    between atoms: N4_16  and  C11_17 
ROOT
HETATM    1  C1  UNL     1      21.852  -1.640  54.525  1.00  0.00     0.112 C 
HETATM    2  C2  UNL     1      22.529  -0.522  53.890  1.00  0.00    -0.101 C 
HETATM    3  C3  UNL     1      23.136   0.450  53.349  1.00  0.00    -0.006 C 
ENDROOT
BRANCH   3   4
HETATM    4  C4  UNL     1      23.866   1.582  52.729  1.00  0.00     0.301 C 
HETATM    5  O1  UNL     1      24.959   1.306  53.264  1.00  0.00    -0.258 OA
HETATM    6  N1  UNL     1      22.814   2.209  51.949  1.00  0.00    -0.304 N 
HETATM    7  C5  UNL     1      21.401   1.928  51.737  1.00  0.00     0.156 C 
HETATM    8  C10 UNL     1      23.098   3.411  51.127  1.00  0.00     0.192 A 
HETATM    9  C6  UNL     1      21.135   1.604  50.281  1.00  0.00     0.190 C 
HETATM   10  O2  UNL     1      22.350   1.741  49.561  1.00  0.00    -0.358 OA
HETATM   11  C7  UNL     1      22.676   3.111  49.734  1.00  0.00     0.299 A 
HETATM   12  N2  UNL     1      21.521   3.845  49.297  1.00  0.00    -0.246 NA
HETATM   13  C8  UNL     1      20.832   4.702  49.902  1.00  0.00     0.229 A 
HETATM   14  N3  UNL     1      21.168   5.080  51.257  1.00  0.00    -0.254 NA
HETATM   15  C9  UNL     1      22.210   4.456  51.755  1.00  0.00     0.149 A 
BRANCH   8  16
HETATM   16  N4  UNL     1      24.452   3.850  51.284  1.00  0.00    -0.355 N 
HETATM   17  H11 UNL     1      24.844   3.636  52.252  1.00  0.00     0.162 HD
BRANCH  16  18
HETATM   18  C11 UNL     1      25.334   4.508  50.382  1.00  0.00     0.030 A 
HETATM   19  C12 UNL     1      25.154   5.839  50.039  1.00  0.00     0.029 A 
HETATM   20  C13 UNL     1      26.042   6.456  49.148  1.00  0.00     0.002 A 
HETATM   21  C14 UNL     1      27.067   5.687  48.655  1.00  0.00     0.000 A 
HETATM   22  C15 UNL     1      27.303   4.357  48.957  1.00  0.00     0.002 A 
HETATM   23  C16 UNL     1      26.388   3.814  49.840  1.00  0.00     0.029 A 
ENDBRANCH  16  18
ENDBRANCH   8  16
ENDBRANCH   3   4
TORSDOF 3
ENDMDL
MODEL 4
REMARK VINA RESULT:      -6.9      2.628      3.695
REMARK  3 active torsions:
REMARK  status: ('A' for Active; 'I' for Inactive)
REMARK    1  A    between atoms: C3_3  and  C4_4 
REMARK       I    between atoms: C4_4  and  N1_6 
REMARK    2  A    between atoms: C10_15  and  N4_16 
REMARK    3  A    between atoms: N4_16  and  C11_17 
ROOT
HETATM    1  C1  UNL     1      21.023   8.327  49.754  1.00  0.00     0.112 C 
HETATM    2  C2  UNL     1      21.623   7.186  50.424  1.00  0.00    -0.101 C 
HETATM    3  C3  UNL     1      22.165   6.194  50.999  1.00  0.00    -0.006 C 
ENDROOT
BRANCH   3   4
HETATM    4  C4  UNL     1      22.821   5.041  51.662  1.00  0.00     0.301 C 
HETATM    5  O1  UNL     1      23.786   5.704  52.091  1.00  0.00    -0.258 OA
HETATM    6  N1  UNL     1      21.894   3.967  51.349  1.00  0.00    -0.304 N 
HETATM    7  C5  UNL     1      20.644   3.886  50.606  1.00  0.00     0.156 C 
HETATM    8  C10 UNL     1      22.147   2.588  51.835  1.00  0.00     0.192 A 
HETATM    9  C6  UNL     1      19.509   3.470  51.519  1.00  0.00     0.190 C 
HETATM   10  O2  UNL     1      20.039   3.223  52.812  1.00  0.00    -0.358 OA
HETATM   11  C7  UNL     1      20.945   2.153  52.591  1.00  0.00     0.299 A 
HETATM   12  N2  UNL     1      20.181   1.123  51.944  1.00  0.00    -0.246 NA
HETATM   13  C8  UNL     1      20.382   0.531  50.856  1.00  0.00     0.229 A 
HETATM   14  N3  UNL     1      21.534   0.867  50.048  1.00  0.00    -0.254 NA
HETATM   15  C9  UNL     1      22.296   1.809  50.550  1.00  0.00     0.149 A 
BRANCH   8  16
HETATM   16  N4  UNL     1      23.390   2.496  52.538  1.00  0.00    -0.355 N 
HETATM   17  H11 UNL     1      23.596   3.360  53.126  1.00  0.00     0.162 HD
BRANCH  16  18
HETATM   18  C11 UNL     1      24.371   1.464  52.576  1.00  0.00     0.030 A 
HETATM   19  C12 UNL     1      24.161   0.296  53.293  1.00  0.00     0.029 A 
HETATM   20  C13 UNL     1      25.147  -0.698  53.309  1.00  0.00     0.002 A 
HETATM   21  C14 UNL     1      26.294  -0.453  52.594  1.00  0.00     0.000 A 
HETATM   22  C15 UNL     1      26.564   0.689  51.859  1.00  0.00     0.002 A 
HETATM   23  C16 UNL     1      25.549   1.626  51.890  1.00  0.00     0.029 A 
ENDBRANCH  16  18
ENDBRANCH   8  16
ENDBRANCH   3   4
TORSDOF 3
ENDMDL
MODEL 5
REMARK VINA RESULT:      -6.8      2.204      2.867
REMARK  3 active torsions:
REMARK  status: ('A' for Active; 'I' for Inactive)
REMARK    1  A    between atoms: C3_3  and  C4_4 
REMARK       I    between atoms: C4_4  and  N1_6 
REMARK    2  A    between atoms: C10_15  and  N4_16 
REMARK    3  A    between atoms: N4_16  and  C11_17 
ROOT
HETATM    1  C1  UNL     1      25.113   7.606  47.848  1.00  0.00     0.112 C 
HETATM    2  C2  UNL     1      25.396   6.375  48.566  1.00  0.00    -0.101 C 
HETATM    3  C3  UNL     1      25.652   5.293  49.175  1.00  0.00    -0.006 C 
ENDROOT
BRANCH   3   4
HETATM    4  C4  UNL     1      25.967   4.021  49.868  1.00  0.00     0.301 C 
HETATM    5  O1  UNL     1      27.154   3.985  49.485  1.00  0.00    -0.258 OA
HETATM    6  N1  UNL     1      24.693   3.714  50.495  1.00  0.00    -0.304 N 
HETATM    7  C5  UNL     1      23.391   4.366  50.523  1.00  0.00     0.156 C 
HETATM    8  C10 UNL     1      24.536   2.498  51.330  1.00  0.00     0.192 A 
HETATM    9  C6  UNL     1      23.035   4.780  51.937  1.00  0.00     0.190 C 
HETATM   10  O2  UNL     1      24.064   4.339  52.808  1.00  0.00    -0.358 OA
HETATM   11  C7  UNL     1      24.032   2.928  52.659  1.00  0.00     0.299 A 
HETATM   12  N2  UNL     1      22.676   2.538  52.930  1.00  0.00    -0.246 NA
HETATM   13  C8  UNL     1      21.868   1.883  52.228  1.00  0.00     0.229 A 
HETATM   14  N3  UNL     1      22.264   1.401  50.923  1.00  0.00    -0.254 NA
HETATM   15  C9  UNL     1      23.490   1.714  50.575  1.00  0.00     0.149 A 
BRANCH   8  16
HETATM   16  N4  UNL     1      25.732   1.710  51.344  1.00  0.00    -0.355 N 
HETATM   17  H11 UNL     1      25.975   1.312  50.386  1.00  0.00     0.162 HD
BRANCH  16  18
HETATM   18  C11 UNL     1      26.624   1.381  52.403  1.00  0.00     0.030 A 
HETATM   19  C12 UNL     1      26.466   0.221  53.146  1.00  0.00     0.029 A 
HETATM   20  C13 UNL     1      27.364  -0.072  54.181  1.00  0.00     0.002 A 
HETATM   21  C14 UNL     1      28.374   0.830  54.406  1.00  0.00     0.000 A 
HETATM   22  C15 UNL     1      28.587   2.003  53.703  1.00  0.00     0.002 A 
HETATM   23  C16 UNL     1      27.665   2.228  52.698  1.00  0.00     0.029 A 
ENDBRANCH  16  18
ENDBRANCH   8  16
ENDBRANCH   3   4
TORSDOF 3
ENDMDL
MODEL 6
REMARK VINA RESULT:      -6.6      2.490      5.059
REMARK  3 active torsions:
REMARK  status: ('A' for Active; 'I' for Inactive)
REMARK    1  A    between atoms: C3_3  and  C4_4 
REMARK       I    between atoms: C4_4  and  N1_6 
REMARK    2  A    between atoms: C10_15  and  N4_16 
REMARK    3  A    between atoms: N4_16  and  C11_17 
ROOT
HETATM    1  C1  UNL     1      17.909   0.097  50.616  1.00  0.00     0.112 C 
HETATM    2  C2  UNL     1      19.225   0.286  51.200  1.00  0.00    -0.101 C 
HETATM    3  C3  UNL     1      20.366   0.465  51.723  1.00  0.00    -0.006 C 
ENDROOT
BRANCH   3   4
HETATM    4  C4  UNL     1      21.690   0.689  52.353  1.00  0.00     0.301 C 
HETATM    5  O1  UNL     1      21.658  -0.355  53.035  1.00  0.00    -0.258 OA
HETATM    6  N1  UNL     1      22.087   1.947  51.744  1.00  0.00    -0.304 N 
HETATM    7  C5  UNL     1      21.470   2.850  50.782  1.00  0.00     0.156 C 
HETATM    8  C10 UNL     1      23.391   2.568  52.079  1.00  0.00     0.192 A 
HETATM    9  C6  UNL     1      22.311   2.940  49.524  1.00  0.00     0.190 C 
HETATM   10  O2  UNL     1      23.481   2.159  49.707  1.00  0.00    -0.358 OA
HETATM   11  C7  UNL     1      24.123   2.790  50.805  1.00  0.00     0.299 A 
HETATM   12  N2  UNL     1      24.259   4.171  50.435  1.00  0.00    -0.246 NA
HETATM   13  C8  UNL     1      23.872   5.207  51.027  1.00  0.00     0.229 A 
HETATM   14  N3  UNL     1      23.166   5.105  52.285  1.00  0.00    -0.254 NA
HETATM   15  C9  UNL     1      22.980   3.877  52.708  1.00  0.00     0.149 A 
BRANCH   8  16
HETATM   16  N4  UNL     1      24.093   1.817  53.075  1.00  0.00    -0.355 N 
HETATM   17  H11 UNL     1      23.523   1.680  53.966  1.00  0.00     0.162 HD
BRANCH  16  18
HETATM   18  C11 UNL     1      25.395   1.240  53.070  1.00  0.00     0.030 A 
HETATM   19  C12 UNL     1      25.596  -0.083  52.707  1.00  0.00     0.029 A 
HETATM   20  C13 UNL     1      26.890  -0.618  52.713  1.00  0.00     0.002 A 
HETATM   21  C14 UNL     1      27.912   0.221  53.087  1.00  0.00     0.000 A 
HETATM   22  C15 UNL     1      27.778   1.547  53.458  1.00  0.00     0.002 A 
HETATM   23  C16 UNL     1      26.475   2.007  53.430  1.00  0.00     0.029 A 
ENDBRANCH  16  18
ENDBRANCH   8  16
ENDBRANCH   3   4
TORSDOF 3
ENDMDL
MODEL 7
REMARK VINA RESULT:      -6.6      1.654      2.471
REMARK  3 active torsions:
REMARK  status: ('A' for Active; 'I' for Inactive)
REMARK    1  A    between atoms: C3_3  and  C4_4 
REMARK       I    between atoms: C4_4  and  N1_6 
REMARK    2  A    between atoms: C10_15  and  N4_16 
REMARK    3  A    between atoms: N4_16  and  C11_17 
ROOT
HETATM    1  C1  UNL     1      27.428   4.570  48.755  1.00  0.00     0.112 C 
HETATM    2  C2  UNL     1      26.395   4.103  49.664  1.00  0.00    -0.101 C 
HETATM    3  C3  UNL     1      25.487   3.683  50.441  1.00  0.00    -0.006 C 
ENDROOT
BRANCH   3   4
HETATM    4  C4  UNL     1      24.418   3.173  51.334  1.00  0.00     0.301 C 
HETATM    5  O1  UNL     1      25.138   3.150  52.353  1.00  0.00    -0.258 OA
HETATM    6  N1  UNL     1      23.303   3.060  50.411  1.00  0.00    -0.304 N 
HETATM    7  C5  UNL     1      23.129   3.326  48.989  1.00  0.00     0.156 C 
HETATM    8  C10 UNL     1      21.979   2.585  50.882  1.00  0.00     0.192 A 
HETATM    9  C6  UNL     1      22.107   4.424  48.776  1.00  0.00     0.190 C 
HETATM   10  O2  UNL     1      21.586   4.807  50.039  1.00  0.00    -0.358 OA
HETATM   11  C7  UNL     1      20.976   3.616  50.511  1.00  0.00     0.299 A 
HETATM   12  N2  UNL     1      20.065   3.208  49.478  1.00  0.00    -0.246 NA
HETATM   13  C8  UNL     1      19.980   2.120  48.859  1.00  0.00     0.229 A 
HETATM   14  N3  UNL     1      20.898   1.042  49.155  1.00  0.00    -0.254 NA
HETATM   15  C9  UNL     1      21.782   1.318  50.085  1.00  0.00     0.149 A 
BRANCH   8  16
HETATM   16  N4  UNL     1      22.011   2.218  52.265  1.00  0.00    -0.355 N 
HETATM   17  H11 UNL     1      22.237   3.041  52.904  1.00  0.00     0.162 HD
BRANCH  16  18
HETATM   18  C11 UNL     1      21.797   0.967  52.908  1.00  0.00     0.030 A 
HETATM   19  C12 UNL     1      22.858   0.152  53.274  1.00  0.00     0.029 A 
HETATM   20  C13 UNL     1      22.611  -1.073  53.905  1.00  0.00     0.002 A 
HETATM   21  C14 UNL     1      21.298  -1.405  54.133  1.00  0.00     0.000 A 
HETATM   22  C15 UNL     1      20.196  -0.639  53.794  1.00  0.00     0.002 A 
HETATM   23  C16 UNL     1      20.515   0.554  53.175  1.00  0.00     0.029 A 
ENDBRANCH  16  18
ENDBRANCH   8  16
ENDBRANCH   3   4
TORSDOF 3
ENDMDL
MODEL 8
REMARK VINA RESULT:      -6.4      1.782      2.338
REMARK  3 active torsions:
REMARK  status: ('A' for Active; 'I' for Inactive)
REMARK    1  A    between atoms: C3_3  and  C4_4 
REMARK       I    between atoms: C4_4  and  N1_6 
REMARK    2  A    between atoms: C10_15  and  N4_16 
REMARK    3  A    between atoms: N4_16  and  C11_17 
ROOT
HETATM    1  C1  UNL     1      25.044   8.213  46.598  1.00  0.00     0.112 C 
HETATM    2  C2  UNL     1      25.278   7.198  47.612  1.00  0.00    -0.101 C 
HETATM    3  C3  UNL     1      25.488   6.300  48.481  1.00  0.00    -0.006 C 
ENDROOT
BRANCH   3   4
HETATM    4  C4  UNL     1      25.747   5.236  49.481  1.00  0.00     0.301 C 
HETATM    5  O1  UNL     1      26.974   5.185  49.263  1.00  0.00    -0.258 OA
HETATM    6  N1  UNL     1      24.412   5.003  50.002  1.00  0.00    -0.304 N 
HETATM    7  C5  UNL     1      23.098   5.566  49.722  1.00  0.00     0.156 C 
HETATM    8  C10 UNL     1      24.183   3.997  51.068  1.00  0.00     0.192 A 
HETATM    9  C6  UNL     1      22.547   6.265  50.949  1.00  0.00     0.190 C 
HETATM   10  O2  UNL     1      23.466   6.091  52.017  1.00  0.00    -0.358 OA
HETATM   11  C7  UNL     1      23.496   4.683  52.192  1.00  0.00     0.299 A 
HETATM   12  N2  UNL     1      22.128   4.285  52.379  1.00  0.00    -0.246 NA
HETATM   13  C8  UNL     1      21.439   3.443  51.754  1.00  0.00     0.229 A 
HETATM   14  N3  UNL     1      22.017   2.705  50.652  1.00  0.00    -0.254 NA
HETATM   15  C9  UNL     1      23.269   3.004  50.392  1.00  0.00     0.149 A 
BRANCH   8  16
HETATM   16  N4  UNL     1      25.389   3.304  51.408  1.00  0.00    -0.355 N 
HETATM   17  H11 UNL     1      26.265   3.874  51.197  1.00  0.00     0.162 HD
BRANCH  16  18
HETATM   18  C11 UNL     1      25.602   2.012  51.966  1.00  0.00     0.030 A 
HETATM   19  C12 UNL     1      26.549   1.146  51.440  1.00  0.00     0.029 A 
HETATM   20  C13 UNL     1      26.733  -0.118  52.015  1.00  0.00     0.002 A 
HETATM   21  C14 UNL     1      25.945  -0.434  53.094  1.00  0.00     0.000 A 
HETATM   22  C15 UNL     1      24.986   0.383  53.667  1.00  0.00     0.002 A 
HETATM   23  C16 UNL     1      24.858   1.613  53.049  1.00  0.00     0.029 A 
ENDBRANCH  16  18
ENDBRANCH   8  16
ENDBRANCH   3   4
TORSDOF 3
ENDMDL
MODEL 9
REMARK VINA RESULT:      -6.3      2.575      3.563
REMARK  3 active torsions:
REMARK  status: ('A' for Active; 'I' for Inactive)
REMARK    1  A    between atoms: C3_3  and  C4_4 
REMARK       I    between atoms: C4_4  and  N1_6 
REMARK    2  A    between atoms: C10_15  and  N4_16 
REMARK    3  A    between atoms: N4_16  and  C11_17 
ROOT
HETATM    1  C1  UNL     1      21.571   3.727  45.761  1.00  0.00     0.112 C 
HETATM    2  C2  UNL     1      22.188   3.484  47.054  1.00  0.00    -0.101 C 
HETATM    3  C3  UNL     1      22.708   3.264  48.189  1.00  0.00    -0.006 C 
ENDROOT
BRANCH   3   4
HETATM    4  C4  UNL     1      23.295   2.995  49.523  1.00  0.00     0.301 C 
HETATM    5  O1  UNL     1      24.448   3.348  49.202  1.00  0.00    -0.258 OA
HETATM    6  N1  UNL     1      22.135   2.516  50.255  1.00  0.00    -0.304 N 
HETATM    7  C5  UNL     1      20.736   2.301  49.914  1.00  0.00     0.156 C 
HETATM    8  C10 UNL     1      22.251   2.127  51.682  1.00  0.00     0.192 A 
HETATM    9  C6  UNL     1      19.842   3.201  50.744  1.00  0.00     0.190 C 
HETATM   10  O2  UNL     1      20.655   3.931  51.650  1.00  0.00    -0.358 OA
HETATM   11  C7  UNL     1      21.248   2.914  52.444  1.00  0.00     0.299 A 
HETATM   12  N2  UNL     1      20.156   2.137  52.960  1.00  0.00    -0.246 NA
HETATM   13  C8  UNL     1      19.933   0.905  52.879  1.00  0.00     0.229 A 
HETATM   14  N3  UNL     1      20.856   0.044  52.174  1.00  0.00    -0.254 NA
HETATM   15  C9  UNL     1      21.890   0.662  51.653  1.00  0.00     0.149 A 
BRANCH   8  16
HETATM   16  N4  UNL     1      23.601   2.226  52.148  1.00  0.00    -0.355 N 
HETATM   17  H11 UNL     1      23.918   3.235  52.283  1.00  0.00     0.162 HD
BRANCH  16  18
HETATM   18  C11 UNL     1      24.563   1.221  52.451  1.00  0.00     0.030 A 
HETATM   19  C12 UNL     1      25.707   1.063  51.684  1.00  0.00     0.029 A 
HETATM   20  C13 UNL     1      26.633   0.064  52.011  1.00  0.00     0.002 A 
HETATM   21  C14 UNL     1      26.348  -0.720  53.102  1.00  0.00     0.000 A 
HETATM   22  C15 UNL     1      25.227  -0.613  53.908  1.00  0.00     0.002 A 
HETATM   23  C16 UNL     1      24.358   0.392  53.526  1.00  0.00     0.029 A 
ENDBRANCH  16  18
ENDBRANCH   8  16
ENDBRANCH   3   4
TORSDOF 3
ENDMDL
