MODEL 1
REMARK VINA RESULT:      -8.8      0.000      0.000
REMARK  5 active torsions:
REMARK  status: ('A' for Active; 'I' for Inactive)
REMARK    1  A    between atoms: C2_2  and  C3_3 
REMARK    2  A    between atoms: C3_3  and  C4_4 
REMARK    3  A    between atoms: N1_9  and  C8_10 
REMARK    4  A    between atoms: C14_19  and  N5_20 
REMARK    5  A    between atoms: N5_20  and  C15_21 
ROOT
HETATM    1  C8  UNL     1      24.179   3.068  50.132  1.00  0.00     0.056 A 
HETATM    2  C9  UNL     1      23.137   2.900  49.213  1.00  0.00     0.148 A 
HETATM    3  N2  UNL     1      22.121   2.026  49.471  1.00  0.00    -0.238 NA
HETATM    4  C10 UNL     1      22.103   1.307  50.619  1.00  0.00     0.161 A 
HETATM    5  N3  UNL     1      21.111   0.439  50.893  1.00  0.00    -0.239 NA
HETATM    6  C11 UNL     1      21.099  -0.282  52.052  1.00  0.00     0.144 A 
HETATM    7  C12 UNL     1      22.136  -0.116  52.969  1.00  0.00     0.089 A 
HETATM    8  C13 UNL     1      22.177  -0.853  54.214  1.00  0.00     0.103 C 
HETATM    9  N4  UNL     1      22.200  -1.434  55.227  1.00  0.00    -0.191 NA
HETATM   10  C14 UNL     1      23.190   0.770  52.733  1.00  0.00     0.069 A 
HETATM   11  C21 UNL     1      23.122   1.459  51.538  1.00  0.00     0.042 A 
HETATM   12  C22 UNL     1      24.166   2.336  51.303  1.00  0.00     0.049 A 
ENDROOT
BRANCH  10  13
HETATM   13  N5  UNL     1      24.238   0.928  53.677  1.00  0.00    -0.354 N 
HETATM   14  H13 UNL     1      23.911   1.470  54.507  1.00  0.00     0.166 HD
BRANCH  13  15
HETATM   15  C15 UNL     1      25.538   0.422  53.511  1.00  0.00     0.033 A 
HETATM   16  C16 UNL     1      25.689  -0.829  52.972  1.00  0.00     0.029 A 
HETATM   17  C17 UNL     1      26.972  -1.318  52.812  1.00  0.00     0.004 A 
HETATM   18  C18 UNL     1      28.040  -0.533  53.198  1.00  0.00     0.019 A 
HETATM   19  C19 UNL     1      27.903   0.732  53.744  1.00  0.00     0.013 A 
HETATM   20 BR1  UNL     1      29.383   1.807  54.274  1.00  0.00    -0.051 Br
HETATM   21  C20 UNL     1      26.606   1.187  53.888  1.00  0.00     0.048 A 
ENDBRANCH  13  15
ENDBRANCH  10  13
BRANCH   1  22
HETATM   22  N1  UNL     1      25.118   4.006  49.680  1.00  0.00    -0.305 N 
HETATM   23  C4  UNL     1      24.561   5.321  49.609  1.00  0.00     0.116 A 
HETATM   24  C5  UNL     1      25.664   6.179  49.122  1.00  0.00     0.004 A 
HETATM   25  C6  UNL     1      26.756   5.457  48.924  1.00  0.00     0.072 A 
HETATM   26  C7  UNL     1      26.478   4.065  49.259  1.00  0.00     0.248 A 
HETATM   27  O1  UNL     1      27.112   2.974  49.265  1.00  0.00    -0.268 OA
BRANCH  23  28
HETATM   28  C3  UNL     1      24.066   5.841  50.944  1.00  0.00     0.029 C 
BRANCH  28  29
HETATM   29  C2  UNL     1      22.680   6.440  50.685  1.00  0.00    -0.002 C 
HETATM   30  C1  UNL     1      21.601   5.565  51.287  1.00  0.00     0.005 C 
ENDBRANCH  28  29
ENDBRANCH  23  28
ENDBRANCH   1  22
TORSDOF 5
ENDMDL
MODEL 2
REMARK VINA RESULT:      -8.3      2.996      5.948
REMARK  5 active torsions:
REMARK  status: ('A' for Active; 'I' for Inactive)
REMARK    1  A    between atoms: C2_2  and  C3_3 
REMARK    2  A    between atoms: C3_3  and  C4_4 
REMARK    3  A    between atoms: N1_9  and  C8_10 
REMARK    4  A    between atoms: C14_19  and  N5_20 
REMARK    5  A    between atoms: N5_20  and  C15_21 
ROOT
HETATM    1  C8  UNL     1      22.064   0.376  52.615  1.00  0.00     0.056 A 
HETATM    2  C9  UNL     1      22.171  -0.962  53.012  1.00  0.00     0.148 A 
HETATM    3  N2  UNL     1      23.348  -1.445  53.509  1.00  0.00    -0.238 NA
HETATM    4  C10 UNL     1      24.430  -0.638  53.626  1.00  0.00     0.161 A 
HETATM    5  N3  UNL     1      25.600  -1.093  54.112  1.00  0.00    -0.239 NA
HETATM    6  C11 UNL     1      26.687  -0.275  54.227  1.00  0.00     0.144 A 
HETATM    7  C12 UNL     1      26.582   1.058  53.831  1.00  0.00     0.089 A 
HETATM    8  C13 UNL     1      27.700   1.972  53.930  1.00  0.00     0.103 C 
HETATM    9  N4  UNL     1      28.597   2.714  54.028  1.00  0.00    -0.191 NA
HETATM   10  C14 UNL     1      25.392   1.580  53.320  1.00  0.00     0.069 A 
HETATM   11  C21 UNL     1      24.344   0.685  53.239  1.00  0.00     0.042 A 
HETATM   12  C22 UNL     1      23.165   1.200  52.731  1.00  0.00     0.049 A 
ENDROOT
BRANCH  10  13
HETATM   13  N5  UNL     1      25.300   2.940  52.922  1.00  0.00    -0.354 N 
HETATM   14  H13 UNL     1      25.165   3.559  53.751  1.00  0.00     0.166 HD
BRANCH  13  15
HETATM   15  C15 UNL     1      25.383   3.385  51.592  1.00  0.00     0.033 A 
HETATM   16  C16 UNL     1      26.352   2.853  50.783  1.00  0.00     0.029 A 
HETATM   17  C17 UNL     1      26.425   3.296  49.477  1.00  0.00     0.004 A 
HETATM   18  C18 UNL     1      25.526   4.248  49.042  1.00  0.00     0.019 A 
HETATM   19  C19 UNL     1      24.541   4.795  49.848  1.00  0.00     0.013 A 
HETATM   20 BR1  UNL     1      23.303   6.109  49.240  1.00  0.00    -0.051 Br
HETATM   21  C20 UNL     1      24.498   4.327  51.147  1.00  0.00     0.048 A 
ENDBRANCH  13  15
ENDBRANCH  10  13
BRANCH   1  22
HETATM   22  N1  UNL     1      20.779   0.668  52.136  1.00  0.00    -0.305 N 
HETATM   23  C4  UNL     1      20.823   1.486  50.965  1.00  0.00     0.116 A 
HETATM   24  C5  UNL     1      19.406   1.700  50.593  1.00  0.00     0.004 A 
HETATM   25  C6  UNL     1      18.607   1.078  51.446  1.00  0.00     0.072 A 
HETATM   26  C7  UNL     1      19.415   0.402  52.454  1.00  0.00     0.248 A 
HETATM   27  O1  UNL     1      19.209  -0.315  53.472  1.00  0.00    -0.268 OA
BRANCH  23  28
HETATM   28  C3  UNL     1      21.560   0.846  49.806  1.00  0.00     0.029 C 
BRANCH  28  29
HETATM   29  C2  UNL     1      22.480   1.928  49.231  1.00  0.00    -0.002 C 
HETATM   30  C1  UNL     1      22.188   2.150  47.762  1.00  0.00     0.005 C 
ENDBRANCH  28  29
ENDBRANCH  23  28
ENDBRANCH   1  22
TORSDOF 5
ENDMDL
MODEL 3
REMARK VINA RESULT:      -8.2      2.395      6.052
REMARK  5 active torsions:
REMARK  status: ('A' for Active; 'I' for Inactive)
REMARK    1  A    between atoms: C2_2  and  C3_3 
REMARK    2  A    between atoms: C3_3  and  C4_4 
REMARK    3  A    between atoms: N1_9  and  C8_10 
REMARK    4  A    between atoms: C14_19  and  N5_20 
REMARK    5  A    between atoms: N5_20  and  C15_21 
ROOT
HETATM    1  C8  UNL     1      25.503   0.205  53.997  1.00  0.00     0.056 A 
HETATM    2  C9  UNL     1      25.345  -0.590  55.138  1.00  0.00     0.148 A 
HETATM    3  N2  UNL     1      24.129  -1.130  55.442  1.00  0.00    -0.238 NA
HETATM    4  C10 UNL     1      23.056  -0.906  54.647  1.00  0.00     0.161 A 
HETATM    5  N3  UNL     1      21.848  -1.429  54.929  1.00  0.00    -0.239 NA
HETATM    6  C11 UNL     1      20.770  -1.199  54.123  1.00  0.00     0.144 A 
HETATM    7  C12 UNL     1      20.925  -0.407  52.985  1.00  0.00     0.089 A 
HETATM    8  C13 UNL     1      19.819  -0.130  52.093  1.00  0.00     0.103 C 
HETATM    9  N4  UNL     1      18.931   0.078  51.364  1.00  0.00    -0.191 NA
HETATM   10  C14 UNL     1      22.157   0.158  52.647  1.00  0.00     0.069 A 
HETATM   11  C21 UNL     1      23.192  -0.125  53.516  1.00  0.00     0.042 A 
HETATM   12  C22 UNL     1      24.412   0.436  53.184  1.00  0.00     0.049 A 
ENDROOT
BRANCH  10  13
HETATM   13  N5  UNL     1      22.299   0.962  51.486  1.00  0.00    -0.354 N 
HETATM   14  H13 UNL     1      22.203   0.383  50.622  1.00  0.00     0.166 HD
BRANCH  13  15
HETATM   15  C15 UNL     1      22.536   2.346  51.502  1.00  0.00     0.033 A 
HETATM   16  C16 UNL     1      21.730   3.139  52.275  1.00  0.00     0.029 A 
HETATM   17  C17 UNL     1      21.971   4.499  52.286  1.00  0.00     0.004 A 
HETATM   18  C18 UNL     1      23.007   5.001  51.524  1.00  0.00     0.019 A 
HETATM   19  C19 UNL     1      23.831   4.212  50.738  1.00  0.00     0.013 A 
HETATM   20 BR1  UNL     1      25.258   4.913  49.690  1.00  0.00    -0.051 Br
HETATM   21  C20 UNL     1      23.559   2.858  50.753  1.00  0.00     0.048 A 
ENDBRANCH  13  15
ENDBRANCH  10  13
BRANCH   1  22
HETATM   22  N1  UNL     1      26.823   0.660  53.866  1.00  0.00    -0.305 N 
HETATM   23  C4  UNL     1      27.727  -0.410  53.579  1.00  0.00     0.116 A 
HETATM   24  C5  UNL     1      29.057   0.230  53.473  1.00  0.00     0.004 A 
HETATM   25  C6  UNL     1      28.958   1.535  53.674  1.00  0.00     0.072 A 
HETATM   26  C7  UNL     1      27.564   1.876  53.930  1.00  0.00     0.248 A 
HETATM   27  O1  UNL     1      26.901   2.921  54.178  1.00  0.00    -0.268 OA
BRANCH  23  28
HETATM   28  C3  UNL     1      27.411  -1.139  52.289  1.00  0.00     0.029 C 
BRANCH  28  29
HETATM   29  C2  UNL     1      27.438  -2.635  52.622  1.00  0.00    -0.002 C 
HETATM   30  C1  UNL     1      28.793  -3.035  53.166  1.00  0.00     0.005 C 
ENDBRANCH  28  29
ENDBRANCH  23  28
ENDBRANCH   1  22
TORSDOF 5
ENDMDL
MODEL 4
REMARK VINA RESULT:      -8.1      3.129      7.119
REMARK  5 active torsions:
REMARK  status: ('A' for Active; 'I' for Inactive)
REMARK    1  A    between atoms: C2_2  and  C3_3 
REMARK    2  A    between atoms: C3_3  and  C4_4 
REMARK    3  A    between atoms: N1_9  and  C8_10 
REMARK    4  A    between atoms: C14_19  and  N5_20 
REMARK    5  A    between atoms: N5_20  and  C15_21 
ROOT
HETATM    1  C8  UNL     1      24.633   0.799  52.999  1.00  0.00     0.056 A 
HETATM    2  C9  UNL     1      25.799   0.234  52.470  1.00  0.00     0.148 A 
HETATM    3  N2  UNL     1      26.533   0.907  51.536  1.00  0.00    -0.238 NA
HETATM    4  C10 UNL     1      26.145   2.131  51.105  1.00  0.00     0.161 A 
HETATM    5  N3  UNL     1      26.853   2.812  50.184  1.00  0.00    -0.239 NA
HETATM    6  C11 UNL     1      26.457   4.046  49.755  1.00  0.00     0.144 A 
HETATM    7  C12 UNL     1      25.295   4.611  50.281  1.00  0.00     0.089 A 
HETATM    8  C13 UNL     1      24.826   5.915  49.864  1.00  0.00     0.103 C 
HETATM    9  N4  UNL     1      24.458   6.975  49.541  1.00  0.00    -0.191 NA
HETATM   10  C14 UNL     1      24.524   3.946  51.238  1.00  0.00     0.069 A 
HETATM   11  C21 UNL     1      24.997   2.706  51.615  1.00  0.00     0.042 A 
HETATM   12  C22 UNL     1      24.234   2.046  52.563  1.00  0.00     0.049 A 
ENDROOT
BRANCH  10  13
HETATM   13  N5  UNL     1      23.344   4.535  51.764  1.00  0.00    -0.354 N 
HETATM   14  H13 UNL     1      23.575   5.200  52.535  1.00  0.00     0.166 HD
BRANCH  13  15
HETATM   15  C15 UNL     1      22.046   4.256  51.305  1.00  0.00     0.033 A 
HETATM   16  C16 UNL     1      21.081   3.942  52.225  1.00  0.00     0.029 A 
HETATM   17  C17 UNL     1      19.806   3.671  51.765  1.00  0.00     0.004 A 
HETATM   18  C18 UNL     1      19.559   3.728  50.408  1.00  0.00     0.019 A 
HETATM   19  C19 UNL     1      20.525   4.044  49.467  1.00  0.00     0.013 A 
HETATM   20 BR1  UNL     1      20.175   4.120  47.596  1.00  0.00    -0.051 Br
HETATM   21  C20 UNL     1      21.786   4.309  49.964  1.00  0.00     0.048 A 
ENDBRANCH  13  15
ENDBRANCH  10  13
BRANCH   1  22
HETATM   22  N1  UNL     1      24.032  -0.050  53.939  1.00  0.00    -0.305 N 
HETATM   23  C4  UNL     1      22.621  -0.151  53.736  1.00  0.00     0.116 A 
HETATM   24  C5  UNL     1      22.145  -1.070  54.794  1.00  0.00     0.004 A 
HETATM   25  C6  UNL     1      23.159  -1.472  55.545  1.00  0.00     0.072 A 
HETATM   26  C7  UNL     1      24.390  -0.860  55.056  1.00  0.00     0.248 A 
HETATM   27  O1  UNL     1      25.613  -0.876  55.365  1.00  0.00    -0.268 OA
BRANCH  23  28
HETATM   28  C3  UNL     1      22.243  -0.705  52.377  1.00  0.00     0.029 C 
BRANCH  28  29
HETATM   29  C2  UNL     1      21.141   0.209  51.830  1.00  0.00    -0.002 C 
HETATM   30  C1  UNL     1      21.429   0.588  50.393  1.00  0.00     0.005 C 
ENDBRANCH  28  29
ENDBRANCH  23  28
ENDBRANCH   1  22
TORSDOF 5
ENDMDL
MODEL 5
REMARK VINA RESULT:      -8.1      2.697      5.493
REMARK  5 active torsions:
REMARK  status: ('A' for Active; 'I' for Inactive)
REMARK    1  A    between atoms: C2_2  and  C3_3 
REMARK    2  A    between atoms: C3_3  and  C4_4 
REMARK    3  A    between atoms: N1_9  and  C8_10 
REMARK    4  A    between atoms: C14_19  and  N5_20 
REMARK    5  A    between atoms: N5_20  and  C15_21 
ROOT
HETATM    1  C8  UNL     1      24.424   0.517  53.222  1.00  0.00     0.056 A 
HETATM    2  C9  UNL     1      23.949  -0.795  53.331  1.00  0.00     0.148 A 
HETATM    3  N2  UNL     1      22.627  -1.072  53.132  1.00  0.00    -0.238 NA
HETATM    4  C10 UNL     1      21.753  -0.083  52.826  1.00  0.00     0.161 A 
HETATM    5  N3  UNL     1      20.445  -0.333  52.627  1.00  0.00    -0.239 NA
HETATM    6  C11 UNL     1      19.570   0.668  52.319  1.00  0.00     0.144 A 
HETATM    7  C12 UNL     1      20.041   1.977  52.210  1.00  0.00     0.089 A 
HETATM    8  C13 UNL     1      19.161   3.079  51.885  1.00  0.00     0.103 C 
HETATM    9  N4  UNL     1      18.454   3.965  51.605  1.00  0.00    -0.191 NA
HETATM   10  C14 UNL     1      21.388   2.290  52.407  1.00  0.00     0.069 A 
HETATM   11  C21 UNL     1      22.202   1.219  52.714  1.00  0.00     0.042 A 
HETATM   12  C22 UNL     1      23.537   1.528  52.911  1.00  0.00     0.049 A 
ENDROOT
BRANCH  10  13
HETATM   13  N5  UNL     1      21.853   3.627  52.292  1.00  0.00    -0.354 N 
HETATM   14  H13 UNL     1      21.652   4.165  53.163  1.00  0.00     0.166 HD
BRANCH  13  15
HETATM   15  C15 UNL     1      22.496   4.148  51.157  1.00  0.00     0.033 A 
HETATM   16  C16 UNL     1      22.282   3.542  49.947  1.00  0.00     0.029 A 
HETATM   17  C17 UNL     1      22.919   4.063  48.837  1.00  0.00     0.004 A 
HETATM   18  C18 UNL     1      23.737   5.163  48.989  1.00  0.00     0.019 A 
HETATM   19  C19 UNL     1      23.963   5.786  50.205  1.00  0.00     0.013 A 
HETATM   20 BR1  UNL     1      25.095   7.305  50.407  1.00  0.00    -0.051 Br
HETATM   21  C20 UNL     1      23.310   5.238  51.292  1.00  0.00     0.048 A 
ENDBRANCH  13  15
ENDBRANCH  10  13
BRANCH   1  22
HETATM   22  N1  UNL     1      25.803   0.586  53.462  1.00  0.00    -0.305 N 
HETATM   23  C4  UNL     1      26.515   1.081  52.326  1.00  0.00     0.116 A 
HETATM   24  C5  UNL     1      27.937   1.091  52.739  1.00  0.00     0.004 A 
HETATM   25  C6  UNL     1      28.058   0.652  53.982  1.00  0.00     0.072 A 
HETATM   26  C7  UNL     1      26.739   0.312  54.502  1.00  0.00     0.248 A 
HETATM   27  O1  UNL     1      26.261  -0.136  55.580  1.00  0.00    -0.268 OA
BRANCH  23  28
HETATM   28  C3  UNL     1      26.098   2.477  51.912  1.00  0.00     0.029 C 
BRANCH  28  29
HETATM   29  C2  UNL     1      25.999   2.461  50.383  1.00  0.00    -0.002 C 
HETATM   30  C1  UNL     1      26.797   3.602  49.786  1.00  0.00     0.005 C 
ENDBRANCH  28  29
ENDBRANCH  23  28
ENDBRANCH   1  22
TORSDOF 5
ENDMDL
MODEL 6
REMARK VINA RESULT:      -8.1      3.091      5.018
REMARK  5 active torsions:
REMARK  status: ('A' for Active; 'I' for Inactive)
REMARK    1  A    between atoms: C2_2  and  C3_3 
REMARK    2  A    between atoms: C3_3  and  C4_4 
REMARK    3  A    between atoms: N1_9  and  C8_10 
REMARK    4  A    between atoms: C14_19  and  N5_20 
REMARK    5  A    between atoms: N5_20  and  C15_21 
ROOT
HETATM    1  C8  UNL     1      24.214   3.549  50.924  1.00  0.00     0.056 A 
HETATM    2  C9  UNL     1      25.528   3.162  50.641  1.00  0.00     0.148 A 
HETATM    3  N2  UNL     1      26.047   2.022  51.184  1.00  0.00    -0.238 NA
HETATM    4  C10 UNL     1      25.299   1.248  52.007  1.00  0.00     0.161 A 
HETATM    5  N3  UNL     1      25.790   0.120  52.554  1.00  0.00    -0.239 NA
HETATM    6  C11 UNL     1      25.031  -0.656  53.382  1.00  0.00     0.144 A 
HETATM    7  C12 UNL     1      23.720  -0.271  53.666  1.00  0.00     0.089 A 
HETATM    8  C13 UNL     1      22.868  -1.053  54.536  1.00  0.00     0.103 C 
HETATM    9  N4  UNL     1      22.175  -1.695  55.223  1.00  0.00    -0.191 NA
HETATM   10  C14 UNL     1      23.163   0.890  53.124  1.00  0.00     0.069 A 
HETATM   11  C21 UNL     1      23.999   1.614  52.298  1.00  0.00     0.042 A 
HETATM   12  C22 UNL     1      23.449   2.764  51.762  1.00  0.00     0.049 A 
ENDROOT
BRANCH  10  13
HETATM   13  N5  UNL     1      21.827   1.268  53.422  1.00  0.00    -0.354 N 
HETATM   14  H13 UNL     1      21.800   1.913  54.242  1.00  0.00     0.166 HD
BRANCH  13  15
HETATM   15  C15 UNL     1      20.700   0.830  52.707  1.00  0.00     0.033 A 
HETATM   16  C16 UNL     1      20.453   1.380  51.477  1.00  0.00     0.029 A 
HETATM   17  C17 UNL     1      19.342   0.943  50.780  1.00  0.00     0.004 A 
HETATM   18  C18 UNL     1      18.534  -0.022  51.347  1.00  0.00     0.019 A 
HETATM   19  C19 UNL     1      18.772  -0.587  52.589  1.00  0.00     0.013 A 
HETATM   20 BR1  UNL     1      17.652  -1.919  53.363  1.00  0.00    -0.051 Br
HETATM   21  C20 UNL     1      19.891  -0.126  53.255  1.00  0.00     0.048 A 
ENDBRANCH  13  15
ENDBRANCH  10  13
BRANCH   1  22
HETATM   22  N1  UNL     1      23.878   4.743  50.269  1.00  0.00    -0.305 N 
HETATM   23  C4  UNL     1      23.464   4.510  48.921  1.00  0.00     0.116 A 
HETATM   24  C5  UNL     1      23.150   5.851  48.380  1.00  0.00     0.004 A 
HETATM   25  C6  UNL     1      23.353   6.780  49.302  1.00  0.00     0.072 A 
HETATM   26  C7  UNL     1      23.817   6.143  50.529  1.00  0.00     0.248 A 
HETATM   27  O1  UNL     1      24.156   6.512  51.687  1.00  0.00    -0.268 OA
BRANCH  23  28
HETATM   28  C3  UNL     1      22.244   3.619  48.808  1.00  0.00     0.029 C 
BRANCH  28  29
HETATM   29  C2  UNL     1      22.620   2.497  47.834  1.00  0.00    -0.002 C 
HETATM   30  C1  UNL     1      21.878   1.222  48.178  1.00  0.00     0.005 C 
ENDBRANCH  28  29
ENDBRANCH  23  28
ENDBRANCH   1  22
TORSDOF 5
ENDMDL
MODEL 7
REMARK VINA RESULT:      -8.1      3.284      6.616
REMARK  5 active torsions:
REMARK  status: ('A' for Active; 'I' for Inactive)
REMARK    1  A    between atoms: C2_2  and  C3_3 
REMARK    2  A    between atoms: C3_3  and  C4_4 
REMARK    3  A    between atoms: N1_9  and  C8_10 
REMARK    4  A    between atoms: C14_19  and  N5_20 
REMARK    5  A    between atoms: N5_20  and  C15_21 
ROOT
HETATM    1  C8  UNL     1      20.950  -0.538  53.408  1.00  0.00     0.056 A 
HETATM    2  C9  UNL     1      21.098  -1.286  54.582  1.00  0.00     0.148 A 
HETATM    3  N2  UNL     1      22.325  -1.430  55.161  1.00  0.00    -0.238 NA
HETATM    4  C10 UNL     1      23.420  -0.852  54.611  1.00  0.00     0.161 A 
HETATM    5  N3  UNL     1      24.640  -0.982  55.166  1.00  0.00    -0.239 NA
HETATM    6  C11 UNL     1      25.739  -0.397  54.606  1.00  0.00     0.144 A 
HETATM    7  C12 UNL     1      25.595   0.349  53.436  1.00  0.00     0.089 A 
HETATM    8  C13 UNL     1      26.723   0.992  52.798  1.00  0.00     0.103 C 
HETATM    9  N4  UNL     1      27.631   1.526  52.294  1.00  0.00    -0.191 NA
HETATM   10  C14 UNL     1      24.351   0.514  52.821  1.00  0.00     0.069 A 
HETATM   11  C21 UNL     1      23.295  -0.110  53.453  1.00  0.00     0.042 A 
HETATM   12  C22 UNL     1      22.063   0.052  52.844  1.00  0.00     0.049 A 
ENDROOT
BRANCH  10  13
HETATM   13  N5  UNL     1      24.220   1.277  51.631  1.00  0.00    -0.354 N 
HETATM   14  H13 UNL     1      24.361   0.676  50.789  1.00  0.00     0.166 HD
BRANCH  13  15
HETATM   15  C15 UNL     1      23.937   2.652  51.596  1.00  0.00     0.033 A 
HETATM   16  C16 UNL     1      23.811   3.324  52.784  1.00  0.00     0.029 A 
HETATM   17  C17 UNL     1      23.533   4.677  52.740  1.00  0.00     0.004 A 
HETATM   18  C18 UNL     1      23.396   5.292  51.513  1.00  0.00     0.019 A 
HETATM   19  C19 UNL     1      23.521   4.627  50.304  1.00  0.00     0.013 A 
HETATM   20 BR1  UNL     1      23.330   5.484  48.614  1.00  0.00    -0.051 Br
HETATM   21  C20 UNL     1      23.799   3.276  50.388  1.00  0.00     0.048 A 
ENDBRANCH  13  15
ENDBRANCH  10  13
BRANCH   1  22
HETATM   22  N1  UNL     1      19.616  -0.514  52.978  1.00  0.00    -0.305 N 
HETATM   23  C4  UNL     1      19.333   0.644  52.189  1.00  0.00     0.116 A 
HETATM   24  C5  UNL     1      17.905   0.519  51.821  1.00  0.00     0.004 A 
HETATM   25  C6  UNL     1      17.393  -0.590  52.333  1.00  0.00     0.072 A 
HETATM   26  C7  UNL     1      18.428  -1.295  53.082  1.00  0.00     0.248 A 
HETATM   27  O1  UNL     1      18.516  -2.359  53.754  1.00  0.00    -0.268 OA
BRANCH  23  28
HETATM   28  C3  UNL     1      20.174   0.740  50.933  1.00  0.00     0.029 C 
BRANCH  28  29
HETATM   29  C2  UNL     1      20.151   2.213  50.511  1.00  0.00    -0.002 C 
HETATM   30  C1  UNL     1      20.262   3.116  51.722  1.00  0.00     0.005 C 
ENDBRANCH  28  29
ENDBRANCH  23  28
ENDBRANCH   1  22
TORSDOF 5
ENDMDL
MODEL 8
REMARK VINA RESULT:      -8.0      2.957      5.751
REMARK  5 active torsions:
REMARK  status: ('A' for Active; 'I' for Inactive)
REMARK    1  A    between atoms: C2_2  and  C3_3 
REMARK    2  A    between atoms: C3_3  and  C4_4 
REMARK    3  A    between atoms: N1_9  and  C8_10 
REMARK    4  A    between atoms: C14_19  and  N5_20 
REMARK    5  A    between atoms: N5_20  and  C15_21 
ROOT
HETATM    1  C8  UNL     1      24.089  -0.111  53.175  1.00  0.00     0.056 A 
HETATM    2  C9  UNL     1      23.815  -0.790  54.368  1.00  0.00     0.148 A 
HETATM    3  N2  UNL     1      22.535  -1.137  54.689  1.00  0.00    -0.238 NA
HETATM    4  C10 UNL     1      21.508  -0.830  53.860  1.00  0.00     0.161 A 
HETATM    5  N3  UNL     1      20.238  -1.162  54.158  1.00  0.00    -0.239 NA
HETATM    6  C11 UNL     1      19.208  -0.850  53.318  1.00  0.00     0.144 A 
HETATM    7  C12 UNL     1      19.478  -0.172  52.129  1.00  0.00     0.089 A 
HETATM    8  C13 UNL     1      18.427   0.185  51.200  1.00  0.00     0.103 C 
HETATM    9  N4  UNL     1      17.582   0.457  50.442  1.00  0.00    -0.191 NA
HETATM   10  C14 UNL     1      20.778   0.195  51.774  1.00  0.00     0.069 A 
HETATM   11  C21 UNL     1      21.758  -0.160  52.679  1.00  0.00     0.042 A 
HETATM   12  C22 UNL     1      23.046   0.204  52.328  1.00  0.00     0.049 A 
ENDROOT
BRANCH  10  13
HETATM   13  N5  UNL     1      21.038   0.884  50.559  1.00  0.00    -0.354 N 
HETATM   14  H13 UNL     1      21.139   0.211  49.768  1.00  0.00     0.166 HD
BRANCH  13  15
HETATM   15  C15 UNL     1      21.142   2.280  50.445  1.00  0.00     0.033 A 
HETATM   16  C16 UNL     1      20.757   3.053  51.509  1.00  0.00     0.029 A 
HETATM   17  C17 UNL     1      20.864   4.426  51.387  1.00  0.00     0.004 A 
HETATM   18  C18 UNL     1      21.350   4.957  50.210  1.00  0.00     0.019 A 
HETATM   19  C19 UNL     1      21.742   4.188  49.127  1.00  0.00     0.013 A 
HETATM   20 BR1  UNL     1      22.412   4.931  47.506  1.00  0.00    -0.051 Br
HETATM   21  C20 UNL     1      21.622   2.821  49.285  1.00  0.00     0.048 A 
ENDBRANCH  13  15
ENDBRANCH  10  13
BRANCH   1  22
HETATM   22  N1  UNL     1      25.459   0.150  53.035  1.00  0.00    -0.305 N 
HETATM   23  C4  UNL     1      25.705   1.507  52.661  1.00  0.00     0.116 A 
HETATM   24  C5  UNL     1      27.177   1.616  52.556  1.00  0.00     0.004 A 
HETATM   25  C6  UNL     1      27.746   0.454  52.837  1.00  0.00     0.072 A 
HETATM   26  C7  UNL     1      26.710  -0.524  53.151  1.00  0.00     0.248 A 
HETATM   27  O1  UNL     1      26.661  -1.742  53.478  1.00  0.00    -0.268 OA
BRANCH  23  28
HETATM   28  C3  UNL     1      25.193   2.515  53.670  1.00  0.00     0.029 C 
BRANCH  28  29
HETATM   29  C2  UNL     1      24.222   3.427  52.911  1.00  0.00    -0.002 C 
HETATM   30  C1  UNL     1      24.580   3.481  51.441  1.00  0.00     0.005 C 
ENDBRANCH  28  29
ENDBRANCH  23  28
ENDBRANCH   1  22
TORSDOF 5
ENDMDL
MODEL 9
REMARK VINA RESULT:      -7.5      3.260      4.729
REMARK  5 active torsions:
REMARK  status: ('A' for Active; 'I' for Inactive)
REMARK    1  A    between atoms: C2_2  and  C3_3 
REMARK    2  A    between atoms: C3_3  and  C4_4 
REMARK    3  A    between atoms: N1_9  and  C8_10 
REMARK    4  A    between atoms: C14_19  and  N5_20 
REMARK    5  A    between atoms: N5_20  and  C15_21 
ROOT
HETATM    1  C8  UNL     1      20.028   1.782  51.854  1.00  0.00     0.056 A 
HETATM    2  C9  UNL     1      19.045   0.787  51.901  1.00  0.00     0.148 A 
HETATM    3  N2  UNL     1      19.259  -0.366  52.599  1.00  0.00    -0.238 NA
HETATM    4  C10 UNL     1      20.426  -0.566  53.258  1.00  0.00     0.161 A 
HETATM    5  N3  UNL     1      20.658  -1.696  53.952  1.00  0.00    -0.239 NA
HETATM    6  C11 UNL     1      21.836  -1.892  54.614  1.00  0.00     0.144 A 
HETATM    7  C12 UNL     1      22.818  -0.902  54.568  1.00  0.00     0.089 A 
HETATM    8  C13 UNL     1      24.085  -1.054  55.250  1.00  0.00     0.103 C 
HETATM    9  N4  UNL     1      25.100  -1.169  55.816  1.00  0.00    -0.191 NA
HETATM   10  C14 UNL     1      22.627   0.288  53.862  1.00  0.00     0.069 A 
HETATM   11  C21 UNL     1      21.408   0.403  53.223  1.00  0.00     0.042 A 
HETATM   12  C22 UNL     1      21.218   1.581  52.523  1.00  0.00     0.049 A 
ENDROOT
BRANCH  10  13
HETATM   13  N5  UNL     1      23.635   1.287  53.826  1.00  0.00    -0.354 N 
HETATM   14  H13 UNL     1      23.575   1.903  54.666  1.00  0.00     0.166 HD
BRANCH  13  15
HETATM   15  C15 UNL     1      24.582   1.421  52.797  1.00  0.00     0.033 A 
HETATM   16  C16 UNL     1      25.595   0.503  52.716  1.00  0.00     0.029 A 
HETATM   17  C17 UNL     1      26.521   0.643  51.701  1.00  0.00     0.004 A 
HETATM   18  C18 UNL     1      26.389   1.693  50.815  1.00  0.00     0.019 A 
HETATM   19  C19 UNL     1      25.370   2.629  50.883  1.00  0.00     0.013 A 
HETATM   20 BR1  UNL     1      25.195   4.075  49.656  1.00  0.00    -0.051 Br
HETATM   21  C20 UNL     1      24.463   2.456  51.911  1.00  0.00     0.048 A 
ENDBRANCH  13  15
ENDBRANCH  10  13
BRANCH   1  22
HETATM   22  N1  UNL     1      19.612   2.880  51.088  1.00  0.00    -0.305 N 
HETATM   23  C4  UNL     1      20.437   3.067  49.935  1.00  0.00     0.116 A 
HETATM   24  C5  UNL     1      19.872   4.248  49.246  1.00  0.00     0.004 A 
HETATM   25  C6  UNL     1      18.826   4.714  49.912  1.00  0.00     0.072 A 
HETATM   26  C7  UNL     1      18.606   3.890  51.095  1.00  0.00     0.248 A 
HETATM   27  O1  UNL     1      17.791   3.860  52.058  1.00  0.00    -0.268 OA
BRANCH  23  28
HETATM   28  C3  UNL     1      20.437   1.881  48.993  1.00  0.00     0.029 C 
BRANCH  28  29
HETATM   29  C2  UNL     1      21.904   1.483  48.801  1.00  0.00    -0.002 C 
HETATM   30  C1  UNL     1      22.509   2.228  47.630  1.00  0.00     0.005 C 
ENDBRANCH  28  29
ENDBRANCH  23  28
ENDBRANCH   1  22
TORSDOF 5
ENDMDL
