MODEL 1
REMARK VINA RESULT:      -6.9      0.000      0.000
REMARK  5 active torsions:
REMARK  status: ('A' for Active; 'I' for Inactive)
REMARK    1  A    between atoms: O1_2  and  C2_3 
REMARK    2  A    between atoms: C7_10  and  O2_11 
REMARK    3  A    between atoms: O2_11  and  C8_12 
REMARK    4  A    between atoms: C8_12  and  N3_13 
REMARK    5  A    between atoms: N3_13  and  C9_14 
ROOT
HETATM    1  O2  UNL     1      24.733   2.571  52.504  1.00  0.00    -0.359 OA
ENDROOT
BRANCH   1   2
HETATM    2  C7  UNL     1      25.876   2.067  53.063  1.00  0.00     0.200 C 
HETATM    3  C2  UNL     1      25.686   0.658  53.560  1.00  0.00     0.077 C 
HETATM    4  C3  UNL     1      26.489  -0.077  54.313  1.00  0.00     0.054 C 
HETATM    5  C4  UNL     1      27.802   0.064  54.969  1.00  0.00     0.120 C 
HETATM    6  N1  UNL     1      28.768   0.913  54.816  1.00  0.00    -0.255 NA
HETATM    7  C5  UNL     1      28.951   2.052  53.951  1.00  0.00     0.226 C 
HETATM    8  N2  UNL     1      28.276   2.482  52.938  1.00  0.00    -0.280 NA
HETATM    9  C6  UNL     1      27.093   2.092  52.200  1.00  0.00     0.189 C 
BRANCH   3  10
HETATM   10  O1  UNL     1      24.474   0.148  53.117  1.00  0.00    -0.357 OA
HETATM   11  C1  UNL     1      23.608  -0.536  54.004  1.00  0.00     0.209 C 
ENDBRANCH   3  10
ENDBRANCH   1   2
BRANCH   1  12
HETATM   12  C8  UNL     1      24.956   2.875  51.162  1.00  0.00     0.291 C 
BRANCH  12  13
HETATM   13  N3  UNL     1      24.819   4.290  50.873  1.00  0.00    -0.369 N 
HETATM   14  H12 UNL     1      24.042   4.871  51.248  1.00  0.00     0.161 HD
BRANCH  13  15
HETATM   15  C9  UNL     1      25.762   4.976  50.041  1.00  0.00     0.030 A 
HETATM   16  C10 UNL     1      26.748   4.333  49.323  1.00  0.00     0.029 A 
HETATM   17  C11 UNL     1      27.656   4.989  48.522  1.00  0.00     0.004 A 
HETATM   18  C12 UNL     1      27.554   6.350  48.452  1.00  0.00     0.019 A 
HETATM   19  C13 UNL     1      26.606   7.086  49.129  1.00  0.00     0.013 A 
HETATM   20 BR1  UNL     1      26.490   8.977  49.009  1.00  0.00    -0.051 Br
HETATM   21  C14 UNL     1      25.722   6.370  49.916  1.00  0.00     0.048 A 
ENDBRANCH  13  15
ENDBRANCH  12  13
ENDBRANCH   1  12
TORSDOF 5
ENDMDL
MODEL 2
REMARK VINA RESULT:      -6.8      4.042      5.593
REMARK  5 active torsions:
REMARK  status: ('A' for Active; 'I' for Inactive)
REMARK    1  A    between atoms: O1_2  and  C2_3 
REMARK    2  A    between atoms: C7_10  and  O2_11 
REMARK    3  A    between atoms: O2_11  and  C8_12 
REMARK    4  A    between atoms: C8_12  and  N3_13 
REMARK    5  A    between atoms: N3_13  and  C9_14 
ROOT
HETATM    1  O2  UNL     1      26.827   2.081  52.646  1.00  0.00    -0.359 OA
ENDROOT
BRANCH   1   2
HETATM    2  C7  UNL     1      27.294   0.809  52.835  1.00  0.00     0.200 C 
HETATM    3  C2  UNL     1      28.587   0.793  53.608  1.00  0.00     0.077 C 
HETATM    4  C3  UNL     1      29.422  -0.213  53.818  1.00  0.00     0.054 C 
HETATM    5  C4  UNL     1      29.521  -1.641  53.464  1.00  0.00     0.120 C 
HETATM    6  N1  UNL     1      28.655  -2.491  53.011  1.00  0.00    -0.255 NA
HETATM    7  C5  UNL     1      27.257  -2.388  52.674  1.00  0.00     0.226 C 
HETATM    8  N2  UNL     1      26.387  -1.455  52.877  1.00  0.00    -0.280 NA
HETATM    9  C6  UNL     1      26.352  -0.145  53.491  1.00  0.00     0.189 C 
BRANCH   3  10
HETATM   10  O1  UNL     1      28.854   2.050  54.132  1.00  0.00    -0.357 OA
HETATM   11  C1  UNL     1      29.971   2.261  54.976  1.00  0.00     0.209 C 
ENDBRANCH   3  10
ENDBRANCH   1   2
BRANCH   1  12
HETATM   12  C8  UNL     1      26.092   2.143  51.463  1.00  0.00     0.291 C 
BRANCH  12  13
HETATM   13  N3  UNL     1      24.763   2.694  51.653  1.00  0.00    -0.369 N 
HETATM   14  H12 UNL     1      24.590   3.706  51.823  1.00  0.00     0.161 HD
BRANCH  13  15
HETATM   15  C9  UNL     1      23.598   1.863  51.617  1.00  0.00     0.030 A 
HETATM   16  C10 UNL     1      22.797   1.729  50.502  1.00  0.00     0.029 A 
HETATM   17  C11 UNL     1      21.676   0.930  50.463  1.00  0.00     0.004 A 
HETATM   18  C12 UNL     1      21.361   0.244  51.602  1.00  0.00     0.019 A 
HETATM   19  C13 UNL     1      22.095   0.309  52.767  1.00  0.00     0.013 A 
HETATM   20 BR1  UNL     1      21.631  -0.659  54.333  1.00  0.00    -0.051 Br
HETATM   21  C14 UNL     1      23.210   1.127  52.744  1.00  0.00     0.048 A 
ENDBRANCH  13  15
ENDBRANCH  12  13
ENDBRANCH   1  12
TORSDOF 5
ENDMDL
MODEL 3
REMARK VINA RESULT:      -6.7      2.559      3.440
REMARK  5 active torsions:
REMARK  status: ('A' for Active; 'I' for Inactive)
REMARK    1  A    between atoms: O1_2  and  C2_3 
REMARK    2  A    between atoms: C7_10  and  O2_11 
REMARK    3  A    between atoms: O2_11  and  C8_12 
REMARK    4  A    between atoms: C8_12  and  N3_13 
REMARK    5  A    between atoms: N3_13  and  C9_14 
ROOT
HETATM    1  O2  UNL     1      26.952   2.994  50.961  1.00  0.00    -0.359 OA
ENDROOT
BRANCH   1   2
HETATM    2  C7  UNL     1      26.218   2.094  51.684  1.00  0.00     0.200 C 
HETATM    3  C2  UNL     1      27.084   1.259  52.590  1.00  0.00     0.077 C 
HETATM    4  C3  UNL     1      26.766   0.179  53.287  1.00  0.00     0.054 C 
HETATM    5  C4  UNL     1      25.576  -0.660  53.516  1.00  0.00     0.120 C 
HETATM    6  N1  UNL     1      24.315  -0.468  53.292  1.00  0.00    -0.255 NA
HETATM    7  C5  UNL     1      23.570   0.634  52.735  1.00  0.00     0.226 C 
HETATM    8  N2  UNL     1      23.912   1.843  52.439  1.00  0.00    -0.280 NA
HETATM    9  C6  UNL     1      25.105   2.661  52.501  1.00  0.00     0.189 C 
BRANCH   3  10
HETATM   10  O1  UNL     1      28.373   1.772  52.636  1.00  0.00    -0.357 OA
HETATM   11  C1  UNL     1      28.860   2.404  53.805  1.00  0.00     0.209 C 
ENDBRANCH   3  10
ENDBRANCH   1   2
BRANCH   1  12
HETATM   12  C8  UNL     1      26.439   3.095  49.669  1.00  0.00     0.291 C 
BRANCH  12  13
HETATM   13  N3  UNL     1      25.998   4.437  49.339  1.00  0.00    -0.369 N 
HETATM   14  H12 UNL     1      25.032   4.776  49.524  1.00  0.00     0.161 HD
BRANCH  13  15
HETATM   15  C9  UNL     1      26.883   5.385  48.731  1.00  0.00     0.030 A 
HETATM   16  C10 UNL     1      26.475   6.622  48.279  1.00  0.00     0.029 A 
HETATM   17  C11 UNL     1      27.322   7.536  47.694  1.00  0.00     0.004 A 
HETATM   18  C12 UNL     1      28.633   7.174  47.565  1.00  0.00     0.019 A 
HETATM   19  C13 UNL     1      29.142   5.963  47.983  1.00  0.00     0.013 A 
HETATM   20 BR1  UNL     1      30.971   5.491  47.789  1.00  0.00    -0.051 Br
HETATM   21  C14 UNL     1      28.242   5.088  48.563  1.00  0.00     0.048 A 
ENDBRANCH  13  15
ENDBRANCH  12  13
ENDBRANCH   1  12
TORSDOF 5
ENDMDL
MODEL 4
REMARK VINA RESULT:      -6.7      4.185      6.134
REMARK  5 active torsions:
REMARK  status: ('A' for Active; 'I' for Inactive)
REMARK    1  A    between atoms: O1_2  and  C2_3 
REMARK    2  A    between atoms: C7_10  and  O2_11 
REMARK    3  A    between atoms: O2_11  and  C8_12 
REMARK    4  A    between atoms: C8_12  and  N3_13 
REMARK    5  A    between atoms: N3_13  and  C9_14 
ROOT
HETATM    1  O2  UNL     1      25.016   0.632  51.836  1.00  0.00    -0.359 OA
ENDROOT
BRANCH   1   2
HETATM    2  C7  UNL     1      26.160   0.881  52.546  1.00  0.00     0.200 C 
HETATM    3  C2  UNL     1      26.669  -0.352  53.243  1.00  0.00     0.077 C 
HETATM    4  C3  UNL     1      27.622  -0.462  54.156  1.00  0.00     0.054 C 
HETATM    5  C4  UNL     1      28.555   0.428  54.872  1.00  0.00     0.120 C 
HETATM    6  N1  UNL     1      28.941   1.644  54.657  1.00  0.00    -0.255 NA
HETATM    7  C5  UNL     1      28.620   2.614  53.638  1.00  0.00     0.226 C 
HETATM    8  N2  UNL     1      27.973   2.513  52.525  1.00  0.00    -0.280 NA
HETATM    9  C6  UNL     1      27.291   1.478  51.777  1.00  0.00     0.189 C 
BRANCH   3  10
HETATM   10  O1  UNL     1      25.985  -1.476  52.802  1.00  0.00    -0.357 OA
HETATM   11  C1  UNL     1      26.663  -2.520  52.129  1.00  0.00     0.209 C 
ENDBRANCH   3  10
ENDBRANCH   1   2
BRANCH   1  12
HETATM   12  C8  UNL     1      24.096   1.657  52.049  1.00  0.00     0.291 C 
BRANCH  12  13
HETATM   13  N3  UNL     1      23.408   1.544  53.321  1.00  0.00    -0.369 N 
HETATM   14  H12 UNL     1      23.585   2.188  54.119  1.00  0.00     0.161 HD
BRANCH  13  15
HETATM   15  C9  UNL     1      22.432   0.522  53.553  1.00  0.00     0.030 A 
HETATM   16  C10 UNL     1      22.652  -0.563  54.376  1.00  0.00     0.029 A 
HETATM   17  C11 UNL     1      21.716  -1.548  54.602  1.00  0.00     0.004 A 
HETATM   18  C12 UNL     1      20.514  -1.420  53.966  1.00  0.00     0.019 A 
HETATM   19  C13 UNL     1      20.194  -0.376  53.125  1.00  0.00     0.013 A 
HETATM   20 BR1  UNL     1      18.513  -0.228  52.256  1.00  0.00    -0.051 Br
HETATM   21  C14 UNL     1      21.175   0.581  52.938  1.00  0.00     0.048 A 
ENDBRANCH  13  15
ENDBRANCH  12  13
ENDBRANCH   1  12
TORSDOF 5
ENDMDL
MODEL 5
REMARK VINA RESULT:      -6.5      3.207      4.216
REMARK  5 active torsions:
REMARK  status: ('A' for Active; 'I' for Inactive)
REMARK    1  A    between atoms: O1_2  and  C2_3 
REMARK    2  A    between atoms: C7_10  and  O2_11 
REMARK    3  A    between atoms: O2_11  and  C8_12 
REMARK    4  A    between atoms: C8_12  and  N3_13 
REMARK    5  A    between atoms: N3_13  and  C9_14 
ROOT
HETATM    1  O2  UNL     1      24.950   2.761  52.465  1.00  0.00    -0.359 OA
ENDROOT
BRANCH   1   2
HETATM    2  C7  UNL     1      26.043   2.183  53.051  1.00  0.00     0.200 C 
HETATM    3  C2  UNL     1      25.763   0.772  53.498  1.00  0.00     0.077 C 
HETATM    4  C3  UNL     1      26.498  -0.024  54.258  1.00  0.00     0.054 C 
HETATM    5  C4  UNL     1      27.789   0.031  54.968  1.00  0.00     0.120 C 
HETATM    6  N1  UNL     1      28.802   0.833  54.879  1.00  0.00    -0.255 NA
HETATM    7  C5  UNL     1      29.076   1.985  54.056  1.00  0.00     0.226 C 
HETATM    8  N2  UNL     1      28.464   2.479  53.031  1.00  0.00    -0.280 NA
HETATM    9  C6  UNL     1      27.294   2.170  52.237  1.00  0.00     0.189 C 
BRANCH   3  10
HETATM   10  O1  UNL     1      24.546   0.337  52.993  1.00  0.00    -0.357 OA
HETATM   11  C1  UNL     1      23.685  -0.471  53.774  1.00  0.00     0.209 C 
ENDBRANCH   3  10
ENDBRANCH   1   2
BRANCH   1  12
HETATM   12  C8  UNL     1      25.273   3.184  51.177  1.00  0.00     0.291 C 
BRANCH  12  13
HETATM   13  N3  UNL     1      24.128   3.697  50.447  1.00  0.00    -0.369 N 
HETATM   14  H12 UNL     1      23.967   4.713  50.290  1.00  0.00     0.161 HD
BRANCH  13  15
HETATM   15  C9  UNL     1      23.141   2.819  49.895  1.00  0.00     0.030 A 
HETATM   16  C10 UNL     1      23.003   2.588  48.542  1.00  0.00     0.029 A 
HETATM   17  C11 UNL     1      22.056   1.745  48.007  1.00  0.00     0.004 A 
HETATM   18  C12 UNL     1      21.218   1.115  48.884  1.00  0.00     0.019 A 
HETATM   19  C13 UNL     1      21.272   1.276  50.251  1.00  0.00     0.013 A 
HETATM   20 BR1  UNL     1      20.094   0.384  51.443  1.00  0.00    -0.051 Br
HETATM   21  C14 UNL     1      22.246   2.135  50.728  1.00  0.00     0.048 A 
ENDBRANCH  13  15
ENDBRANCH  12  13
ENDBRANCH   1  12
TORSDOF 5
ENDMDL
MODEL 6
REMARK VINA RESULT:      -6.3      1.338      1.667
REMARK  5 active torsions:
REMARK  status: ('A' for Active; 'I' for Inactive)
REMARK    1  A    between atoms: O1_2  and  C2_3 
REMARK    2  A    between atoms: C7_10  and  O2_11 
REMARK    3  A    between atoms: O2_11  and  C8_12 
REMARK    4  A    between atoms: C8_12  and  N3_13 
REMARK    5  A    between atoms: N3_13  and  C9_14 
ROOT
HETATM    1  O2  UNL     1      24.313   3.009  52.232  1.00  0.00    -0.359 OA
ENDROOT
BRANCH   1   2
HETATM    2  C7  UNL     1      24.856   1.972  52.941  1.00  0.00     0.200 C 
HETATM    3  C2  UNL     1      23.916   0.799  53.031  1.00  0.00     0.077 C 
HETATM    4  C3  UNL     1      24.009  -0.290  53.778  1.00  0.00     0.054 C 
HETATM    5  C4  UNL     1      24.941  -0.855  54.772  1.00  0.00     0.120 C 
HETATM    6  N1  UNL     1      26.167  -0.573  55.080  1.00  0.00    -0.255 NA
HETATM    7  C5  UNL     1      27.110   0.397  54.581  1.00  0.00     0.226 C 
HETATM    8  N2  UNL     1      27.080   1.178  53.553  1.00  0.00    -0.280 NA
HETATM    9  C6  UNL     1      26.177   1.470  52.460  1.00  0.00     0.189 C 
BRANCH   3  10
HETATM   10  O1  UNL     1      22.836   0.977  52.179  1.00  0.00    -0.357 OA
HETATM   11  C1  UNL     1      21.776   0.039  52.147  1.00  0.00     0.209 C 
ENDBRANCH   3  10
ENDBRANCH   1   2
BRANCH   1  12
HETATM   12  C8  UNL     1      24.867   3.050  50.954  1.00  0.00     0.291 C 
BRANCH  12  13
HETATM   13  N3  UNL     1      24.689   4.334  50.302  1.00  0.00    -0.369 N 
HETATM   14  H12 UNL     1      23.792   4.861  50.328  1.00  0.00     0.161 HD
BRANCH  13  15
HETATM   15  C9  UNL     1      25.754   4.956  49.575  1.00  0.00     0.030 A 
HETATM   16  C10 UNL     1      26.929   4.310  49.250  1.00  0.00     0.029 A 
HETATM   17  C11 UNL     1      27.956   4.904  48.551  1.00  0.00     0.004 A 
HETATM   18  C12 UNL     1      27.778   6.204  48.171  1.00  0.00     0.019 A 
HETATM   19  C13 UNL     1      26.644   6.938  48.445  1.00  0.00     0.013 A 
HETATM   20 BR1  UNL     1      26.428   8.744  47.901  1.00  0.00    -0.051 Br
HETATM   21  C14 UNL     1      25.648   6.286  49.149  1.00  0.00     0.048 A 
ENDBRANCH  13  15
ENDBRANCH  12  13
ENDBRANCH   1  12
TORSDOF 5
ENDMDL
MODEL 7
REMARK VINA RESULT:      -6.2      2.577      3.644
REMARK  5 active torsions:
REMARK  status: ('A' for Active; 'I' for Inactive)
REMARK    1  A    between atoms: O1_2  and  C2_3 
REMARK    2  A    between atoms: C7_10  and  O2_11 
REMARK    3  A    between atoms: O2_11  and  C8_12 
REMARK    4  A    between atoms: C8_12  and  N3_13 
REMARK    5  A    between atoms: N3_13  and  C9_14 
ROOT
HETATM    1  O2  UNL     1      26.858   2.765  50.645  1.00  0.00    -0.359 OA
ENDROOT
BRANCH   1   2
HETATM    2  C7  UNL     1      26.192   1.947  51.518  1.00  0.00     0.200 C 
HETATM    3  C2  UNL     1      27.086   1.466  52.632  1.00  0.00     0.077 C 
HETATM    4  C3  UNL     1      26.858   0.530  53.540  1.00  0.00     0.054 C 
HETATM    5  C4  UNL     1      25.772  -0.402  53.897  1.00  0.00     0.120 C 
HETATM    6  N1  UNL     1      24.519  -0.449  53.575  1.00  0.00    -0.255 NA
HETATM    7  C5  UNL     1      23.683   0.384  52.747  1.00  0.00     0.226 C 
HETATM    8  N2  UNL     1      23.887   1.536  52.199  1.00  0.00    -0.280 NA
HETATM    9  C6  UNL     1      24.954   2.511  52.131  1.00  0.00     0.189 C 
BRANCH   3  10
HETATM   10  O1  UNL     1      28.289   2.157  52.621  1.00  0.00    -0.357 OA
HETATM   11  C1  UNL     1      28.980   2.427  53.826  1.00  0.00     0.209 C 
ENDBRANCH   3  10
ENDBRANCH   1   2
BRANCH   1  12
HETATM   12  C8  UNL     1      25.959   3.638  50.037  1.00  0.00     0.291 C 
BRANCH  12  13
HETATM   13  N3  UNL     1      26.449   5.002  49.977  1.00  0.00    -0.369 N 
HETATM   14  H12 UNL     1      27.458   5.237  49.874  1.00  0.00     0.161 HD
BRANCH  13  15
HETATM   15  C9  UNL     1      25.557   6.120  50.059  1.00  0.00     0.030 A 
HETATM   16  C10 UNL     1      25.976   7.431  49.977  1.00  0.00     0.029 A 
HETATM   17  C11 UNL     1      25.123   8.509  50.055  1.00  0.00     0.004 A 
HETATM   18  C12 UNL     1      23.794   8.238  50.224  1.00  0.00     0.019 A 
HETATM   19  C13 UNL     1      23.274   6.966  50.317  1.00  0.00     0.013 A 
HETATM   20 BR1  UNL     1      21.421   6.624  50.551  1.00  0.00    -0.051 Br
HETATM   21  C14 UNL     1      24.181   5.925  50.231  1.00  0.00     0.048 A 
ENDBRANCH  13  15
ENDBRANCH  12  13
ENDBRANCH   1  12
TORSDOF 5
ENDMDL
MODEL 8
REMARK VINA RESULT:      -6.2      2.825      4.190
REMARK  5 active torsions:
REMARK  status: ('A' for Active; 'I' for Inactive)
REMARK    1  A    between atoms: O1_2  and  C2_3 
REMARK    2  A    between atoms: C7_10  and  O2_11 
REMARK    3  A    between atoms: O2_11  and  C8_12 
REMARK    4  A    between atoms: C8_12  and  N3_13 
REMARK    5  A    between atoms: N3_13  and  C9_14 
ROOT
HETATM    1  O2  UNL     1      22.995   1.344  50.974  1.00  0.00    -0.359 OA
ENDROOT
BRANCH   1   2
HETATM    2  C7  UNL     1      22.482   0.662  52.044  1.00  0.00     0.200 C 
HETATM    3  C2  UNL     1      23.559   0.220  52.999  1.00  0.00     0.077 C 
HETATM    4  C3  UNL     1      23.474  -0.609  54.028  1.00  0.00     0.054 C 
HETATM    5  C4  UNL     1      22.438  -1.422  54.691  1.00  0.00     0.120 C 
HETATM    6  N1  UNL     1      21.144  -1.405  54.635  1.00  0.00    -0.255 NA
HETATM    7  C5  UNL     1      20.201  -0.591  53.908  1.00  0.00     0.226 C 
HETATM    8  N2  UNL     1      20.349   0.488  53.213  1.00  0.00    -0.280 NA
HETATM    9  C6  UNL     1      21.430   1.370  52.830  1.00  0.00     0.189 C 
BRANCH   3  10
HETATM   10  O1  UNL     1      24.769   0.816  52.675  1.00  0.00    -0.357 OA
HETATM   11  C1  UNL     1      25.659   1.249  53.688  1.00  0.00     0.209 C 
ENDBRANCH   3  10
ENDBRANCH   1   2
BRANCH   1  12
HETATM   12  C8  UNL     1      22.662   2.694  51.071  1.00  0.00     0.291 C 
BRANCH  12  13
HETATM   13  N3  UNL     1      23.767   3.518  51.523  1.00  0.00    -0.369 N 
HETATM   14  H12 UNL     1      23.894   3.799  52.517  1.00  0.00     0.161 HD
BRANCH  13  15
HETATM   15  C9  UNL     1      24.762   3.998  50.611  1.00  0.00     0.030 A 
HETATM   16  C10 UNL     1      25.935   3.322  50.345  1.00  0.00     0.029 A 
HETATM   17  C11 UNL     1      26.894   3.780  49.469  1.00  0.00     0.004 A 
HETATM   18  C12 UNL     1      26.648   4.970  48.843  1.00  0.00     0.019 A 
HETATM   19  C13 UNL     1      25.509   5.721  49.040  1.00  0.00     0.013 A 
HETATM   20 BR1  UNL     1      25.197   7.371  48.153  1.00  0.00    -0.051 Br
HETATM   21  C14 UNL     1      24.583   5.208  49.930  1.00  0.00     0.048 A 
ENDBRANCH  13  15
ENDBRANCH  12  13
ENDBRANCH   1  12
TORSDOF 5
ENDMDL
MODEL 9
REMARK VINA RESULT:      -6.1      3.530      6.733
REMARK  5 active torsions:
REMARK  status: ('A' for Active; 'I' for Inactive)
REMARK    1  A    between atoms: O1_2  and  C2_3 
REMARK    2  A    between atoms: C7_10  and  O2_11 
REMARK    3  A    between atoms: O2_11  and  C8_12 
REMARK    4  A    between atoms: C8_12  and  N3_13 
REMARK    5  A    between atoms: N3_13  and  C9_14 
ROOT
HETATM    1  O2  UNL     1      25.747   4.361  50.120  1.00  0.00    -0.359 OA
ENDROOT
BRANCH   1   2
HETATM    2  C7  UNL     1      24.437   4.073  50.392  1.00  0.00     0.200 C 
HETATM    3  C2  UNL     1      23.652   5.307  50.749  1.00  0.00     0.077 C 
HETATM    4  C3  UNL     1      22.429   5.403  51.248  1.00  0.00     0.054 C 
HETATM    5  C4  UNL     1      21.343   4.493  51.658  1.00  0.00     0.120 C 
HETATM    6  N1  UNL     1      21.120   3.239  51.427  1.00  0.00    -0.255 NA
HETATM    7  C5  UNL     1      21.834   2.233  50.680  1.00  0.00     0.226 C 
HETATM    8  N2  UNL     1      22.835   2.310  49.868  1.00  0.00    -0.280 NA
HETATM    9  C6  UNL     1      23.692   3.343  49.325  1.00  0.00     0.189 C 
BRANCH   3  10
HETATM   10  O1  UNL     1      24.395   6.448  50.485  1.00  0.00    -0.357 OA
HETATM   11  C1  UNL     1      23.929   7.725  50.880  1.00  0.00     0.209 C 
ENDBRANCH   3  10
ENDBRANCH   1   2
BRANCH   1  12
HETATM   12  C8  UNL     1      26.526   3.216  50.277  1.00  0.00     0.291 C 
BRANCH  12  13
HETATM   13  N3  UNL     1      26.803   2.909  51.668  1.00  0.00    -0.369 N 
HETATM   14  H12 UNL     1      27.239   3.591  52.322  1.00  0.00     0.161 HD
BRANCH  13  15
HETATM   15  C9  UNL     1      26.488   1.628  52.226  1.00  0.00     0.030 A 
HETATM   16  C10 UNL     1      27.440   0.677  52.526  1.00  0.00     0.029 A 
HETATM   17  C11 UNL     1      27.142  -0.555  53.063  1.00  0.00     0.004 A 
HETATM   18  C12 UNL     1      25.823  -0.827  53.301  1.00  0.00     0.019 A 
HETATM   19  C13 UNL     1      24.797   0.054  53.038  1.00  0.00     0.013 A 
HETATM   20 BR1  UNL     1      22.975  -0.353  53.382  1.00  0.00    -0.051 Br
HETATM   21  C14 UNL     1      25.160   1.275  52.500  1.00  0.00     0.048 A 
ENDBRANCH  13  15
ENDBRANCH  12  13
ENDBRANCH   1  12
TORSDOF 5
ENDMDL
