MODEL 1
REMARK VINA RESULT:      -7.6      0.000      0.000
REMARK  7 active torsions:
REMARK  status: ('A' for Active; 'I' for Inactive)
REMARK    1  A    between atoms: C2_2  and  N1_3 
REMARK    2  A    between atoms: N1_3  and  C3_4 
REMARK       I    between atoms: N1_3  and  C17_25 
REMARK    3  A    between atoms: C3_4  and  C4_5 
REMARK    4  A    between atoms: C4_5  and  C5_6 
REMARK    5  A    between atoms: C5_6  and  N2_7 
REMARK    6  A    between atoms: N2_7  and  C6_8 
REMARK    7  A    between atoms: C12_16  and  C13_17 
REMARK       I    between atoms: C13_17  and  N5_18 
ROOT
HETATM    1  C6  UNL     1      22.323   0.930  51.454  1.00  0.00     0.722 A 
HETATM    2  N3  UNL     1      21.994   0.014  52.351  1.00  0.00    -0.075 NA
HETATM    3  C7  UNL     1      22.852  -0.454  53.271  1.00  0.00     0.146 A 
HETATM    4  C8  UNL     1      24.152   0.005  53.331  1.00  0.00    -0.008 A 
HETATM    5  C9  UNL     1      24.501   0.947  52.415  1.00  0.00     0.112 A 
HETATM    6  N4  UNL     1      23.590   1.371  51.522  1.00  0.00    -0.060 NA
HETATM    7  C10 UNL     1      25.870   1.453  52.455  1.00  0.00     0.091 A 
HETATM    8  C11 UNL     1      26.736   0.956  53.412  1.00  0.00     0.009 A 
HETATM    9  C12 UNL     1      27.908   1.616  53.188  1.00  0.00     0.153 A 
HETATM   10  N6  UNL     1      27.749   2.461  52.154  1.00  0.00    -0.166 NA
HETATM   11  N7  UNL     1      26.511   2.366  51.705  1.00  0.00    -0.271 N 
HETATM   12  C14 UNL     1      25.897   3.100  50.591  1.00  0.00     0.180 C 
HETATM   13  C15 UNL     1      26.404  -0.053  54.413  1.00  0.00     0.048 A 
HETATM   14  C16 UNL     1      25.011  -0.564  54.368  1.00  0.00     0.047 A 
ENDROOT
BRANCH   1  15
HETATM   15  N2  UNL     1      21.453   1.455  50.464  1.00  0.00    -0.222 N 
HETATM   16  H12 UNL     1      20.641   2.047  50.736  1.00  0.00     0.177 HD
BRANCH  15  17
HETATM   17  C5  UNL     1      21.636   1.206  49.050  1.00  0.00     0.140 C 
BRANCH  17  18
HETATM   18  C4  UNL     1      22.329   2.372  48.416  1.00  0.00     0.040 C 
BRANCH  18  19
HETATM   19  C3  UNL     1      21.590   3.634  48.807  1.00  0.00     0.127 C 
BRANCH  19  20
HETATM   20  N1  UNL     1      22.524   4.578  49.374  1.00  0.00    -0.353 N 
HETATM   21  C17 UNL     1      22.464   4.921  50.755  1.00  0.00     0.215 C 
HETATM   22  C18 UNL     1      23.440   5.897  51.313  1.00  0.00     0.117 C 
HETATM   23  O2  UNL     1      21.567   4.378  51.487  1.00  0.00    -0.274 OA
BRANCH  20  24
HETATM   24  C2  UNL     1      23.492   5.127  48.451  1.00  0.00     0.121 C 
HETATM   25  C1  UNL     1      22.838   6.091  47.491  1.00  0.00     0.026 C 
ENDBRANCH  20  24
ENDBRANCH  19  20
ENDBRANCH  18  19
ENDBRANCH  17  18
ENDBRANCH  15  17
ENDBRANCH   1  15
BRANCH   9  26
HETATM   26  C13 UNL     1      29.148   1.457  53.928  1.00  0.00     0.270 C 
HETATM   27  N5  UNL     1      30.116   0.477  53.573  1.00  0.00    -0.365 N 
HETATM   28  H14 UNL     1      29.895  -0.256  52.852  1.00  0.00     0.159 HD
HETATM   29  H15 UNL     1      31.046   0.466  54.010  1.00  0.00     0.159 HD
HETATM   30  O1  UNL     1      29.366   2.206  54.906  1.00  0.00    -0.266 OA
ENDBRANCH   9  26
TORSDOF 7
ENDMDL
MODEL 2
REMARK VINA RESULT:      -7.4      1.639      2.170
REMARK  7 active torsions:
REMARK  status: ('A' for Active; 'I' for Inactive)
REMARK    1  A    between atoms: C2_2  and  N1_3 
REMARK    2  A    between atoms: N1_3  and  C3_4 
REMARK       I    between atoms: N1_3  and  C17_25 
REMARK    3  A    between atoms: C3_4  and  C4_5 
REMARK    4  A    between atoms: C4_5  and  C5_6 
REMARK    5  A    between atoms: C5_6  and  N2_7 
REMARK    6  A    between atoms: N2_7  and  C6_8 
REMARK    7  A    between atoms: C12_16  and  C13_17 
REMARK       I    between atoms: C13_17  and  N5_18 
ROOT
HETATM    1  C6  UNL     1      22.275   0.992  51.343  1.00  0.00     0.722 A 
HETATM    2  N3  UNL     1      21.936   0.048  52.207  1.00  0.00    -0.075 NA
HETATM    3  C7  UNL     1      22.783  -0.452  53.120  1.00  0.00     0.146 A 
HETATM    4  C8  UNL     1      24.083   0.003  53.208  1.00  0.00    -0.008 A 
HETATM    5  C9  UNL     1      24.443   0.974  52.327  1.00  0.00     0.112 A 
HETATM    6  N4  UNL     1      23.542   1.428  51.438  1.00  0.00    -0.060 NA
HETATM    7  C10 UNL     1      25.813   1.476  52.397  1.00  0.00     0.091 A 
HETATM    8  C11 UNL     1      26.668   0.945  53.346  1.00  0.00     0.009 A 
HETATM    9  C12 UNL     1      27.843   1.610  53.156  1.00  0.00     0.153 A 
HETATM   10  N6  UNL     1      27.697   2.489  52.148  1.00  0.00    -0.166 NA
HETATM   11  N7  UNL     1      26.462   2.410  51.684  1.00  0.00    -0.271 N 
HETATM   12  C14 UNL     1      25.861   3.182  50.588  1.00  0.00     0.180 C 
HETATM   13  C15 UNL     1      26.324  -0.095  54.310  1.00  0.00     0.048 A 
HETATM   14  C16 UNL     1      24.931  -0.602  54.235  1.00  0.00     0.047 A 
ENDROOT
BRANCH   1  15
HETATM   15  N2  UNL     1      21.415   1.551  50.362  1.00  0.00    -0.222 N 
HETATM   16  H12 UNL     1      20.803   2.360  50.597  1.00  0.00     0.177 HD
BRANCH  15  17
HETATM   17  C5  UNL     1      21.339   1.044  49.009  1.00  0.00     0.140 C 
BRANCH  17  18
HETATM   18  C4  UNL     1      21.022   2.163  48.066  1.00  0.00     0.040 C 
BRANCH  18  19
HETATM   19  C3  UNL     1      22.319   2.657  47.462  1.00  0.00     0.127 C 
BRANCH  19  20
HETATM   20  N1  UNL     1      22.156   4.028  47.038  1.00  0.00    -0.353 N 
HETATM   21  C17 UNL     1      21.969   4.346  45.662  1.00  0.00     0.215 C 
HETATM   22  C18 UNL     1      21.804   5.768  45.253  1.00  0.00     0.117 C 
HETATM   23  O2  UNL     1      21.949   3.396  44.807  1.00  0.00    -0.274 OA
BRANCH  20  24
HETATM   24  C2  UNL     1      22.198   5.016  48.093  1.00  0.00     0.121 C 
HETATM   25  C1  UNL     1      23.620   5.302  48.509  1.00  0.00     0.026 C 
ENDBRANCH  20  24
ENDBRANCH  19  20
ENDBRANCH  18  19
ENDBRANCH  17  18
ENDBRANCH  15  17
ENDBRANCH   1  15
BRANCH   9  26
HETATM   26  C13 UNL     1      29.075   1.424  53.902  1.00  0.00     0.270 C 
HETATM   27  N5  UNL     1      30.034   0.440  53.539  1.00  0.00    -0.365 N 
HETATM   28  H14 UNL     1      29.811  -0.280  52.804  1.00  0.00     0.159 HD
HETATM   29  H15 UNL     1      30.961   0.410  53.983  1.00  0.00     0.159 HD
HETATM   30  O1  UNL     1      29.294   2.155  54.894  1.00  0.00    -0.266 OA
ENDBRANCH   9  26
TORSDOF 7
ENDMDL
MODEL 3
REMARK VINA RESULT:      -7.4      3.444      5.597
REMARK  7 active torsions:
REMARK  status: ('A' for Active; 'I' for Inactive)
REMARK    1  A    between atoms: C2_2  and  N1_3 
REMARK    2  A    between atoms: N1_3  and  C3_4 
REMARK       I    between atoms: N1_3  and  C17_25 
REMARK    3  A    between atoms: C3_4  and  C4_5 
REMARK    4  A    between atoms: C4_5  and  C5_6 
REMARK    5  A    between atoms: C5_6  and  N2_7 
REMARK    6  A    between atoms: N2_7  and  C6_8 
REMARK    7  A    between atoms: C12_16  and  C13_17 
REMARK       I    between atoms: C13_17  and  N5_18 
ROOT
HETATM    1  C6  UNL     1      25.667   3.461  50.580  1.00  0.00     0.722 A 
HETATM    2  N3  UNL     1      26.760   2.734  50.760  1.00  0.00    -0.075 NA
HETATM    3  C7  UNL     1      26.778   1.602  51.479  1.00  0.00     0.146 A 
HETATM    4  C8  UNL     1      25.633   1.123  52.082  1.00  0.00    -0.008 A 
HETATM    5  C9  UNL     1      24.504   1.860  51.903  1.00  0.00     0.112 A 
HETATM    6  N4  UNL     1      24.558   2.986  51.170  1.00  0.00    -0.060 NA
HETATM    7  C10 UNL     1      23.276   1.378  52.530  1.00  0.00     0.091 A 
HETATM    8  C11 UNL     1      23.320   0.208  53.266  1.00  0.00     0.009 A 
HETATM    9  C12 UNL     1      22.042   0.034  53.707  1.00  0.00     0.153 A 
HETATM   10  N6  UNL     1      21.277   1.046  53.258  1.00  0.00    -0.166 NA
HETATM   11  N7  UNL     1      22.025   1.865  52.541  1.00  0.00    -0.271 N 
HETATM   12  C14 UNL     1      21.611   3.099  51.861  1.00  0.00     0.180 C 
HETATM   13  C15 UNL     1      24.507  -0.614  53.483  1.00  0.00     0.048 A 
HETATM   14  C16 UNL     1      25.752  -0.119  52.845  1.00  0.00     0.047 A 
ENDROOT
BRANCH   1  15
HETATM   15  N2  UNL     1      25.599   4.663  49.829  1.00  0.00    -0.222 N 
HETATM   16  H12 UNL     1      25.875   4.673  48.825  1.00  0.00     0.177 HD
BRANCH  15  17
HETATM   17  C5  UNL     1      25.152   5.916  50.398  1.00  0.00     0.140 C 
BRANCH  17  18
HETATM   18  C4  UNL     1      25.887   7.053  49.759  1.00  0.00     0.040 C 
BRANCH  18  19
HETATM   19  C3  UNL     1      26.294   6.631  48.364  1.00  0.00     0.127 C 
BRANCH  19  20
HETATM   20  N1  UNL     1      27.693   6.925  48.164  1.00  0.00    -0.353 N 
HETATM   21  C17 UNL     1      28.673   5.894  48.245  1.00  0.00     0.215 C 
HETATM   22  C18 UNL     1      30.108   6.227  48.034  1.00  0.00     0.117 C 
HETATM   23  O2  UNL     1      28.292   4.701  48.497  1.00  0.00    -0.274 OA
BRANCH  20  24
HETATM   24  C2  UNL     1      28.005   8.310  47.885  1.00  0.00     0.121 C 
HETATM   25  C1  UNL     1      27.507   8.711  46.518  1.00  0.00     0.026 C 
ENDBRANCH  20  24
ENDBRANCH  19  20
ENDBRANCH  18  19
ENDBRANCH  17  18
ENDBRANCH  15  17
ENDBRANCH   1  15
BRANCH   9  26
HETATM   26  C13 UNL     1      21.549  -1.055  54.531  1.00  0.00     0.270 C 
HETATM   27  N5  UNL     1      20.285  -1.663  54.299  1.00  0.00    -0.365 N 
HETATM   28  H14 UNL     1      19.607  -1.243  53.611  1.00  0.00     0.159 HD
HETATM   29  H15 UNL     1      20.007  -2.521  54.793  1.00  0.00     0.159 HD
HETATM   30  O1  UNL     1      22.262  -1.468  55.473  1.00  0.00    -0.266 OA
ENDBRANCH   9  26
TORSDOF 7
ENDMDL
MODEL 4
REMARK VINA RESULT:      -7.2      4.282      6.328
REMARK  7 active torsions:
REMARK  status: ('A' for Active; 'I' for Inactive)
REMARK    1  A    between atoms: C2_2  and  N1_3 
REMARK    2  A    between atoms: N1_3  and  C3_4 
REMARK       I    between atoms: N1_3  and  C17_25 
REMARK    3  A    between atoms: C3_4  and  C4_5 
REMARK    4  A    between atoms: C4_5  and  C5_6 
REMARK    5  A    between atoms: C5_6  and  N2_7 
REMARK    6  A    between atoms: N2_7  and  C6_8 
REMARK    7  A    between atoms: C12_16  and  C13_17 
REMARK       I    between atoms: C13_17  and  N5_18 
ROOT
HETATM    1  C6  UNL     1      20.470   0.397  51.847  1.00  0.00     0.722 A 
HETATM    2  N3  UNL     1      20.817   1.244  50.890  1.00  0.00    -0.075 NA
HETATM    3  C7  UNL     1      22.071   1.692  50.724  1.00  0.00     0.146 A 
HETATM    4  C8  UNL     1      23.089   1.284  51.561  1.00  0.00    -0.008 A 
HETATM    5  C9  UNL     1      22.746   0.413  52.548  1.00  0.00     0.112 A 
HETATM    6  N4  UNL     1      21.469   0.006  52.656  1.00  0.00    -0.060 NA
HETATM    7  C10 UNL     1      23.803  -0.037  53.449  1.00  0.00     0.091 A 
HETATM    8  C11 UNL     1      25.087   0.439  53.259  1.00  0.00     0.009 A 
HETATM    9  C12 UNL     1      25.821  -0.158  54.241  1.00  0.00     0.153 A 
HETATM   10  N6  UNL     1      25.017  -0.946  54.978  1.00  0.00    -0.166 NA
HETATM   11  N7  UNL     1      23.789  -0.875  54.499  1.00  0.00    -0.271 N 
HETATM   12  C14 UNL     1      22.590  -1.567  54.990  1.00  0.00     0.180 C 
HETATM   13  C15 UNL     1      25.500   1.372  52.215  1.00  0.00     0.048 A 
HETATM   14  C16 UNL     1      24.422   1.826  51.301  1.00  0.00     0.047 A 
ENDROOT
BRANCH   1  15
HETATM   15  N2  UNL     1      19.160  -0.104  52.061  1.00  0.00    -0.222 N 
HETATM   16  H12 UNL     1      19.005  -0.923  52.685  1.00  0.00     0.177 HD
BRANCH  15  17
HETATM   17  C5  UNL     1      17.989   0.478  51.442  1.00  0.00     0.140 C 
BRANCH  17  18
HETATM   18  C4  UNL     1      16.944  -0.576  51.244  1.00  0.00     0.040 C 
BRANCH  18  19
HETATM   19  C3  UNL     1      16.345  -0.908  52.593  1.00  0.00     0.127 C 
BRANCH  19  20
HETATM   20  N1  UNL     1      16.213  -2.341  52.718  1.00  0.00    -0.353 N 
HETATM   21  C17 UNL     1      17.210  -3.108  53.385  1.00  0.00     0.215 C 
HETATM   22  C18 UNL     1      17.048  -4.583  53.499  1.00  0.00     0.117 C 
HETATM   23  O2  UNL     1      18.227  -2.506  53.872  1.00  0.00    -0.274 OA
BRANCH  20  24
HETATM   24  C2  UNL     1      15.022  -2.910  52.128  1.00  0.00     0.121 C 
HETATM   25  C1  UNL     1      13.794  -2.128  52.526  1.00  0.00     0.026 C 
ENDBRANCH  20  24
ENDBRANCH  19  20
ENDBRANCH  18  19
ENDBRANCH  17  18
ENDBRANCH  15  17
ENDBRANCH   1  15
BRANCH   9  26
HETATM   26  C13 UNL     1      27.243   0.009  54.483  1.00  0.00     0.270 C 
HETATM   27  N5  UNL     1      28.197  -0.959  54.063  1.00  0.00    -0.365 N 
HETATM   28  H14 UNL     1      27.884  -1.893  53.692  1.00  0.00     0.159 HD
HETATM   29  H15 UNL     1      29.206  -0.768  54.112  1.00  0.00     0.159 HD
HETATM   30  O1  UNL     1      27.637   1.036  55.079  1.00  0.00    -0.266 OA
ENDBRANCH   9  26
TORSDOF 7
ENDMDL
MODEL 5
REMARK VINA RESULT:      -7.2      2.170      4.739
REMARK  7 active torsions:
REMARK  status: ('A' for Active; 'I' for Inactive)
REMARK    1  A    between atoms: C2_2  and  N1_3 
REMARK    2  A    between atoms: N1_3  and  C3_4 
REMARK       I    between atoms: N1_3  and  C17_25 
REMARK    3  A    between atoms: C3_4  and  C4_5 
REMARK    4  A    between atoms: C4_5  and  C5_6 
REMARK    5  A    between atoms: C5_6  and  N2_7 
REMARK    6  A    between atoms: N2_7  and  C6_8 
REMARK    7  A    between atoms: C12_16  and  C13_17 
REMARK       I    between atoms: C13_17  and  N5_18 
ROOT
HETATM    1  C6  UNL     1      26.561   2.813  51.355  1.00  0.00     0.722 A 
HETATM    2  N3  UNL     1      27.536   2.246  52.049  1.00  0.00    -0.075 NA
HETATM    3  C7  UNL     1      27.329   1.263  52.939  1.00  0.00     0.146 A 
HETATM    4  C8  UNL     1      26.060   0.781  53.183  1.00  0.00    -0.008 A 
HETATM    5  C9  UNL     1      25.050   1.354  52.476  1.00  0.00     0.112 A 
HETATM    6  N4  UNL     1      25.330   2.335  51.600  1.00  0.00    -0.060 NA
HETATM    7  C10 UNL     1      23.696   0.863  52.713  1.00  0.00     0.091 A 
HETATM    8  C11 UNL     1      23.507  -0.151  53.635  1.00  0.00     0.009 A 
HETATM    9  C12 UNL     1      22.163  -0.377  53.624  1.00  0.00     0.153 A 
HETATM   10  N6  UNL     1      21.581   0.457  52.743  1.00  0.00    -0.166 NA
HETATM   11  N7  UNL     1      22.510   1.213  52.187  1.00  0.00    -0.271 N 
HETATM   12  C14 UNL     1      22.332   2.260  51.173  1.00  0.00     0.180 C 
HETATM   13  C15 UNL     1      24.560  -0.795  54.415  1.00  0.00     0.048 A 
HETATM   14  C16 UNL     1      25.935  -0.292  54.170  1.00  0.00     0.047 A 
ENDROOT
BRANCH   1  15
HETATM   15  N2  UNL     1      26.730   3.853  50.405  1.00  0.00    -0.222 N 
HETATM   16  H12 UNL     1      27.606   4.417  50.391  1.00  0.00     0.177 HD
BRANCH  15  17
HETATM   17  C5  UNL     1      25.722   4.186  49.421  1.00  0.00     0.140 C 
BRANCH  17  18
HETATM   18  C4  UNL     1      25.868   5.618  49.012  1.00  0.00     0.040 C 
BRANCH  18  19
HETATM   19  C3  UNL     1      25.393   6.489  50.155  1.00  0.00     0.127 C 
BRANCH  19  20
HETATM   20  N1  UNL     1      23.952   6.578  50.121  1.00  0.00    -0.353 N 
HETATM   21  C17 UNL     1      23.162   5.990  51.149  1.00  0.00     0.215 C 
HETATM   22  C18 UNL     1      21.678   6.098  51.089  1.00  0.00     0.117 C 
HETATM   23  O2  UNL     1      23.750   5.380  52.106  1.00  0.00    -0.274 OA
BRANCH  20  24
HETATM   24  C2  UNL     1      23.398   7.292  48.991  1.00  0.00     0.121 C 
HETATM   25  C1  UNL     1      23.795   8.748  49.024  1.00  0.00     0.026 C 
ENDBRANCH  20  24
ENDBRANCH  19  20
ENDBRANCH  18  19
ENDBRANCH  17  18
ENDBRANCH  15  17
ENDBRANCH   1  15
BRANCH   9  26
HETATM   26  C13 UNL     1      21.441  -1.352  54.422  1.00  0.00     0.270 C 
HETATM   27  N5  UNL     1      20.074  -1.661  54.178  1.00  0.00    -0.365 N 
HETATM   28  H14 UNL     1      19.507  -1.084  53.504  1.00  0.00     0.159 HD
HETATM   29  H15 UNL     1      19.614  -2.449  54.651  1.00  0.00     0.159 HD
HETATM   30  O1  UNL     1      22.043  -1.936  55.350  1.00  0.00    -0.266 OA
ENDBRANCH   9  26
TORSDOF 7
ENDMDL
MODEL 6
REMARK VINA RESULT:      -7.1      2.937      4.188
REMARK  7 active torsions:
REMARK  status: ('A' for Active; 'I' for Inactive)
REMARK    1  A    between atoms: C2_2  and  N1_3 
REMARK    2  A    between atoms: N1_3  and  C3_4 
REMARK       I    between atoms: N1_3  and  C17_25 
REMARK    3  A    between atoms: C3_4  and  C4_5 
REMARK    4  A    between atoms: C4_5  and  C5_6 
REMARK    5  A    between atoms: C5_6  and  N2_7 
REMARK    6  A    between atoms: N2_7  and  C6_8 
REMARK    7  A    between atoms: C12_16  and  C13_17 
REMARK       I    between atoms: C13_17  and  N5_18 
ROOT
HETATM    1  C6  UNL     1      22.126   0.387  52.334  1.00  0.00     0.722 A 
HETATM    2  N3  UNL     1      22.240   1.223  51.313  1.00  0.00    -0.075 NA
HETATM    3  C7  UNL     1      23.396   1.813  50.973  1.00  0.00     0.146 A 
HETATM    4  C8  UNL     1      24.553   1.575  51.686  1.00  0.00    -0.008 A 
HETATM    5  C9  UNL     1      24.449   0.719  52.736  1.00  0.00     0.112 A 
HETATM    6  N4  UNL     1      23.258   0.162  53.021  1.00  0.00    -0.060 NA
HETATM    7  C10 UNL     1      25.658   0.447  53.509  1.00  0.00     0.091 A 
HETATM    8  C11 UNL     1      26.838   1.067  53.139  1.00  0.00     0.009 A 
HETATM    9  C12 UNL     1      27.757   0.615  54.038  1.00  0.00     0.153 A 
HETATM   10  N6  UNL     1      27.159  -0.229  54.897  1.00  0.00    -0.166 NA
HETATM   11  N7  UNL     1      25.881  -0.334  54.578  1.00  0.00    -0.271 N 
HETATM   12  C14 UNL     1      24.851  -1.144  55.242  1.00  0.00     0.180 C 
HETATM   13  C15 UNL     1      26.995   1.992  52.021  1.00  0.00     0.048 A 
HETATM   14  C16 UNL     1      25.763   2.265  51.239  1.00  0.00     0.047 A 
ENDROOT
BRANCH   1  15
HETATM   15  N2  UNL     1      20.927  -0.260  52.732  1.00  0.00    -0.222 N 
HETATM   16  H12 UNL     1      20.915  -1.288  52.901  1.00  0.00     0.177 HD
BRANCH  15  17
HETATM   17  C5  UNL     1      19.681   0.449  52.922  1.00  0.00     0.140 C 
BRANCH  17  18
HETATM   18  C4  UNL     1      18.718   0.082  51.835  1.00  0.00     0.040 C 
BRANCH  18  19
HETATM   19  C3  UNL     1      18.718   1.194  50.808  1.00  0.00     0.127 C 
BRANCH  19  20
HETATM   20  N1  UNL     1      17.547   2.018  50.997  1.00  0.00    -0.353 N 
HETATM   21  C17 UNL     1      17.654   3.310  51.585  1.00  0.00     0.215 C 
HETATM   22  C18 UNL     1      16.430   4.138  51.767  1.00  0.00     0.117 C 
HETATM   23  O2  UNL     1      18.806   3.730  51.945  1.00  0.00    -0.274 OA
BRANCH  20  24
HETATM   24  C2  UNL     1      16.299   1.438  50.552  1.00  0.00     0.121 C 
HETATM   25  C1  UNL     1      16.156   1.544  49.053  1.00  0.00     0.026 C 
ENDBRANCH  20  24
ENDBRANCH  19  20
ENDBRANCH  18  19
ENDBRANCH  17  18
ENDBRANCH  15  17
ENDBRANCH   1  15
BRANCH   9  26
HETATM   26  C13 UNL     1      29.165   0.967  54.090  1.00  0.00     0.270 C 
HETATM   27  N5  UNL     1      29.611   2.216  54.602  1.00  0.00    -0.365 N 
HETATM   28  H14 UNL     1      28.921   2.980  54.826  1.00  0.00     0.159 HD
HETATM   29  H15 UNL     1      30.609   2.399  54.765  1.00  0.00     0.159 HD
HETATM   30  O1  UNL     1      30.008   0.144  53.669  1.00  0.00    -0.266 OA
ENDBRANCH   9  26
TORSDOF 7
ENDMDL
MODEL 7
REMARK VINA RESULT:      -7.1      1.886      2.189
REMARK  7 active torsions:
REMARK  status: ('A' for Active; 'I' for Inactive)
REMARK    1  A    between atoms: C2_2  and  N1_3 
REMARK    2  A    between atoms: N1_3  and  C3_4 
REMARK       I    between atoms: N1_3  and  C17_25 
REMARK    3  A    between atoms: C3_4  and  C4_5 
REMARK    4  A    between atoms: C4_5  and  C5_6 
REMARK    5  A    between atoms: C5_6  and  N2_7 
REMARK    6  A    between atoms: N2_7  and  C6_8 
REMARK    7  A    between atoms: C12_16  and  C13_17 
REMARK       I    between atoms: C13_17  and  N5_18 
ROOT
HETATM    1  C6  UNL     1      22.351   1.143  51.211  1.00  0.00     0.722 A 
HETATM    2  N3  UNL     1      21.919   0.229  52.065  1.00  0.00    -0.075 NA
HETATM    3  C7  UNL     1      22.697  -0.315  53.014  1.00  0.00     0.146 A 
HETATM    4  C8  UNL     1      24.018   0.059  53.152  1.00  0.00    -0.008 A 
HETATM    5  C9  UNL     1      24.473   0.998  52.281  1.00  0.00     0.112 A 
HETATM    6  N4  UNL     1      23.638   1.501  51.354  1.00  0.00    -0.060 NA
HETATM    7  C10 UNL     1      25.867   1.414  52.403  1.00  0.00     0.091 A 
HETATM    8  C11 UNL     1      26.649   0.839  53.388  1.00  0.00     0.009 A 
HETATM    9  C12 UNL     1      27.870   1.427  53.242  1.00  0.00     0.153 A 
HETATM   10  N6  UNL     1      27.819   2.306  52.224  1.00  0.00    -0.166 NA
HETATM   11  N7  UNL     1      26.602   2.301  51.712  1.00  0.00    -0.271 N 
HETATM   12  C14 UNL     1      26.095   3.099  50.588  1.00  0.00     0.180 C 
HETATM   13  C15 UNL     1      26.203  -0.171  54.344  1.00  0.00     0.048 A 
HETATM   14  C16 UNL     1      24.785  -0.590  54.215  1.00  0.00     0.047 A 
ENDROOT
BRANCH   1  15
HETATM   15  N2  UNL     1      21.568   1.747  50.193  1.00  0.00    -0.222 N 
HETATM   16  H12 UNL     1      20.534   1.621  50.179  1.00  0.00     0.177 HD
BRANCH  15  17
HETATM   17  C5  UNL     1      22.143   2.555  49.139  1.00  0.00     0.140 C 
BRANCH  17  18
HETATM   18  C4  UNL     1      21.239   3.709  48.834  1.00  0.00     0.040 C 
BRANCH  18  19
HETATM   19  C3  UNL     1      20.930   4.425  50.131  1.00  0.00     0.127 C 
BRANCH  19  20
HETATM   20  N1  UNL     1      19.499   4.534  50.288  1.00  0.00    -0.353 N 
HETATM   21  C17 UNL     1      18.826   3.842  51.336  1.00  0.00     0.215 C 
HETATM   22  C18 UNL     1      17.350   3.974  51.474  1.00  0.00     0.117 C 
HETATM   23  O2  UNL     1      19.512   3.121  52.138  1.00  0.00    -0.274 OA
BRANCH  20  24
HETATM   24  C2  UNL     1      18.829   5.377  49.322  1.00  0.00     0.121 C 
HETATM   25  C1  UNL     1      19.389   6.778  49.347  1.00  0.00     0.026 C 
ENDBRANCH  20  24
ENDBRANCH  19  20
ENDBRANCH  18  19
ENDBRANCH  17  18
ENDBRANCH  15  17
ENDBRANCH   1  15
BRANCH   9  26
HETATM   26  C13 UNL     1      29.057   1.171  54.038  1.00  0.00     0.270 C 
HETATM   27  N5  UNL     1      29.702   2.198  54.781  1.00  0.00    -0.365 N 
HETATM   28  H14 UNL     1      29.420   3.205  54.659  1.00  0.00     0.159 HD
HETATM   29  H15 UNL     1      30.452   1.981  55.449  1.00  0.00     0.159 HD
HETATM   30  O1  UNL     1      29.524   0.011  54.068  1.00  0.00    -0.266 OA
ENDBRANCH   9  26
TORSDOF 7
ENDMDL
MODEL 8
REMARK VINA RESULT:      -6.9      2.419      3.357
REMARK  7 active torsions:
REMARK  status: ('A' for Active; 'I' for Inactive)
REMARK    1  A    between atoms: C2_2  and  N1_3 
REMARK    2  A    between atoms: N1_3  and  C3_4 
REMARK       I    between atoms: N1_3  and  C17_25 
REMARK    3  A    between atoms: C3_4  and  C4_5 
REMARK    4  A    between atoms: C4_5  and  C5_6 
REMARK    5  A    between atoms: C5_6  and  N2_7 
REMARK    6  A    between atoms: N2_7  and  C6_8 
REMARK    7  A    between atoms: C12_16  and  C13_17 
REMARK       I    between atoms: C13_17  and  N5_18 
ROOT
HETATM    1  C6  UNL     1      22.299   1.108  51.664  1.00  0.00     0.722 A 
HETATM    2  N3  UNL     1      21.964   0.174  52.539  1.00  0.00    -0.075 NA
HETATM    3  C7  UNL     1      22.830  -0.356  53.417  1.00  0.00     0.146 A 
HETATM    4  C8  UNL     1      24.147   0.056  53.453  1.00  0.00    -0.008 A 
HETATM    5  C9  UNL     1      24.503   1.017  52.559  1.00  0.00     0.112 A 
HETATM    6  N4  UNL     1      23.582   1.503  51.708  1.00  0.00    -0.060 NA
HETATM    7  C10 UNL     1      25.890   1.473  52.575  1.00  0.00     0.091 A 
HETATM    8  C11 UNL     1      26.765   0.913  53.488  1.00  0.00     0.009 A 
HETATM    9  C12 UNL     1      27.953   1.539  53.251  1.00  0.00     0.153 A 
HETATM   10  N6  UNL     1      27.795   2.425  52.251  1.00  0.00    -0.166 NA
HETATM   11  N7  UNL     1      26.541   2.388  51.837  1.00  0.00    -0.271 N 
HETATM   12  C14 UNL     1      25.922   3.181  50.768  1.00  0.00     0.180 C 
HETATM   13  C15 UNL     1      26.426  -0.119  54.464  1.00  0.00     0.048 A 
HETATM   14  C16 UNL     1      25.015  -0.579  54.444  1.00  0.00     0.047 A 
ENDROOT
BRANCH   1  15
HETATM   15  N2  UNL     1      21.420   1.698  50.719  1.00  0.00    -0.222 N 
HETATM   16  H12 UNL     1      21.125   2.691  50.821  1.00  0.00     0.177 HD
BRANCH  15  17
HETATM   17  C5  UNL     1      20.891   0.972  49.583  1.00  0.00     0.140 C 
BRANCH  17  18
HETATM   18  C4  UNL     1      19.457   1.344  49.368  1.00  0.00     0.040 C 
BRANCH  18  19
HETATM   19  C3  UNL     1      18.654   0.839  50.547  1.00  0.00     0.127 C 
BRANCH  19  20
HETATM   20  N1  UNL     1      17.584   1.768  50.828  1.00  0.00    -0.353 N 
HETATM   21  C17 UNL     1      17.819   2.932  51.614  1.00  0.00     0.215 C 
HETATM   22  C18 UNL     1      16.697   3.872  51.887  1.00  0.00     0.117 C 
HETATM   23  O2  UNL     1      18.995   3.143  52.067  1.00  0.00    -0.274 OA
BRANCH  20  24
HETATM   24  C2  UNL     1      16.297   1.425  50.264  1.00  0.00     0.121 C 
HETATM   25  C1  UNL     1      16.286  -0.002  49.772  1.00  0.00     0.026 C 
ENDBRANCH  20  24
ENDBRANCH  19  20
ENDBRANCH  18  19
ENDBRANCH  17  18
ENDBRANCH  15  17
ENDBRANCH   1  15
BRANCH   9  26
HETATM   26  C13 UNL     1      29.207   1.311  53.947  1.00  0.00     0.270 C 
HETATM   27  N5  UNL     1      30.126   0.308  53.534  1.00  0.00    -0.365 N 
HETATM   28  H14 UNL     1      29.856  -0.395  52.798  1.00  0.00     0.159 HD
HETATM   29  H15 UNL     1      31.068   0.248  53.942  1.00  0.00     0.159 HD
HETATM   30  O1  UNL     1      29.482   2.021  54.940  1.00  0.00    -0.266 OA
ENDBRANCH   9  26
TORSDOF 7
ENDMDL
MODEL 9
REMARK VINA RESULT:      -6.8      3.259      6.295
REMARK  7 active torsions:
REMARK  status: ('A' for Active; 'I' for Inactive)
REMARK    1  A    between atoms: C2_2  and  N1_3 
REMARK    2  A    between atoms: N1_3  and  C3_4 
REMARK       I    between atoms: N1_3  and  C17_25 
REMARK    3  A    between atoms: C3_4  and  C4_5 
REMARK    4  A    between atoms: C4_5  and  C5_6 
REMARK    5  A    between atoms: C5_6  and  N2_7 
REMARK    6  A    between atoms: N2_7  and  C6_8 
REMARK    7  A    between atoms: C12_16  and  C13_17 
REMARK       I    between atoms: C13_17  and  N5_18 
ROOT
HETATM    1  C6  UNL     1      24.002   1.770  51.450  1.00  0.00     0.722 A 
HETATM    2  N3  UNL     1      24.672   1.130  52.395  1.00  0.00    -0.075 NA
HETATM    3  C7  UNL     1      24.094   0.279  53.258  1.00  0.00     0.146 A 
HETATM    4  C8  UNL     1      22.740   0.023  53.203  1.00  0.00    -0.008 A 
HETATM    5  C9  UNL     1      22.041   0.673  52.236  1.00  0.00     0.112 A 
HETATM    6  N4  UNL     1      22.684   1.512  51.406  1.00  0.00    -0.060 NA
HETATM    7  C10 UNL     1      20.605   0.421  52.154  1.00  0.00     0.091 A 
HETATM    8  C11 UNL     1      20.031  -0.459  53.054  1.00  0.00     0.009 A 
HETATM    9  C12 UNL     1      18.710  -0.477  52.719  1.00  0.00     0.153 A 
HETATM   10  N6  UNL     1      18.506   0.348  51.676  1.00  0.00    -0.166 NA
HETATM   11  N7  UNL     1      19.656   0.896  51.329  1.00  0.00    -0.271 N 
HETATM   12  C14 UNL     1      19.907   1.857  50.247  1.00  0.00     0.180 C 
HETATM   13  C15 UNL     1      20.742  -1.180  54.106  1.00  0.00     0.048 A 
HETATM   14  C16 UNL     1      22.201  -0.919  54.185  1.00  0.00     0.047 A 
ENDROOT
BRANCH   1  15
HETATM   15  N2  UNL     1      24.568   2.677  50.517  1.00  0.00    -0.222 N 
HETATM   16  H12 UNL     1      25.495   3.114  50.702  1.00  0.00     0.177 HD
BRANCH  15  17
HETATM   17  C5  UNL     1      23.909   3.040  49.281  1.00  0.00     0.140 C 
BRANCH  17  18
HETATM   18  C4  UNL     1      24.039   4.514  49.052  1.00  0.00     0.040 C 
BRANCH  18  19
HETATM   19  C3  UNL     1      25.042   5.061  50.044  1.00  0.00     0.127 C 
BRANCH  19  20
HETATM   20  N1  UNL     1      26.103   5.732  49.330  1.00  0.00    -0.353 N 
HETATM   21  C17 UNL     1      27.269   5.021  48.923  1.00  0.00     0.215 C 
HETATM   22  C18 UNL     1      28.346   5.737  48.188  1.00  0.00     0.117 C 
HETATM   23  O2  UNL     1      27.361   3.777  49.202  1.00  0.00    -0.274 OA
BRANCH  20  24
HETATM   24  C2  UNL     1      25.889   7.138  49.072  1.00  0.00     0.121 C 
HETATM   25  C1  UNL     1      26.032   7.948  50.338  1.00  0.00     0.026 C 
ENDBRANCH  20  24
ENDBRANCH  19  20
ENDBRANCH  18  19
ENDBRANCH  17  18
ENDBRANCH  15  17
ENDBRANCH   1  15
BRANCH   9  26
HETATM   26  C13 UNL     1      17.662  -1.250  53.363  1.00  0.00     0.270 C 
HETATM   27  N5  UNL     1      17.935  -2.471  54.039  1.00  0.00    -0.365 N 
HETATM   28  H14 UNL     1      18.883  -2.922  53.968  1.00  0.00     0.159 HD
HETATM   29  H15 UNL     1      17.216  -2.935  54.609  1.00  0.00     0.159 HD
HETATM   30  O1  UNL     1      16.486  -0.825  53.319  1.00  0.00    -0.266 OA
ENDBRANCH   9  26
TORSDOF 7
ENDMDL
