MODEL 1
REMARK VINA RESULT:      -8.3      0.000      0.000
REMARK  5 active torsions:
REMARK  status: ('A' for Active; 'I' for Inactive)
REMARK    1  A    between atoms: C1_2  and  C2_3 
REMARK    2  A    between atoms: C1_2  and  C11_16 
REMARK    3  A    between atoms: C3_4  and  C4_5 
REMARK    4  A    between atoms: C9_11  and  N2_12 
REMARK    5  A    between atoms: N2_12  and  C10_13 
ROOT
HETATM    1  C4  UNL     1      27.015  -0.422  53.443  1.00  0.00     0.029 A 
HETATM    2  C5  UNL     1      27.822  -1.525  53.197  1.00  0.00     0.128 A 
HETATM    3  F1  UNL     1      27.252  -2.725  52.949  1.00  0.00    -0.205 F 
HETATM    4  C6  UNL     1      29.195  -1.442  53.195  1.00  0.00     0.043 A 
HETATM    5  C7  UNL     1      29.874  -0.276  53.432  1.00  0.00     0.005 A 
HETATM    6  C8  UNL     1      29.101   0.825  53.676  1.00  0.00     0.030 A 
HETATM    7  C9  UNL     1      27.730   0.720  53.673  1.00  0.00     0.047 A 
ENDROOT
BRANCH   1   8
HETATM    8  C3  UNL     1      25.580  -0.657  53.416  1.00  0.00     0.019 C 
HETATM    9  C2  UNL     1      25.129  -0.680  54.645  1.00  0.00     0.033 C 
BRANCH   9  10
HETATM   10  C1  UNL     1      23.667  -0.916  54.734  1.00  0.00     0.058 C 
HETATM   11  N1  UNL     1      23.778  -1.608  55.794  1.00  0.00    -0.300 NA
HETATM   12  H1  UNL     1      23.064  -2.063  56.349  1.00  0.00     0.187 HD
BRANCH  10  13
HETATM   13  C11 UNL     1      22.327  -0.720  54.203  1.00  0.00    -0.008 A 
HETATM   14  C12 UNL     1      21.364  -1.659  54.389  1.00  0.00     0.014 A 
HETATM   15  C13 UNL     1      20.187  -1.259  53.805  1.00  0.00     0.001 A 
HETATM   16  C14 UNL     1      19.958  -0.096  53.121  1.00  0.00     0.000 A 
HETATM   17  C15 UNL     1      20.983   0.808  52.972  1.00  0.00     0.001 A 
HETATM   18  C16 UNL     1      22.196   0.477  53.534  1.00  0.00     0.014 A 
ENDBRANCH  10  13
ENDBRANCH   9  10
ENDBRANCH   1   8
BRANCH   7  19
HETATM   19  N2  UNL     1      27.022   1.918  53.891  1.00  0.00    -0.328 N 
HETATM   20  H7  UNL     1      26.580   2.775  54.237  1.00  0.00     0.168 HD
BRANCH  19  21
HETATM   21  C10 UNL     1      26.312   2.395  52.762  1.00  0.00     0.282 A 
HETATM   22  N3  UNL     1      26.898   2.954  51.582  1.00  0.00     0.037 N 
HETATM   23  H8  UNL     1      27.776   3.509  51.436  1.00  0.00     0.302 HD
HETATM   24  H9  UNL     1      27.620   3.483  51.030  1.00  0.00     0.302 HD
HETATM   25  S1  UNL     1      25.041   2.772  51.802  1.00  0.00     0.141 SA
ENDBRANCH  19  21
ENDBRANCH   7  19
TORSDOF 5
ENDMDL
MODEL 2
REMARK VINA RESULT:      -8.1      3.224      6.735
REMARK  5 active torsions:
REMARK  status: ('A' for Active; 'I' for Inactive)
REMARK    1  A    between atoms: C1_2  and  C2_3 
REMARK    2  A    between atoms: C1_2  and  C11_16 
REMARK    3  A    between atoms: C3_4  and  C4_5 
REMARK    4  A    between atoms: C9_11  and  N2_12 
REMARK    5  A    between atoms: N2_12  and  C10_13 
ROOT
HETATM    1  C4  UNL     1      23.244   3.168  52.467  1.00  0.00     0.029 A 
HETATM    2  C5  UNL     1      22.238   2.252  52.192  1.00  0.00     0.128 A 
HETATM    3  F1  UNL     1      22.493   0.929  52.299  1.00  0.00    -0.205 F 
HETATM    4  C6  UNL     1      20.975   2.644  51.813  1.00  0.00     0.043 A 
HETATM    5  C7  UNL     1      20.608   3.956  51.677  1.00  0.00     0.005 A 
HETATM    6  C8  UNL     1      21.583   4.878  51.942  1.00  0.00     0.030 A 
HETATM    7  C9  UNL     1      22.839   4.464  52.320  1.00  0.00     0.047 A 
ENDROOT
BRANCH   1   8
HETATM    8  C3  UNL     1      24.531   2.611  52.854  1.00  0.00     0.019 C 
HETATM    9  C2  UNL     1      25.290   2.511  51.791  1.00  0.00     0.033 C 
BRANCH   9  10
HETATM   10  C1  UNL     1      26.634   1.950  52.074  1.00  0.00     0.058 C 
HETATM   11  N1  UNL     1      27.228   2.927  51.521  1.00  0.00    -0.300 NA
HETATM   12  H1  UNL     1      28.219   3.100  51.405  1.00  0.00     0.187 HD
BRANCH  10  13
HETATM   13  C11 UNL     1      27.463   0.899  52.643  1.00  0.00    -0.008 A 
HETATM   14  C12 UNL     1      27.114  -0.406  52.511  1.00  0.00     0.014 A 
HETATM   15  C13 UNL     1      28.041  -1.214  53.124  1.00  0.00     0.001 A 
HETATM   16  C14 UNL     1      29.172  -0.818  53.786  1.00  0.00     0.000 A 
HETATM   17  C15 UNL     1      29.460   0.524  53.879  1.00  0.00     0.001 A 
HETATM   18  C16 UNL     1      28.574   1.397  53.288  1.00  0.00     0.014 A 
ENDBRANCH  10  13
ENDBRANCH   9  10
ENDBRANCH   1   8
BRANCH   7  19
HETATM   19  N2  UNL     1      23.759   5.489  52.614  1.00  0.00    -0.328 N 
HETATM   20  H7  UNL     1      24.417   6.165  53.016  1.00  0.00     0.168 HD
BRANCH  19  21
HETATM   21  C10 UNL     1      24.125   6.288  51.502  1.00  0.00     0.282 A 
HETATM   22  N3  UNL     1      24.099   7.719  51.458  1.00  0.00     0.037 N 
HETATM   23  H8  UNL     1      23.479   8.419  51.933  1.00  0.00     0.302 HD
HETATM   24  H9  UNL     1      23.745   8.678  51.705  1.00  0.00     0.302 HD
HETATM   25  S1  UNL     1      24.637   6.670  49.996  1.00  0.00     0.141 SA
ENDBRANCH  19  21
ENDBRANCH   7  19
TORSDOF 5
ENDMDL
MODEL 3
REMARK VINA RESULT:      -8.1      3.808      6.715
REMARK  5 active torsions:
REMARK  status: ('A' for Active; 'I' for Inactive)
REMARK    1  A    between atoms: C1_2  and  C2_3 
REMARK    2  A    between atoms: C1_2  and  C11_16 
REMARK    3  A    between atoms: C3_4  and  C4_5 
REMARK    4  A    between atoms: C9_11  and  N2_12 
REMARK    5  A    between atoms: N2_12  and  C10_13 
ROOT
HETATM    1  C4  UNL     1      25.060   1.720  52.761  1.00  0.00     0.029 A 
HETATM    2  C5  UNL     1      24.070   0.753  52.655  1.00  0.00     0.128 A 
HETATM    3  F1  UNL     1      23.077   0.911  51.751  1.00  0.00    -0.205 F 
HETATM    4  C6  UNL     1      24.061  -0.375  53.443  1.00  0.00     0.043 A 
HETATM    5  C7  UNL     1      25.018  -0.636  54.387  1.00  0.00     0.005 A 
HETATM    6  C8  UNL     1      26.005   0.303  54.510  1.00  0.00     0.030 A 
HETATM    7  C9  UNL     1      25.995   1.423  53.712  1.00  0.00     0.047 A 
ENDROOT
BRANCH   1   8
HETATM    8  C3  UNL     1      24.942   2.861  51.866  1.00  0.00     0.019 C 
HETATM    9  C2  UNL     1      25.733   2.680  50.838  1.00  0.00     0.033 C 
BRANCH   9  10
HETATM   10  C1  UNL     1      25.691   3.792  49.857  1.00  0.00     0.058 C 
HETATM   11  N1  UNL     1      24.464   3.598  49.593  1.00  0.00    -0.300 NA
HETATM   12  H1  UNL     1      23.854   4.090  48.951  1.00  0.00     0.187 HD
BRANCH  10  13
HETATM   13  C11 UNL     1      26.362   4.876  49.156  1.00  0.00    -0.008 A 
HETATM   14  C12 UNL     1      27.685   4.795  48.860  1.00  0.00     0.014 A 
HETATM   15  C13 UNL     1      28.096   5.927  48.199  1.00  0.00     0.001 A 
HETATM   16  C14 UNL     1      27.332   7.011  47.862  1.00  0.00     0.000 A 
HETATM   17  C15 UNL     1      25.998   7.021  48.197  1.00  0.00     0.001 A 
HETATM   18  C16 UNL     1      25.510   5.918  48.861  1.00  0.00     0.014 A 
ENDBRANCH  10  13
ENDBRANCH   9  10
ENDBRANCH   1   8
BRANCH   7  19
HETATM   19  N2  UNL     1      27.078   2.307  53.883  1.00  0.00    -0.328 N 
HETATM   20  H7  UNL     1      27.723   3.093  54.008  1.00  0.00     0.168 HD
BRANCH  19  21
HETATM   21  C10 UNL     1      28.349   1.681  53.914  1.00  0.00     0.282 A 
HETATM   22  N3  UNL     1      29.537   2.233  54.491  1.00  0.00     0.037 N 
HETATM   23  H8  UNL     1      29.869   3.224  54.588  1.00  0.00     0.302 HD
HETATM   24  H9  UNL     1      30.194   3.003  54.776  1.00  0.00     0.302 HD
HETATM   25  S1  UNL     1      29.501   0.546  53.667  1.00  0.00     0.141 SA
ENDBRANCH  19  21
ENDBRANCH   7  19
TORSDOF 5
ENDMDL
MODEL 4
REMARK VINA RESULT:      -7.9      2.839      6.822
REMARK  5 active torsions:
REMARK  status: ('A' for Active; 'I' for Inactive)
REMARK    1  A    between atoms: C1_2  and  C2_3 
REMARK    2  A    between atoms: C1_2  and  C11_16 
REMARK    3  A    between atoms: C3_4  and  C4_5 
REMARK    4  A    between atoms: C9_11  and  N2_12 
REMARK    5  A    between atoms: N2_12  and  C10_13 
ROOT
HETATM    1  C4  UNL     1      23.182   2.165  52.315  1.00  0.00     0.029 A 
HETATM    2  C5  UNL     1      23.012   3.540  52.222  1.00  0.00     0.128 A 
HETATM    3  F1  UNL     1      24.096   4.339  52.107  1.00  0.00    -0.205 F 
HETATM    4  C6  UNL     1      21.768   4.127  52.239  1.00  0.00     0.043 A 
HETATM    5  C7  UNL     1      20.605   3.413  52.349  1.00  0.00     0.005 A 
HETATM    6  C8  UNL     1      20.746   2.055  52.442  1.00  0.00     0.030 A 
HETATM    7  C9  UNL     1      21.999   1.489  52.423  1.00  0.00     0.047 A 
ENDROOT
BRANCH   1   8
HETATM    8  C3  UNL     1      24.554   1.684  52.286  1.00  0.00     0.019 C 
HETATM    9  C2  UNL     1      25.085   1.837  53.473  1.00  0.00     0.033 C 
BRANCH   9  10
HETATM   10  C1  UNL     1      26.493   1.376  53.556  1.00  0.00     0.058 C 
HETATM   11  N1  UNL     1      26.916   2.526  53.892  1.00  0.00    -0.300 NA
HETATM   12  H1  UNL     1      27.859   2.835  54.096  1.00  0.00     0.187 HD
BRANCH  10  13
HETATM   13  C11 UNL     1      27.476   0.311  53.438  1.00  0.00    -0.008 A 
HETATM   14  C12 UNL     1      27.101  -0.938  53.058  1.00  0.00     0.014 A 
HETATM   15  C13 UNL     1      28.192  -1.772  53.015  1.00  0.00     0.001 A 
HETATM   16  C14 UNL     1      29.491  -1.449  53.303  1.00  0.00     0.000 A 
HETATM   17  C15 UNL     1      29.794  -0.162  53.683  1.00  0.00     0.001 A 
HETATM   18  C16 UNL     1      28.750   0.734  53.748  1.00  0.00     0.014 A 
ENDBRANCH  10  13
ENDBRANCH   9  10
ENDBRANCH   1   8
BRANCH   7  19
HETATM   19  N2  UNL     1      22.038   0.082  52.480  1.00  0.00    -0.328 N 
HETATM   20  H7  UNL     1      22.053  -0.930  52.321  1.00  0.00     0.168 HD
BRANCH  19  21
HETATM   21  C10 UNL     1      22.107  -0.451  53.791  1.00  0.00     0.282 A 
HETATM   22  N3  UNL     1      21.041  -0.458  54.746  1.00  0.00     0.037 N 
HETATM   23  H8  UNL     1      20.249   0.209  54.912  1.00  0.00     0.302 HD
HETATM   24  H9  UNL     1      20.176  -0.091  55.218  1.00  0.00     0.302 HD
HETATM   25  S1  UNL     1      22.736  -1.179  55.115  1.00  0.00     0.141 SA
ENDBRANCH  19  21
ENDBRANCH   7  19
TORSDOF 5
ENDMDL
MODEL 5
REMARK VINA RESULT:      -7.8      4.040      7.146
REMARK  5 active torsions:
REMARK  status: ('A' for Active; 'I' for Inactive)
REMARK    1  A    between atoms: C1_2  and  C2_3 
REMARK    2  A    between atoms: C1_2  and  C11_16 
REMARK    3  A    between atoms: C3_4  and  C4_5 
REMARK    4  A    between atoms: C9_11  and  N2_12 
REMARK    5  A    between atoms: N2_12  and  C10_13 
ROOT
HETATM    1  C4  UNL     1      24.706   1.855  52.213  1.00  0.00     0.029 A 
HETATM    2  C5  UNL     1      23.369   1.696  52.551  1.00  0.00     0.128 A 
HETATM    3  F1  UNL     1      22.489   2.684  52.273  1.00  0.00    -0.205 F 
HETATM    4  C6  UNL     1      22.899   0.556  53.162  1.00  0.00     0.043 A 
HETATM    5  C7  UNL     1      23.702  -0.505  53.485  1.00  0.00     0.005 A 
HETATM    6  C8  UNL     1      25.025  -0.371  53.162  1.00  0.00     0.030 A 
HETATM    7  C9  UNL     1      25.473   0.776  52.551  1.00  0.00     0.047 A 
ENDROOT
BRANCH   1   8
HETATM    8  C3  UNL     1      25.062   3.113  51.573  1.00  0.00     0.019 C 
HETATM    9  C2  UNL     1      24.985   2.966  50.274  1.00  0.00     0.033 C 
BRANCH   9  10
HETATM   10  C1  UNL     1      25.331   4.196  49.519  1.00  0.00     0.058 C 
HETATM   11  N1  UNL     1      24.112   4.508  49.345  1.00  0.00    -0.300 NA
HETATM   12  H1  UNL     1      23.709   5.304  48.865  1.00  0.00     0.187 HD
BRANCH  10  13
HETATM   13  C11 UNL     1      26.335   5.090  48.965  1.00  0.00    -0.008 A 
HETATM   14  C12 UNL     1      27.615   4.672  48.793  1.00  0.00     0.014 A 
HETATM   15  C13 UNL     1      28.379   5.680  48.257  1.00  0.00     0.001 A 
HETATM   16  C14 UNL     1      27.967   6.942  47.924  1.00  0.00     0.000 A 
HETATM   17  C15 UNL     1      26.653   7.293  48.128  1.00  0.00     0.001 A 
HETATM   18  C16 UNL     1      25.823   6.333  48.663  1.00  0.00     0.014 A 
ENDBRANCH  10  13
ENDBRANCH   9  10
ENDBRANCH   1   8
BRANCH   7  19
HETATM   19  N2  UNL     1      26.842   0.799  52.218  1.00  0.00    -0.328 N 
HETATM   20  H7  UNL     1      27.772   0.788  51.789  1.00  0.00     0.168 HD
BRANCH  19  21
HETATM   21  C10 UNL     1      27.712   0.965  53.324  1.00  0.00     0.282 A 
HETATM   22  N3  UNL     1      28.016   2.207  53.968  1.00  0.00     0.037 N 
HETATM   23  H8  UNL     1      28.073   3.188  53.599  1.00  0.00     0.302 HD
HETATM   24  H9  UNL     1      28.167   3.247  54.020  1.00  0.00     0.302 HD
HETATM   25  S1  UNL     1      28.759   0.573  54.520  1.00  0.00     0.141 SA
ENDBRANCH  19  21
ENDBRANCH   7  19
TORSDOF 5
ENDMDL
MODEL 6
REMARK VINA RESULT:      -7.7      2.291      6.398
REMARK  5 active torsions:
REMARK  status: ('A' for Active; 'I' for Inactive)
REMARK    1  A    between atoms: C1_2  and  C2_3 
REMARK    2  A    between atoms: C1_2  and  C11_16 
REMARK    3  A    between atoms: C3_4  and  C4_5 
REMARK    4  A    between atoms: C9_11  and  N2_12 
REMARK    5  A    between atoms: N2_12  and  C10_13 
ROOT
HETATM    1  C4  UNL     1      23.163   1.099  52.422  1.00  0.00     0.029 A 
HETATM    2  C5  UNL     1      22.504   0.434  53.447  1.00  0.00     0.128 A 
HETATM    3  F1  UNL     1      23.186  -0.438  54.224  1.00  0.00    -0.205 F 
HETATM    4  C6  UNL     1      21.168   0.631  53.707  1.00  0.00     0.043 A 
HETATM    5  C7  UNL     1      20.384   1.492  52.985  1.00  0.00     0.005 A 
HETATM    6  C8  UNL     1      21.012   2.159  51.969  1.00  0.00     0.030 A 
HETATM    7  C9  UNL     1      22.349   1.947  51.727  1.00  0.00     0.047 A 
ENDROOT
BRANCH   1   8
HETATM    8  C3  UNL     1      24.576   0.790  52.261  1.00  0.00     0.019 C 
HETATM    9  C2  UNL     1      25.271   1.535  53.084  1.00  0.00     0.033 C 
BRANCH   9  10
HETATM   10  C1  UNL     1      26.734   1.300  53.001  1.00  0.00     0.058 C 
HETATM   11  N1  UNL     1      26.958   2.460  52.534  1.00  0.00    -0.300 NA
HETATM   12  H1  UNL     1      27.834   2.893  52.266  1.00  0.00     0.187 HD
BRANCH  10  13
HETATM   13  C11 UNL     1      27.881   0.429  53.202  1.00  0.00    -0.008 A 
HETATM   14  C12 UNL     1      29.087   0.942  53.559  1.00  0.00     0.014 A 
HETATM   15  C13 UNL     1      30.013  -0.063  53.693  1.00  0.00     0.001 A 
HETATM   16  C14 UNL     1      29.811  -1.404  53.505  1.00  0.00     0.000 A 
HETATM   17  C15 UNL     1      28.561  -1.849  53.143  1.00  0.00     0.001 A 
HETATM   18  C16 UNL     1      27.577  -0.898  52.991  1.00  0.00     0.014 A 
ENDBRANCH  10  13
ENDBRANCH   9  10
ENDBRANCH   1   8
BRANCH   7  19
HETATM   19  N2  UNL     1      22.913   2.713  50.689  1.00  0.00    -0.328 N 
HETATM   20  H7  UNL     1      23.285   3.110  49.820  1.00  0.00     0.168 HD
BRANCH  19  21
HETATM   21  C10 UNL     1      23.358   3.999  51.084  1.00  0.00     0.282 A 
HETATM   22  N3  UNL     1      24.725   4.409  51.201  1.00  0.00     0.037 N 
HETATM   23  H8  UNL     1      25.592   3.878  51.460  1.00  0.00     0.302 HD
HETATM   24  H9  UNL     1      25.751   4.277  51.390  1.00  0.00     0.302 HD
HETATM   25  S1  UNL     1      23.287   5.561  51.569  1.00  0.00     0.141 SA
ENDBRANCH  19  21
ENDBRANCH   7  19
TORSDOF 5
ENDMDL
MODEL 7
REMARK VINA RESULT:      -7.5      5.395      7.641
REMARK  5 active torsions:
REMARK  status: ('A' for Active; 'I' for Inactive)
REMARK    1  A    between atoms: C1_2  and  C2_3 
REMARK    2  A    between atoms: C1_2  and  C11_16 
REMARK    3  A    between atoms: C3_4  and  C4_5 
REMARK    4  A    between atoms: C9_11  and  N2_12 
REMARK    5  A    between atoms: N2_12  and  C10_13 
ROOT
HETATM    1  C4  UNL     1      25.207   6.075  49.120  1.00  0.00     0.029 A 
HETATM    2  C5  UNL     1      23.997   6.030  48.439  1.00  0.00     0.128 A 
HETATM    3  F1  UNL     1      23.050   5.144  48.821  1.00  0.00    -0.205 F 
HETATM    4  C6  UNL     1      23.722   6.863  47.379  1.00  0.00     0.043 A 
HETATM    5  C7  UNL     1      24.608   7.797  46.912  1.00  0.00     0.005 A 
HETATM    6  C8  UNL     1      25.807   7.861  47.566  1.00  0.00     0.030 A 
HETATM    7  C9  UNL     1      26.061   7.019  48.624  1.00  0.00     0.047 A 
ENDROOT
BRANCH   1   8
HETATM    8  C3  UNL     1      25.361   5.135  50.219  1.00  0.00     0.019 C 
HETATM    9  C2  UNL     1      25.845   4.011  49.753  1.00  0.00     0.033 C 
BRANCH   9  10
HETATM   10  C1  UNL     1      26.042   2.974  50.796  1.00  0.00     0.058 C 
HETATM   11  N1  UNL     1      27.250   3.313  50.994  1.00  0.00    -0.300 NA
HETATM   12  H1  UNL     1      27.933   2.931  51.638  1.00  0.00     0.187 HD
BRANCH  10  13
HETATM   13  C11 UNL     1      25.516   1.878  51.594  1.00  0.00    -0.008 A 
HETATM   14  C12 UNL     1      24.202   1.837  51.934  1.00  0.00     0.014 A 
HETATM   15  C13 UNL     1      23.937   0.716  52.682  1.00  0.00     0.001 A 
HETATM   16  C14 UNL     1      24.826  -0.253  53.062  1.00  0.00     0.000 A 
HETATM   17  C15 UNL     1      26.142  -0.143  52.680  1.00  0.00     0.001 A 
HETATM   18  C16 UNL     1      26.485   0.956  51.925  1.00  0.00     0.014 A 
ENDBRANCH  10  13
ENDBRANCH   9  10
ENDBRANCH   1   8
BRANCH   7  19
HETATM   19  N2  UNL     1      27.306   7.193  49.260  1.00  0.00    -0.328 N 
HETATM   20  H7  UNL     1      28.219   7.118  49.720  1.00  0.00     0.168 HD
BRANCH  19  21
HETATM   21  C10 UNL     1      27.657   8.543  49.505  1.00  0.00     0.282 A 
HETATM   22  N3  UNL     1      27.567   9.213  50.767  1.00  0.00     0.037 N 
HETATM   23  H8  UNL     1      26.907   9.094  51.574  1.00  0.00     0.302 HD
HETATM   24  H9  UNL     1      27.166   9.413  51.718  1.00  0.00     0.302 HD
HETATM   25  S1  UNL     1      28.183  10.065  49.211  1.00  0.00     0.141 SA
ENDBRANCH  19  21
ENDBRANCH   7  19
TORSDOF 5
ENDMDL
MODEL 8
REMARK VINA RESULT:      -7.5      4.303      7.740
REMARK  5 active torsions:
REMARK  status: ('A' for Active; 'I' for Inactive)
REMARK    1  A    between atoms: C1_2  and  C2_3 
REMARK    2  A    between atoms: C1_2  and  C11_16 
REMARK    3  A    between atoms: C3_4  and  C4_5 
REMARK    4  A    between atoms: C9_11  and  N2_12 
REMARK    5  A    between atoms: N2_12  and  C10_13 
ROOT
HETATM    1  C4  UNL     1      23.390   2.246  51.004  1.00  0.00     0.029 A 
HETATM    2  C5  UNL     1      22.435   1.997  50.027  1.00  0.00     0.128 A 
HETATM    3  F1  UNL     1      22.394   2.775  48.922  1.00  0.00    -0.205 F 
HETATM    4  C6  UNL     1      21.521   0.976  50.140  1.00  0.00     0.043 A 
HETATM    5  C7  UNL     1      21.476   0.127  51.214  1.00  0.00     0.005 A 
HETATM    6  C8  UNL     1      22.406   0.353  52.191  1.00  0.00     0.030 A 
HETATM    7  C9  UNL     1      23.312   1.379  52.058  1.00  0.00     0.047 A 
ENDROOT
BRANCH   1   8
HETATM    8  C3  UNL     1      24.291   3.360  50.753  1.00  0.00     0.019 C 
HETATM    9  C2  UNL     1      25.328   2.926  50.083  1.00  0.00     0.033 C 
BRANCH   9  10
HETATM   10  C1  UNL     1      26.318   3.987  49.773  1.00  0.00     0.058 C 
HETATM   11  N1  UNL     1      27.152   3.548  50.624  1.00  0.00    -0.300 NA
HETATM   12  H1  UNL     1      28.071   3.895  50.869  1.00  0.00     0.187 HD
BRANCH  10  13
HETATM   13  C11 UNL     1      26.702   5.164  49.008  1.00  0.00    -0.008 A 
HETATM   14  C12 UNL     1      25.793   6.133  48.726  1.00  0.00     0.014 A 
HETATM   15  C13 UNL     1      26.379   7.141  48.000  1.00  0.00     0.001 A 
HETATM   16  C14 UNL     1      27.683   7.213  47.590  1.00  0.00     0.000 A 
HETATM   17  C15 UNL     1      28.546   6.191  47.913  1.00  0.00     0.001 A 
HETATM   18  C16 UNL     1      28.030   5.144  48.643  1.00  0.00     0.014 A 
ENDBRANCH  10  13
ENDBRANCH   9  10
ENDBRANCH   1   8
BRANCH   7  19
HETATM   19  N2  UNL     1      24.257   1.502  53.094  1.00  0.00    -0.328 N 
HETATM   20  H7  UNL     1      24.824   1.737  53.915  1.00  0.00     0.168 HD
BRANCH  19  21
HETATM   21  C10 UNL     1      25.357   0.614  52.995  1.00  0.00     0.282 A 
HETATM   22  N3  UNL     1      25.963  -0.090  54.085  1.00  0.00     0.037 N 
HETATM   23  H8  UNL     1      26.079   0.160  55.097  1.00  0.00     0.302 HD
HETATM   24  H9  UNL     1      26.267  -0.232  55.081  1.00  0.00     0.302 HD
HETATM   25  S1  UNL     1      26.566  -0.253  52.314  1.00  0.00     0.141 SA
ENDBRANCH  19  21
ENDBRANCH   7  19
TORSDOF 5
ENDMDL
MODEL 9
REMARK VINA RESULT:      -7.4      3.561      4.991
REMARK  5 active torsions:
REMARK  status: ('A' for Active; 'I' for Inactive)
REMARK    1  A    between atoms: C1_2  and  C2_3 
REMARK    2  A    between atoms: C1_2  and  C11_16 
REMARK    3  A    between atoms: C3_4  and  C4_5 
REMARK    4  A    between atoms: C9_11  and  N2_12 
REMARK    5  A    between atoms: N2_12  and  C10_13 
ROOT
HETATM    1  C4  UNL     1      24.773   3.248  50.161  1.00  0.00     0.029 A 
HETATM    2  C5  UNL     1      26.147   3.175  49.976  1.00  0.00     0.128 A 
HETATM    3  F1  UNL     1      26.823   2.093  50.424  1.00  0.00    -0.205 F 
HETATM    4  C6  UNL     1      26.855   4.172  49.346  1.00  0.00     0.043 A 
HETATM    5  C7  UNL     1      26.270   5.308  48.853  1.00  0.00     0.005 A 
HETATM    6  C8  UNL     1      24.916   5.403  49.023  1.00  0.00     0.030 A 
HETATM    7  C9  UNL     1      24.228   4.394  49.656  1.00  0.00     0.047 A 
ENDROOT
BRANCH   1   8
HETATM    8  C3  UNL     1      24.156   2.122  50.846  1.00  0.00     0.019 C 
HETATM    9  C2  UNL     1      24.339   2.256  52.136  1.00  0.00     0.033 C 
BRANCH   9  10
HETATM   10  C1  UNL     1      23.747   1.154  52.935  1.00  0.00     0.058 C 
HETATM   11  N1  UNL     1      24.860   0.861  53.473  1.00  0.00    -0.300 NA
HETATM   12  H1  UNL     1      25.082   0.142  54.151  1.00  0.00     0.187 HD
BRANCH  10  13
HETATM   13  C11 UNL     1      22.589   0.365  53.323  1.00  0.00    -0.008 A 
HETATM   14  C12 UNL     1      21.337   0.747  52.961  1.00  0.00     0.014 A 
HETATM   15  C13 UNL     1      20.408  -0.146  53.436  1.00  0.00     0.001 A 
HETATM   16  C14 UNL     1      20.649  -1.274  54.173  1.00  0.00     0.000 A 
HETATM   17  C15 UNL     1      21.944  -1.597  54.503  1.00  0.00     0.001 A 
HETATM   18  C16 UNL     1      22.933  -0.747  54.060  1.00  0.00     0.014 A 
ENDBRANCH  10  13
ENDBRANCH   9  10
ENDBRANCH   1   8
BRANCH   7  19
HETATM   19  N2  UNL     1      22.832   4.564  49.742  1.00  0.00    -0.328 N 
HETATM   20  H7  UNL     1      21.810   4.519  49.697  1.00  0.00     0.168 HD
BRANCH  19  21
HETATM   21  C10 UNL     1      22.424   5.722  50.449  1.00  0.00     0.282 A 
HETATM   22  N3  UNL     1      22.635   5.967  51.844  1.00  0.00     0.037 N 
HETATM   23  H8  UNL     1      22.688   5.316  52.665  1.00  0.00     0.302 HD
HETATM   24  H9  UNL     1      22.750   5.703  52.855  1.00  0.00     0.302 HD
HETATM   25  S1  UNL     1      21.756   7.191  50.723  1.00  0.00     0.141 SA
ENDBRANCH  19  21
ENDBRANCH   7  19
TORSDOF 5
ENDMDL
