MODEL 1
REMARK VINA RESULT:      -8.5      0.000      0.000
REMARK  7 active torsions:
REMARK  status: ('A' for Active; 'I' for Inactive)
REMARK    1  A    between atoms: C5_7  and  C6_8 
REMARK    2  A    between atoms: C6_8  and  C7_9 
REMARK    3  A    between atoms: C7_9  and  O2_10 
REMARK    4  A    between atoms: O2_10  and  C8_11 
REMARK    5  A    between atoms: C8_11  and  C10_13 
REMARK    6  A    between atoms: C13_16  and  N2_17 
REMARK    7  A    between atoms: N2_17  and  C14_18 
ROOT
HETATM    1  C10 UNL     1      23.506   3.005  50.732  1.00  0.00     0.085 A 
HETATM    2  C11 UNL     1      23.603   2.787  52.037  1.00  0.00     0.035 A 
HETATM    3  C12 UNL     1      24.737   2.645  52.956  1.00  0.00     0.052 A 
HETATM    4  C13 UNL     1      26.049   2.637  52.754  1.00  0.00     0.129 A 
HETATM    5  N3  UNL     1      26.947   2.752  51.635  1.00  0.00    -0.223 NA
HETATM    6  C20 UNL     1      26.803   2.963  50.370  1.00  0.00     0.259 A 
HETATM    7  N4  UNL     1      25.678   3.182  49.503  1.00  0.00    -0.143 NA
HETATM    8  N5  UNL     1      24.398   3.201  49.626  1.00  0.00    -0.151 NA
ENDROOT
BRANCH   1   9
HETATM    9  C8  UNL     1      22.108   3.073  50.234  1.00  0.00     0.170 C 
HETATM   10  C9  UNL     1      22.102   2.205  48.983  1.00  0.00     0.046 C 
BRANCH   9  11
HETATM   11  O2  UNL     1      21.244   2.622  51.194  1.00  0.00    -0.380 OA
BRANCH  11  12
HETATM   12  C7  UNL     1      20.325   1.688  50.812  1.00  0.00     0.171 C 
BRANCH  12  13
HETATM   13  C6  UNL     1      20.448   0.342  51.461  1.00  0.00     0.066 C 
BRANCH  13  14
HETATM   14  C5  UNL     1      20.429   0.447  52.954  1.00  0.00     0.255 C 
HETATM   15  C2  UNL     1      19.831  -0.806  53.547  1.00  0.00    -0.033 C 
HETATM   16  C1  UNL     1      18.585  -1.023  53.156  1.00  0.00     0.019 C 
HETATM   17  C3  UNL     1      20.831  -1.491  54.447  1.00  0.00     0.205 C 
HETATM   18  O1  UNL     1      21.974  -1.772  53.690  1.00  0.00    -0.358 OA
HETATM   19  C4  UNL     1      22.584  -0.591  53.263  1.00  0.00     0.438 C 
HETATM   20  N1  UNL     1      21.763   0.555  53.517  1.00  0.00     0.115 N 
HETATM   21  H7  UNL     1      22.263   1.418  53.288  1.00  0.00     0.319 HD
ENDBRANCH  13  14
ENDBRANCH  12  13
ENDBRANCH  11  12
ENDBRANCH   9  11
ENDBRANCH   1   9
BRANCH   4  22
HETATM   22  N2  UNL     1      26.810   2.471  53.946  1.00  0.00    -0.341 N 
HETATM   23  H19 UNL     1      26.938   3.030  54.834  1.00  0.00     0.167 HD
BRANCH  22  24
HETATM   24  C14 UNL     1      27.481   1.234  53.716  1.00  0.00     0.035 A 
HETATM   25  C15 UNL     1      28.812   1.111  54.093  1.00  0.00     0.032 A 
HETATM   26  C16 UNL     1      29.479  -0.085  53.877  1.00  0.00     0.046 A 
HETATM   27  C17 UNL     1      28.838  -1.161  53.289  1.00  0.00     0.138 A 
HETATM   28  F1  UNL     1      29.503  -2.323  53.084  1.00  0.00    -0.204 F 
HETATM   29  C18 UNL     1      27.502  -1.051  52.906  1.00  0.00     0.074 A 
HETATM   30 CL1  UNL     1      26.642  -2.395  52.152  1.00  0.00    -0.081 Cl
HETATM   31  C19 UNL     1      26.865   0.151  53.134  1.00  0.00     0.056 A 
ENDBRANCH  22  24
ENDBRANCH   4  22
TORSDOF 7
ENDMDL
MODEL 2
REMARK VINA RESULT:      -8.4      2.384      4.611
REMARK  7 active torsions:
REMARK  status: ('A' for Active; 'I' for Inactive)
REMARK    1  A    between atoms: C5_7  and  C6_8 
REMARK    2  A    between atoms: C6_8  and  C7_9 
REMARK    3  A    between atoms: C7_9  and  O2_10 
REMARK    4  A    between atoms: O2_10  and  C8_11 
REMARK    5  A    between atoms: C8_11  and  C10_13 
REMARK    6  A    between atoms: C13_16  and  N2_17 
REMARK    7  A    between atoms: N2_17  and  C14_18 
ROOT
HETATM    1  C10 UNL     1      23.447   2.493  51.195  1.00  0.00     0.085 A 
HETATM    2  C11 UNL     1      23.801   2.251  52.450  1.00  0.00     0.035 A 
HETATM    3  C12 UNL     1      25.082   2.287  53.163  1.00  0.00     0.052 A 
HETATM    4  C13 UNL     1      26.321   2.526  52.752  1.00  0.00     0.129 A 
HETATM    5  N3  UNL     1      26.983   2.842  51.513  1.00  0.00    -0.223 NA
HETATM    6  C20 UNL     1      26.591   3.068  50.305  1.00  0.00     0.259 A 
HETATM    7  N4  UNL     1      25.314   3.107  49.646  1.00  0.00    -0.143 NA
HETATM    8  N5  UNL     1      24.090   2.887  49.975  1.00  0.00    -0.151 NA
ENDROOT
BRANCH   1   9
HETATM    9  C8  UNL     1      21.995   2.322  50.933  1.00  0.00     0.170 C 
HETATM   10  C9  UNL     1      21.394   2.001  52.295  1.00  0.00     0.046 C 
BRANCH   9  11
HETATM   11  O2  UNL     1      21.478   3.463  50.384  1.00  0.00    -0.380 OA
BRANCH  11  12
HETATM   12  C7  UNL     1      20.892   4.352  51.237  1.00  0.00     0.171 C 
BRANCH  12  13
HETATM   13  C6  UNL     1      21.582   5.676  51.384  1.00  0.00     0.066 C 
BRANCH  13  14
HETATM   14  C5  UNL     1      22.132   6.156  50.077  1.00  0.00     0.255 C 
HETATM   15  C2  UNL     1      22.017   7.660  49.997  1.00  0.00    -0.033 C 
HETATM   16  C1  UNL     1      20.768   8.090  50.076  1.00  0.00     0.019 C 
HETATM   17  C3  UNL     1      23.382   8.285  49.844  1.00  0.00     0.205 C 
HETATM   18  O1  UNL     1      24.167   7.884  50.931  1.00  0.00    -0.358 OA
HETATM   19  C4  UNL     1      24.369   6.502  50.909  1.00  0.00     0.438 C 
HETATM   20  N1  UNL     1      23.545   5.859  49.931  1.00  0.00     0.115 N 
HETATM   21  H7  UNL     1      23.774   4.863  49.860  1.00  0.00     0.319 HD
ENDBRANCH  13  14
ENDBRANCH  12  13
ENDBRANCH  11  12
ENDBRANCH   9  11
ENDBRANCH   1   9
BRANCH   4  22
HETATM   22  N2  UNL     1      27.292   2.461  53.793  1.00  0.00    -0.341 N 
HETATM   23  H19 UNL     1      27.607   3.114  54.561  1.00  0.00     0.167 HD
BRANCH  22  24
HETATM   24  C14 UNL     1      27.862   1.167  53.605  1.00  0.00     0.035 A 
HETATM   25  C15 UNL     1      29.192   0.963  53.944  1.00  0.00     0.032 A 
HETATM   26  C16 UNL     1      29.763  -0.288  53.768  1.00  0.00     0.046 A 
HETATM   27  C17 UNL     1      29.023  -1.341  53.257  1.00  0.00     0.138 A 
HETATM   28  F1  UNL     1      29.594  -2.558  53.091  1.00  0.00    -0.204 F 
HETATM   29  C18 UNL     1      27.686  -1.150  52.913  1.00  0.00     0.074 A 
HETATM   30 CL1  UNL     1      26.703  -2.461  52.257  1.00  0.00    -0.081 Cl
HETATM   31  C19 UNL     1      27.147   0.107  53.100  1.00  0.00     0.056 A 
ENDBRANCH  22  24
ENDBRANCH   4  22
TORSDOF 7
ENDMDL
MODEL 3
REMARK VINA RESULT:      -8.4      3.581      7.036
REMARK  7 active torsions:
REMARK  status: ('A' for Active; 'I' for Inactive)
REMARK    1  A    between atoms: C5_7  and  C6_8 
REMARK    2  A    between atoms: C6_8  and  C7_9 
REMARK    3  A    between atoms: C7_9  and  O2_10 
REMARK    4  A    between atoms: O2_10  and  C8_11 
REMARK    5  A    between atoms: C8_11  and  C10_13 
REMARK    6  A    between atoms: C13_16  and  N2_17 
REMARK    7  A    between atoms: N2_17  and  C14_18 
ROOT
HETATM    1  C10 UNL     1      22.347   1.264  52.690  1.00  0.00     0.085 A 
HETATM    2  C11 UNL     1      23.072   1.622  51.637  1.00  0.00     0.035 A 
HETATM    3  C12 UNL     1      22.863   2.578  50.545  1.00  0.00     0.052 A 
HETATM    4  C13 UNL     1      21.837   3.360  50.233  1.00  0.00     0.129 A 
HETATM    5  N3  UNL     1      20.527   3.646  50.757  1.00  0.00    -0.223 NA
HETATM    6  C20 UNL     1      19.859   3.267  51.794  1.00  0.00     0.259 A 
HETATM    7  N4  UNL     1      20.121   2.387  52.899  1.00  0.00    -0.143 NA
HETATM    8  N5  UNL     1      21.076   1.605  53.261  1.00  0.00    -0.151 NA
ENDROOT
BRANCH   1   9
HETATM    9  C8  UNL     1      22.988   0.229  53.540  1.00  0.00     0.170 C 
HETATM   10  C9  UNL     1      22.512  -1.096  52.960  1.00  0.00     0.046 C 
BRANCH   9  11
HETATM   11  O2  UNL     1      24.349   0.364  53.500  1.00  0.00    -0.380 OA
BRANCH  11  12
HETATM   12  C7  UNL     1      25.083  -0.779  53.361  1.00  0.00     0.171 C 
BRANCH  12  13
HETATM   13  C6  UNL     1      26.516  -0.596  52.962  1.00  0.00     0.066 C 
BRANCH  13  14
HETATM   14  C5  UNL     1      27.353  -0.135  54.114  1.00  0.00     0.255 C 
HETATM   15  C2  UNL     1      28.815  -0.205  53.744  1.00  0.00    -0.033 C 
HETATM   16  C1  UNL     1      29.216  -1.428  53.435  1.00  0.00     0.019 C 
HETATM   17  C3  UNL     1      29.445   1.165  53.825  1.00  0.00     0.205 C 
HETATM   18  O1  UNL     1      28.736   2.020  52.974  1.00  0.00    -0.358 OA
HETATM   19  C4  UNL     1      27.419   2.172  53.414  1.00  0.00     0.438 C 
HETATM   20  N1  UNL     1      27.098   1.251  54.462  1.00  0.00     0.115 N 
HETATM   21  H7  UNL     1      26.165   1.440  54.839  1.00  0.00     0.319 HD
ENDBRANCH  13  14
ENDBRANCH  12  13
ENDBRANCH  11  12
ENDBRANCH   9  11
ENDBRANCH   1   9
BRANCH   4  22
HETATM   22  N2  UNL     1      22.053   4.150  49.067  1.00  0.00    -0.341 N 
HETATM   23  H19 UNL     1      21.615   4.198  48.107  1.00  0.00     0.167 HD
BRANCH  22  24
HETATM   24  C14 UNL     1      23.126   5.001  49.464  1.00  0.00     0.035 A 
HETATM   25  C15 UNL     1      22.868   6.042  50.345  1.00  0.00     0.032 A 
HETATM   26  C16 UNL     1      23.900   6.879  50.742  1.00  0.00     0.046 A 
HETATM   27  C17 UNL     1      25.188   6.691  50.271  1.00  0.00     0.138 A 
HETATM   28  F1  UNL     1      26.186   7.517  50.668  1.00  0.00    -0.204 F 
HETATM   29  C18 UNL     1      25.462   5.650  49.386  1.00  0.00     0.074 A 
HETATM   30 CL1  UNL     1      27.087   5.372  48.759  1.00  0.00    -0.081 Cl
HETATM   31  C19 UNL     1      24.414   4.834  49.010  1.00  0.00     0.056 A 
ENDBRANCH  22  24
ENDBRANCH   4  22
TORSDOF 7
ENDMDL
MODEL 4
REMARK VINA RESULT:      -8.4      3.983      7.111
REMARK  7 active torsions:
REMARK  status: ('A' for Active; 'I' for Inactive)
REMARK    1  A    between atoms: C5_7  and  C6_8 
REMARK    2  A    between atoms: C6_8  and  C7_9 
REMARK    3  A    between atoms: C7_9  and  O2_10 
REMARK    4  A    between atoms: O2_10  and  C8_11 
REMARK    5  A    between atoms: C8_11  and  C10_13 
REMARK    6  A    between atoms: C13_16  and  N2_17 
REMARK    7  A    between atoms: N2_17  and  C14_18 
ROOT
HETATM    1  C10 UNL     1      23.512   1.794  52.388  1.00  0.00     0.085 A 
HETATM    2  C11 UNL     1      23.934   2.932  52.924  1.00  0.00     0.035 A 
HETATM    3  C12 UNL     1      23.789   4.341  52.547  1.00  0.00     0.052 A 
HETATM    4  C13 UNL     1      23.223   4.927  51.498  1.00  0.00     0.129 A 
HETATM    5  N3  UNL     1      22.528   4.518  50.306  1.00  0.00    -0.223 NA
HETATM    6  C20 UNL     1      22.138   3.387  49.822  1.00  0.00     0.259 A 
HETATM    7  N4  UNL     1      22.222   2.019  50.256  1.00  0.00    -0.143 NA
HETATM    8  N5  UNL     1      22.749   1.386  51.244  1.00  0.00    -0.151 NA
ENDROOT
BRANCH   1   9
HETATM    9  C8  UNL     1      23.915   0.583  53.147  1.00  0.00     0.170 C 
HETATM   10  C9  UNL     1      22.633  -0.224  53.295  1.00  0.00     0.046 C 
BRANCH   9  11
HETATM   11  O2  UNL     1      24.890  -0.095  52.467  1.00  0.00    -0.380 OA
BRANCH  11  12
HETATM   12  C7  UNL     1      25.715  -0.897  53.200  1.00  0.00     0.171 C 
BRANCH  12  13
HETATM   13  C6  UNL     1      27.185  -0.653  53.037  1.00  0.00     0.066 C 
BRANCH  13  14
HETATM   14  C5  UNL     1      27.776  -0.019  54.258  1.00  0.00     0.255 C 
HETATM   15  C2  UNL     1      29.247   0.241  54.037  1.00  0.00    -0.033 C 
HETATM   16  C1  UNL     1      29.939  -0.861  53.796  1.00  0.00     0.019 C 
HETATM   17  C3  UNL     1      29.543   1.717  54.152  1.00  0.00     0.205 C 
HETATM   18  O1  UNL     1      28.752   2.393  53.217  1.00  0.00    -0.358 OA
HETATM   19  C4  UNL     1      27.397   2.246  53.519  1.00  0.00     0.438 C 
HETATM   20  N1  UNL     1      27.184   1.274  54.549  1.00  0.00     0.115 N 
HETATM   21  H7  UNL     1      26.199   1.248  54.826  1.00  0.00     0.319 HD
ENDBRANCH  13  14
ENDBRANCH  12  13
ENDBRANCH  11  12
ENDBRANCH   9  11
ENDBRANCH   1   9
BRANCH   4  22
HETATM   22  N2  UNL     1      23.307   6.349  51.523  1.00  0.00    -0.341 N 
HETATM   23  H19 UNL     1      22.929   7.107  52.154  1.00  0.00     0.167 HD
BRANCH  22  24
HETATM   24  C14 UNL     1      24.108   6.632  50.379  1.00  0.00     0.035 A 
HETATM   25  C15 UNL     1      23.729   7.664  49.531  1.00  0.00     0.032 A 
HETATM   26  C16 UNL     1      24.497   7.953  48.413  1.00  0.00     0.046 A 
HETATM   27  C17 UNL     1      25.640   7.227  48.129  1.00  0.00     0.138 A 
HETATM   28  F1  UNL     1      26.380   7.522  47.034  1.00  0.00    -0.204 F 
HETATM   29  C18 UNL     1      26.033   6.189  48.972  1.00  0.00     0.074 A 
HETATM   30 CL1  UNL     1      27.482   5.235  48.650  1.00  0.00    -0.081 Cl
HETATM   31  C19 UNL     1      25.248   5.925  50.076  1.00  0.00     0.056 A 
ENDBRANCH  22  24
ENDBRANCH   4  22
TORSDOF 7
ENDMDL
MODEL 5
REMARK VINA RESULT:      -8.1      5.268      8.836
REMARK  7 active torsions:
REMARK  status: ('A' for Active; 'I' for Inactive)
REMARK    1  A    between atoms: C5_7  and  C6_8 
REMARK    2  A    between atoms: C6_8  and  C7_9 
REMARK    3  A    between atoms: C7_9  and  O2_10 
REMARK    4  A    between atoms: O2_10  and  C8_11 
REMARK    5  A    between atoms: C8_11  and  C10_13 
REMARK    6  A    between atoms: C13_16  and  N2_17 
REMARK    7  A    between atoms: N2_17  and  C14_18 
ROOT
HETATM    1  C10 UNL     1      27.035   5.463  48.955  1.00  0.00     0.085 A 
HETATM    2  C11 UNL     1      26.931   4.145  49.071  1.00  0.00     0.035 A 
HETATM    3  C12 UNL     1      25.963   3.263  49.731  1.00  0.00     0.052 A 
HETATM    4  C13 UNL     1      24.898   3.516  50.481  1.00  0.00     0.129 A 
HETATM    5  N3  UNL     1      24.209   4.675  50.983  1.00  0.00    -0.223 NA
HETATM    6  C20 UNL     1      24.351   5.950  50.843  1.00  0.00     0.259 A 
HETATM    7  N4  UNL     1      25.264   6.792  50.120  1.00  0.00    -0.143 NA
HETATM    8  N5  UNL     1      26.306   6.620  49.386  1.00  0.00    -0.151 NA
ENDROOT
BRANCH   1   9
HETATM    9  C8  UNL     1      28.216   5.908  48.172  1.00  0.00     0.170 C 
HETATM   10  C9  UNL     1      28.332   7.398  48.463  1.00  0.00     0.046 C 
BRANCH   9  11
HETATM   11  O2  UNL     1      29.327   5.208  48.557  1.00  0.00    -0.380 OA
BRANCH  11  12
HETATM   12  C7  UNL     1      30.536   5.811  48.372  1.00  0.00     0.171 C 
BRANCH  12  13
HETATM   13  C6  UNL     1      31.484   5.114  47.441  1.00  0.00     0.066 C 
BRANCH  13  14
HETATM   14  C5  UNL     1      32.469   4.271  48.190  1.00  0.00     0.255 C 
HETATM   15  C2  UNL     1      33.143   3.310  47.241  1.00  0.00    -0.033 C 
HETATM   16  C1  UNL     1      32.295   2.485  46.648  1.00  0.00     0.019 C 
HETATM   17  C3  UNL     1      34.633   3.548  47.221  1.00  0.00     0.205 C 
HETATM   18  O1  UNL     1      34.854   4.880  46.851  1.00  0.00    -0.358 OA
HETATM   19  C4  UNL     1      34.336   5.750  47.813  1.00  0.00     0.438 C 
HETATM   20  N1  UNL     1      33.535   5.061  48.779  1.00  0.00     0.115 N 
HETATM   21  H7  UNL     1      33.244   5.694  49.528  1.00  0.00     0.319 HD
ENDBRANCH  13  14
ENDBRANCH  12  13
ENDBRANCH  11  12
ENDBRANCH   9  11
ENDBRANCH   1   9
BRANCH   4  22
HETATM   22  N2  UNL     1      24.223   2.344  50.930  1.00  0.00    -0.341 N 
HETATM   23  H19 UNL     1      23.327   1.851  50.667  1.00  0.00     0.167 HD
BRANCH  22  24
HETATM   24  C14 UNL     1      25.089   1.863  51.957  1.00  0.00     0.035 A 
HETATM   25  C15 UNL     1      25.280   2.638  53.092  1.00  0.00     0.032 A 
HETATM   26  C16 UNL     1      26.117   2.186  54.101  1.00  0.00     0.046 A 
HETATM   27  C17 UNL     1      26.768   0.970  53.992  1.00  0.00     0.138 A 
HETATM   28  F1  UNL     1      27.583   0.541  54.985  1.00  0.00    -0.204 F 
HETATM   29  C18 UNL     1      26.585   0.181  52.857  1.00  0.00     0.074 A 
HETATM   30 CL1  UNL     1      27.394  -1.377  52.673  1.00  0.00    -0.081 Cl
HETATM   31  C19 UNL     1      25.746   0.658  51.871  1.00  0.00     0.056 A 
ENDBRANCH  22  24
ENDBRANCH   4  22
TORSDOF 7
ENDMDL
MODEL 6
REMARK VINA RESULT:      -8.1      4.948      7.074
REMARK  7 active torsions:
REMARK  status: ('A' for Active; 'I' for Inactive)
REMARK    1  A    between atoms: C5_7  and  C6_8 
REMARK    2  A    between atoms: C6_8  and  C7_9 
REMARK    3  A    between atoms: C7_9  and  O2_10 
REMARK    4  A    between atoms: O2_10  and  C8_11 
REMARK    5  A    between atoms: C8_11  and  C10_13 
REMARK    6  A    between atoms: C13_16  and  N2_17 
REMARK    7  A    between atoms: N2_17  and  C14_18 
ROOT
HETATM    1  C10 UNL     1      25.648   5.592  49.917  1.00  0.00     0.085 A 
HETATM    2  C11 UNL     1      26.537   5.271  48.986  1.00  0.00     0.035 A 
HETATM    3  C12 UNL     1      27.478   6.051  48.175  1.00  0.00     0.052 A 
HETATM    4  C13 UNL     1      27.696   7.357  48.079  1.00  0.00     0.129 A 
HETATM    5  N3  UNL     1      27.174   8.563  48.666  1.00  0.00    -0.223 NA
HETATM    6  C20 UNL     1      26.298   8.827  49.575  1.00  0.00     0.259 A 
HETATM    7  N4  UNL     1      25.445   8.035  50.418  1.00  0.00    -0.143 NA
HETATM    8  N5  UNL     1      25.181   6.785  50.563  1.00  0.00    -0.151 NA
ENDROOT
BRANCH   1   9
HETATM    9  C8  UNL     1      24.908   4.430  50.471  1.00  0.00     0.170 C 
HETATM   10  C9  UNL     1      24.327   3.726  49.253  1.00  0.00     0.046 C 
BRANCH   9  11
HETATM   11  O2  UNL     1      25.757   3.631  51.188  1.00  0.00    -0.380 OA
BRANCH  11  12
HETATM   12  C7  UNL     1      25.524   2.287  51.150  1.00  0.00     0.171 C 
BRANCH  12  13
HETATM   13  C6  UNL     1      26.621   1.414  51.682  1.00  0.00     0.066 C 
BRANCH  13  14
HETATM   14  C5  UNL     1      26.538   1.272  53.170  1.00  0.00     0.255 C 
HETATM   15  C2  UNL     1      27.248   0.012  53.603  1.00  0.00    -0.033 C 
HETATM   16  C1  UNL     1      26.727  -1.086  53.077  1.00  0.00     0.019 C 
HETATM   17  C3  UNL     1      28.385   0.343  54.539  1.00  0.00     0.205 C 
HETATM   18  O1  UNL     1      29.249   1.222  53.878  1.00  0.00    -0.358 OA
HETATM   19  C4  UNL     1      28.607   2.432  53.605  1.00  0.00     0.438 C 
HETATM   20  N1  UNL     1      27.201   2.360  53.866  1.00  0.00     0.115 N 
HETATM   21  H7  UNL     1      26.762   3.278  53.754  1.00  0.00     0.319 HD
ENDBRANCH  13  14
ENDBRANCH  12  13
ENDBRANCH  11  12
ENDBRANCH   9  11
ENDBRANCH   1   9
BRANCH   4  22
HETATM   22  N2  UNL     1      28.723   7.698  47.151  1.00  0.00    -0.341 N 
HETATM   23  H19 UNL     1      28.750   8.189  46.216  1.00  0.00     0.167 HD
BRANCH  22  24
HETATM   24  C14 UNL     1      29.895   7.191  47.786  1.00  0.00     0.035 A 
HETATM   25  C15 UNL     1      30.493   7.941  48.790  1.00  0.00     0.032 A 
HETATM   26  C16 UNL     1      31.633   7.463  49.418  1.00  0.00     0.046 A 
HETATM   27  C17 UNL     1      32.185   6.246  49.058  1.00  0.00     0.138 A 
HETATM   28  F1  UNL     1      33.299   5.792  49.681  1.00  0.00    -0.204 F 
HETATM   29  C18 UNL     1      31.595   5.483  48.052  1.00  0.00     0.074 A 
HETATM   30 CL1  UNL     1      32.263   3.926  47.559  1.00  0.00    -0.081 Cl
HETATM   31  C19 UNL     1      30.461   5.985  47.446  1.00  0.00     0.056 A 
ENDBRANCH  22  24
ENDBRANCH   4  22
TORSDOF 7
ENDMDL
MODEL 7
REMARK VINA RESULT:      -8.0      3.909      7.228
REMARK  7 active torsions:
REMARK  status: ('A' for Active; 'I' for Inactive)
REMARK    1  A    between atoms: C5_7  and  C6_8 
REMARK    2  A    between atoms: C6_8  and  C7_9 
REMARK    3  A    between atoms: C7_9  and  O2_10 
REMARK    4  A    between atoms: O2_10  and  C8_11 
REMARK    5  A    between atoms: C8_11  and  C10_13 
REMARK    6  A    between atoms: C13_16  and  N2_17 
REMARK    7  A    between atoms: N2_17  and  C14_18 
ROOT
HETATM    1  C10 UNL     1      22.584   0.798  52.258  1.00  0.00     0.085 A 
HETATM    2  C11 UNL     1      23.522   1.551  51.697  1.00  0.00     0.035 A 
HETATM    3  C12 UNL     1      23.577   2.344  50.465  1.00  0.00     0.052 A 
HETATM    4  C13 UNL     1      22.706   2.515  49.478  1.00  0.00     0.129 A 
HETATM    5  N3  UNL     1      21.384   2.054  49.142  1.00  0.00    -0.223 NA
HETATM    6  C20 UNL     1      20.504   1.312  49.725  1.00  0.00     0.259 A 
HETATM    7  N4  UNL     1      20.443   0.610  50.978  1.00  0.00    -0.143 NA
HETATM    8  N5  UNL     1      21.237   0.401  51.967  1.00  0.00    -0.151 NA
ENDROOT
BRANCH   1   9
HETATM    9  C8  UNL     1      22.998   0.175  53.541  1.00  0.00     0.170 C 
HETATM   10  C9  UNL     1      22.526  -1.268  53.439  1.00  0.00     0.046 C 
BRANCH   9  11
HETATM   11  O2  UNL     1      24.353   0.277  53.698  1.00  0.00    -0.380 OA
BRANCH  11  12
HETATM   12  C7  UNL     1      25.085  -0.863  53.536  1.00  0.00     0.171 C 
BRANCH  12  13
HETATM   13  C6  UNL     1      26.505  -0.677  53.092  1.00  0.00     0.066 C 
BRANCH  13  14
HETATM   14  C5  UNL     1      27.374  -0.203  54.215  1.00  0.00     0.255 C 
HETATM   15  C2  UNL     1      28.822  -0.236  53.789  1.00  0.00    -0.033 C 
HETATM   16  C1  UNL     1      29.239  -1.448  53.458  1.00  0.00     0.019 C 
HETATM   17  C3  UNL     1      29.422   1.147  53.854  1.00  0.00     0.205 C 
HETATM   18  O1  UNL     1      28.661   1.989  53.036  1.00  0.00    -0.358 OA
HETATM   19  C4  UNL     1      27.359   2.109  53.527  1.00  0.00     0.438 C 
HETATM   20  N1  UNL     1      27.100   1.175  54.581  1.00  0.00     0.115 N 
HETATM   21  H7  UNL     1      26.178   1.340  54.994  1.00  0.00     0.319 HD
ENDBRANCH  13  14
ENDBRANCH  12  13
ENDBRANCH  11  12
ENDBRANCH   9  11
ENDBRANCH   1   9
BRANCH   4  22
HETATM   22  N2  UNL     1      23.169   3.387  48.451  1.00  0.00    -0.341 N 
HETATM   23  H19 UNL     1      23.340   3.292  47.413  1.00  0.00     0.167 HD
BRANCH  22  24
HETATM   24  C14 UNL     1      23.402   4.603  49.159  1.00  0.00     0.035 A 
HETATM   25  C15 UNL     1      24.710   4.993  49.411  1.00  0.00     0.032 A 
HETATM   26  C16 UNL     1      24.955   6.172  50.098  1.00  0.00     0.046 A 
HETATM   27  C17 UNL     1      23.912   6.969  50.537  1.00  0.00     0.138 A 
HETATM   28  F1  UNL     1      24.167   8.118  51.206  1.00  0.00    -0.204 F 
HETATM   29  C18 UNL     1      22.594   6.589  50.290  1.00  0.00     0.074 A 
HETATM   30 CL1  UNL     1      21.232   7.572  50.832  1.00  0.00    -0.081 Cl
HETATM   31  C19 UNL     1      22.382   5.410  49.605  1.00  0.00     0.056 A 
ENDBRANCH  22  24
ENDBRANCH   4  22
TORSDOF 7
ENDMDL
MODEL 8
REMARK VINA RESULT:      -8.0      4.936      8.401
REMARK  7 active torsions:
REMARK  status: ('A' for Active; 'I' for Inactive)
REMARK    1  A    between atoms: C5_7  and  C6_8 
REMARK    2  A    between atoms: C6_8  and  C7_9 
REMARK    3  A    between atoms: C7_9  and  O2_10 
REMARK    4  A    between atoms: O2_10  and  C8_11 
REMARK    5  A    between atoms: C8_11  and  C10_13 
REMARK    6  A    between atoms: C13_16  and  N2_17 
REMARK    7  A    between atoms: N2_17  and  C14_18 
ROOT
HETATM    1  C10 UNL     1      25.855   6.197  49.655  1.00  0.00     0.085 A 
HETATM    2  C11 UNL     1      26.079   4.937  49.307  1.00  0.00     0.035 A 
HETATM    3  C12 UNL     1      25.515   3.654  49.740  1.00  0.00     0.052 A 
HETATM    4  C13 UNL     1      24.625   3.345  50.675  1.00  0.00     0.129 A 
HETATM    5  N3  UNL     1      23.830   4.044  51.650  1.00  0.00    -0.223 NA
HETATM    6  C20 UNL     1      23.647   5.284  51.956  1.00  0.00     0.259 A 
HETATM    7  N4  UNL     1      24.153   6.534  51.457  1.00  0.00    -0.143 NA
HETATM    8  N5  UNL     1      25.007   6.904  50.570  1.00  0.00    -0.151 NA
ENDROOT
BRANCH   1   9
HETATM    9  C8  UNL     1      26.691   7.183  48.922  1.00  0.00     0.170 C 
HETATM   10  C9  UNL     1      26.824   8.361  49.877  1.00  0.00     0.046 C 
BRANCH   9  11
HETATM   11  O2  UNL     1      27.898   6.628  48.598  1.00  0.00    -0.380 OA
BRANCH  11  12
HETATM   12  C7  UNL     1      28.506   7.083  47.464  1.00  0.00     0.171 C 
BRANCH  12  13
HETATM   13  C6  UNL     1      29.994   6.907  47.400  1.00  0.00     0.066 C 
BRANCH  13  14
HETATM   14  C5  UNL     1      30.514   6.182  48.602  1.00  0.00     0.255 C 
HETATM   15  C2  UNL     1      31.767   5.422  48.237  1.00  0.00    -0.033 C 
HETATM   16  C1  UNL     1      31.569   4.517  47.291  1.00  0.00     0.019 C 
HETATM   17  C3  UNL     1      32.934   5.904  49.064  1.00  0.00     0.205 C 
HETATM   18  O1  UNL     1      33.082   7.279  48.846  1.00  0.00    -0.358 OA
HETATM   19  C4  UNL     1      31.964   7.974  49.313  1.00  0.00     0.438 C 
HETATM   20  N1  UNL     1      30.897   7.088  49.669  1.00  0.00     0.115 N 
HETATM   21  H7  UNL     1      30.124   7.604  50.099  1.00  0.00     0.319 HD
ENDBRANCH  13  14
ENDBRANCH  12  13
ENDBRANCH  11  12
ENDBRANCH   9  11
ENDBRANCH   1   9
BRANCH   4  22
HETATM   22  N2  UNL     1      24.355   1.950  50.768  1.00  0.00    -0.341 N 
HETATM   23  H19 UNL     1      23.773   1.264  50.214  1.00  0.00     0.167 HD
BRANCH  22  24
HETATM   24  C14 UNL     1      25.116   1.562  51.910  1.00  0.00     0.035 A 
HETATM   25  C15 UNL     1      24.595   0.609  52.773  1.00  0.00     0.032 A 
HETATM   26  C16 UNL     1      25.322   0.220  53.888  1.00  0.00     0.046 A 
HETATM   27  C17 UNL     1      26.564   0.771  54.154  1.00  0.00     0.138 A 
HETATM   28  F1  UNL     1      27.262   0.381  55.247  1.00  0.00    -0.204 F 
HETATM   29  C18 UNL     1      27.099   1.729  53.295  1.00  0.00     0.074 A 
HETATM   30 CL1  UNL     1      28.677   2.460  53.594  1.00  0.00    -0.081 Cl
HETATM   31  C19 UNL     1      26.352   2.095  52.195  1.00  0.00     0.056 A 
ENDBRANCH  22  24
ENDBRANCH   4  22
TORSDOF 7
ENDMDL
MODEL 9
REMARK VINA RESULT:      -7.9      6.646      8.870
REMARK  7 active torsions:
REMARK  status: ('A' for Active; 'I' for Inactive)
REMARK    1  A    between atoms: C5_7  and  C6_8 
REMARK    2  A    between atoms: C6_8  and  C7_9 
REMARK    3  A    between atoms: C7_9  and  O2_10 
REMARK    4  A    between atoms: O2_10  and  C8_11 
REMARK    5  A    between atoms: C8_11  and  C10_13 
REMARK    6  A    between atoms: C13_16  and  N2_17 
REMARK    7  A    between atoms: N2_17  and  C14_18 
ROOT
HETATM    1  C10 UNL     1      26.655   5.496  48.902  1.00  0.00     0.085 A 
HETATM    2  C11 UNL     1      26.131   6.601  48.387  1.00  0.00     0.035 A 
HETATM    3  C12 UNL     1      26.665   7.671  47.538  1.00  0.00     0.052 A 
HETATM    4  C13 UNL     1      27.880   7.900  47.057  1.00  0.00     0.129 A 
HETATM    5  N3  UNL     1      29.176   7.275  47.113  1.00  0.00    -0.223 NA
HETATM    6  C20 UNL     1      29.641   6.191  47.635  1.00  0.00     0.259 A 
HETATM    7  N4  UNL     1      29.075   5.111  48.397  1.00  0.00    -0.143 NA
HETATM    8  N5  UNL     1      27.924   4.828  48.895  1.00  0.00    -0.151 NA
ENDROOT
BRANCH   1   9
HETATM    9  C8  UNL     1      25.703   4.701  49.719  1.00  0.00     0.170 C 
HETATM   10  C9  UNL     1      24.381   4.794  48.970  1.00  0.00     0.046 C 
BRANCH   9  11
HETATM   11  O2  UNL     1      26.150   3.414  49.842  1.00  0.00    -0.380 OA
BRANCH  11  12
HETATM   12  C7  UNL     1      25.798   2.740  50.976  1.00  0.00     0.171 C 
BRANCH  12  13
HETATM   13  C6  UNL     1      26.856   1.862  51.574  1.00  0.00     0.066 C 
BRANCH  13  14
HETATM   14  C5  UNL     1      26.614   1.626  53.033  1.00  0.00     0.255 C 
HETATM   15  C2  UNL     1      27.091   0.244  53.411  1.00  0.00    -0.033 C 
HETATM   16  C1  UNL     1      26.469  -0.720  52.751  1.00  0.00     0.019 C 
HETATM   17  C3  UNL     1      28.170   0.330  54.463  1.00  0.00     0.205 C 
HETATM   18  O1  UNL     1      29.211   1.114  53.954  1.00  0.00    -0.358 OA
HETATM   19  C4  UNL     1      28.779   2.424  53.735  1.00  0.00     0.438 C 
HETATM   20  N1  UNL     1      27.359   2.546  53.872  1.00  0.00     0.115 N 
HETATM   21  H7  UNL     1      27.070   3.526  53.805  1.00  0.00     0.319 HD
ENDBRANCH  13  14
ENDBRANCH  12  13
ENDBRANCH  11  12
ENDBRANCH   9  11
ENDBRANCH   1   9
BRANCH   4  22
HETATM   22  N2  UNL     1      27.967   9.078  46.259  1.00  0.00    -0.341 N 
HETATM   23  H19 UNL     1      27.636   9.351  45.294  1.00  0.00     0.167 HD
BRANCH  22  24
HETATM   24  C14 UNL     1      28.687   9.972  47.105  1.00  0.00     0.035 A 
HETATM   25  C15 UNL     1      28.025  10.571  48.168  1.00  0.00     0.032 A 
HETATM   26  C16 UNL     1      28.710  11.443  49.000  1.00  0.00     0.046 A 
HETATM   27  C17 UNL     1      30.047  11.727  48.787  1.00  0.00     0.138 A 
HETATM   28  F1  UNL     1      30.703  12.580  49.609  1.00  0.00    -0.204 F 
HETATM   29  C18 UNL     1      30.725  11.132  47.723  1.00  0.00     0.074 A 
HETATM   30 CL1  UNL     1      32.429  11.464  47.411  1.00  0.00    -0.081 Cl
HETATM   31  C19 UNL     1      30.016  10.269  46.912  1.00  0.00     0.056 A 
ENDBRANCH  22  24
ENDBRANCH   4  22
TORSDOF 7
ENDMDL
