MODEL 1
REMARK VINA RESULT:      -9.1      0.000      0.000
REMARK  7 active torsions:
REMARK  status: ('A' for Active; 'I' for Inactive)
REMARK    1  A    between atoms: O1_2  and  C2_3 
REMARK    2  A    between atoms: C5_6  and  C6_7 
REMARK    3  A    between atoms: C8_9  and  C9_10 
REMARK    4  A    between atoms: C9_10  and  C14_15 
REMARK    5  A    between atoms: C11_12  and  C12_13 
REMARK    6  A    between atoms: N2_17  and  C15_18 
REMARK    7  A    between atoms: C16_20  and  O2_21 
ROOT
HETATM    1  C6  UNL     1      25.243   2.095  52.645  1.00  0.00     0.151 C 
HETATM    2  C7  UNL     1      24.925   2.446  51.174  1.00  0.00     0.090 C 
HETATM    3  C8  UNL     1      26.205   3.037  50.804  1.00  0.00     0.049 C 
HETATM    4  N1  UNL     1      27.067   2.525  51.561  1.00  0.00    -0.177 NA
HETATM    5  N2  UNL     1      26.564   1.613  52.452  1.00  0.00    -0.237 N 
ENDROOT
BRANCH   1   6
HETATM    6  C5  UNL     1      24.253   1.065  52.984  1.00  0.00    -0.033 A 
HETATM    7  C4  UNL     1      24.383   0.145  54.006  1.00  0.00     0.012 A 
HETATM    8  C3  UNL     1      23.466  -0.817  54.336  1.00  0.00     0.037 A 
HETATM    9  C2  UNL     1      22.292  -0.907  53.606  1.00  0.00     0.068 A 
HETATM   10  C19 UNL     1      22.097  -0.013  52.568  1.00  0.00     0.037 A 
HETATM   11  C18 UNL     1      23.048   0.930  52.279  1.00  0.00     0.012 A 
BRANCH   9  12
HETATM   12  O1  UNL     1      21.309  -1.841  53.864  1.00  0.00    -0.356 OA
HETATM   13  C1  UNL     1      19.929  -1.520  53.892  1.00  0.00     0.210 C 
ENDBRANCH   9  12
ENDBRANCH   1   6
BRANCH   5  14
HETATM   14  C15 UNL     1      27.499   0.568  52.834  1.00  0.00     0.192 A 
HETATM   15  N3  UNL     1      27.397  -0.662  52.721  1.00  0.00    -0.198 NA
HETATM   16  C16 UNL     1      28.382  -1.454  53.132  1.00  0.00     0.171 A 
HETATM   17  C17 UNL     1      29.535  -0.919  53.694  1.00  0.00     0.111 A 
HETATM   18  S1  UNL     1      29.137   0.910  53.608  1.00  0.00    -0.058 SA
BRANCH  16  19
HETATM   19  O2  UNL     1      28.139  -2.831  52.947  1.00  0.00    -0.344 OA
HETATM   20  H12 UNL     1      28.344  -3.518  53.634  1.00  0.00     0.219 HD
ENDBRANCH  16  19
ENDBRANCH   5  14
BRANCH   3  21
HETATM   21  C9  UNL     1      26.587   4.114  49.722  1.00  0.00     0.042 A 
HETATM   22  C10 UNL     1      25.621   5.159  49.056  1.00  0.00     0.045 A 
HETATM   23  C11 UNL     1      26.747   5.103  48.812  1.00  0.00    -0.054 A 
BRANCH  23  24
HETATM   24  C12 UNL     1      27.773   5.035  48.604  1.00  0.00    -0.064 A 
HETATM   25  C13 UNL     1      28.875   4.986  48.375  1.00  0.00     0.034 A 
HETATM   26  C14 UNL     1      28.049   6.321  48.216  1.00  0.00     0.043 A 
ENDBRANCH  23  24
ENDBRANCH   3  21
TORSDOF 7
ENDMDL
MODEL 2
REMARK VINA RESULT:      -8.5      2.770      7.021
REMARK  7 active torsions:
REMARK  status: ('A' for Active; 'I' for Inactive)
REMARK    1  A    between atoms: O1_2  and  C2_3 
REMARK    2  A    between atoms: C5_6  and  C6_7 
REMARK    3  A    between atoms: C8_9  and  C9_10 
REMARK    4  A    between atoms: C9_10  and  C14_15 
REMARK    5  A    between atoms: C11_12  and  C12_13 
REMARK    6  A    between atoms: N2_17  and  C15_18 
REMARK    7  A    between atoms: C16_20  and  O2_21 
ROOT
HETATM    1  C6  UNL     1      24.688   1.995  50.791  1.00  0.00     0.151 C 
HETATM    2  C7  UNL     1      23.419   2.469  51.534  1.00  0.00     0.090 C 
HETATM    3  C8  UNL     1      23.214   1.307  52.391  1.00  0.00     0.049 C 
HETATM    4  N1  UNL     1      24.342   0.776  52.547  1.00  0.00    -0.177 NA
HETATM    5  N2  UNL     1      25.364   1.421  51.900  1.00  0.00    -0.237 N 
ENDROOT
BRANCH   1   6
HETATM    6  C5  UNL     1      25.283   3.237  50.280  1.00  0.00    -0.033 A 
HETATM    7  C4  UNL     1      24.774   4.503  50.483  1.00  0.00     0.012 A 
HETATM    8  C3  UNL     1      25.321   5.669  50.016  1.00  0.00     0.037 A 
HETATM    9  C2  UNL     1      26.488   5.614  49.272  1.00  0.00     0.068 A 
HETATM   10  C19 UNL     1      27.053   4.375  49.032  1.00  0.00     0.037 A 
HETATM   11  C18 UNL     1      26.463   3.238  49.521  1.00  0.00     0.012 A 
BRANCH   9  12
HETATM   12  O1  UNL     1      27.114   6.733  48.761  1.00  0.00    -0.356 OA
HETATM   13  C1  UNL     1      28.380   6.686  48.128  1.00  0.00     0.210 C 
ENDBRANCH   9  12
ENDBRANCH   1   6
BRANCH   5  14
HETATM   14  C15 UNL     1      26.660   1.292  52.545  1.00  0.00     0.192 A 
HETATM   15  N3  UNL     1      27.513   2.160  52.783  1.00  0.00    -0.198 NA
HETATM   16  C16 UNL     1      28.644   1.832  53.397  1.00  0.00     0.171 A 
HETATM   17  C17 UNL     1      28.890   0.518  53.780  1.00  0.00     0.111 A 
HETATM   18  S1  UNL     1      27.316  -0.307  53.186  1.00  0.00    -0.058 SA
BRANCH  16  19
HETATM   19  O2  UNL     1      29.528   2.910  53.606  1.00  0.00    -0.344 OA
HETATM   20  H12 UNL     1      29.449   3.780  53.132  1.00  0.00     0.219 HD
ENDBRANCH  16  19
ENDBRANCH   5  14
BRANCH   3  21
HETATM   21  C9  UNL     1      21.917   0.705  53.045  1.00  0.00     0.042 A 
HETATM   22  C10 UNL     1      20.520   1.412  53.182  1.00  0.00     0.045 A 
HETATM   23  C11 UNL     1      20.716   0.336  53.548  1.00  0.00    -0.054 A 
BRANCH  23  24
HETATM   24  C12 UNL     1      20.915  -0.641  53.875  1.00  0.00    -0.064 A 
HETATM   25  C13 UNL     1      21.141  -1.682  54.244  1.00  0.00     0.034 A 
HETATM   26  C14 UNL     1      21.615  -0.397  55.028  1.00  0.00     0.043 A 
ENDBRANCH  23  24
ENDBRANCH   3  21
TORSDOF 7
ENDMDL
MODEL 3
REMARK VINA RESULT:      -8.4      3.671      5.668
REMARK  7 active torsions:
REMARK  status: ('A' for Active; 'I' for Inactive)
REMARK    1  A    between atoms: O1_2  and  C2_3 
REMARK    2  A    between atoms: C5_6  and  C6_7 
REMARK    3  A    between atoms: C8_9  and  C9_10 
REMARK    4  A    between atoms: C9_10  and  C14_15 
REMARK    5  A    between atoms: C11_12  and  C12_13 
REMARK    6  A    between atoms: N2_17  and  C15_18 
REMARK    7  A    between atoms: C16_20  and  O2_21 
ROOT
HETATM    1  C6  UNL     1      24.193   0.930  51.892  1.00  0.00     0.151 C 
HETATM    2  C7  UNL     1      25.050   0.582  53.129  1.00  0.00     0.090 C 
HETATM    3  C8  UNL     1      26.206   1.423  52.844  1.00  0.00     0.049 C 
HETATM    4  N1  UNL     1      25.790   2.372  52.133  1.00  0.00    -0.177 NA
HETATM    5  N2  UNL     1      24.447   2.326  51.862  1.00  0.00    -0.237 N 
ENDROOT
BRANCH   1   6
HETATM    6  C5  UNL     1      22.828   0.559  52.291  1.00  0.00    -0.033 A 
HETATM    7  C4  UNL     1      21.750   0.463  51.435  1.00  0.00     0.012 A 
HETATM    8  C3  UNL     1      20.475   0.114  51.793  1.00  0.00     0.037 A 
HETATM    9  C2  UNL     1      20.204  -0.177  53.121  1.00  0.00     0.068 A 
HETATM   10  C19 UNL     1      21.241  -0.101  54.032  1.00  0.00     0.037 A 
HETATM   11  C18 UNL     1      22.499   0.255  53.620  1.00  0.00     0.012 A 
BRANCH   9  12
HETATM   12  O1  UNL     1      18.952  -0.539  53.576  1.00  0.00    -0.356 OA
HETATM   13  C1  UNL     1      17.905  -0.944  52.712  1.00  0.00     0.210 C 
ENDBRANCH   9  12
ENDBRANCH   1   6
BRANCH   5  14
HETATM   14  C15 UNL     1      23.830   3.628  51.666  1.00  0.00     0.192 A 
HETATM   15  N3  UNL     1      24.270   4.757  51.927  1.00  0.00    -0.198 NA
HETATM   16  C16 UNL     1      23.540   5.835  51.660  1.00  0.00     0.171 A 
HETATM   17  C17 UNL     1      22.279   5.715  51.088  1.00  0.00     0.111 A 
HETATM   18  S1  UNL     1      22.156   3.853  50.927  1.00  0.00    -0.058 SA
BRANCH  16  19
HETATM   19  O2  UNL     1      24.155   7.055  52.008  1.00  0.00    -0.344 OA
HETATM   20  H12 UNL     1      25.135   7.154  52.144  1.00  0.00     0.219 HD
ENDBRANCH  16  19
ENDBRANCH   5  14
BRANCH   3  21
HETATM   21  C9  UNL     1      27.720   1.294  53.252  1.00  0.00     0.042 A 
HETATM   22  C10 UNL     1      28.684   2.466  53.660  1.00  0.00     0.045 A 
HETATM   23  C11 UNL     1      29.014   1.361  53.643  1.00  0.00    -0.054 A 
BRANCH  23  24
HETATM   24  C12 UNL     1      29.293   0.350  53.620  1.00  0.00    -0.064 A 
HETATM   25  C13 UNL     1      29.583  -0.740  53.619  1.00  0.00     0.034 A 
HETATM   26  C14 UNL     1      28.739  -0.103  54.790  1.00  0.00     0.043 A 
ENDBRANCH  23  24
ENDBRANCH   3  21
TORSDOF 7
ENDMDL
MODEL 4
REMARK VINA RESULT:      -8.3      2.974      7.113
REMARK  7 active torsions:
REMARK  status: ('A' for Active; 'I' for Inactive)
REMARK    1  A    between atoms: O1_2  and  C2_3 
REMARK    2  A    between atoms: C5_6  and  C6_7 
REMARK    3  A    between atoms: C8_9  and  C9_10 
REMARK    4  A    between atoms: C9_10  and  C14_15 
REMARK    5  A    between atoms: C11_12  and  C12_13 
REMARK    6  A    between atoms: N2_17  and  C15_18 
REMARK    7  A    between atoms: C16_20  and  O2_21 
ROOT
HETATM    1  C6  UNL     1      23.775   0.950  53.322  1.00  0.00     0.151 C 
HETATM    2  C7  UNL     1      22.878  -0.229  52.882  1.00  0.00     0.090 C 
HETATM    3  C8  UNL     1      21.765   0.531  52.327  1.00  0.00     0.049 C 
HETATM    4  N1  UNL     1      22.235   1.637  51.963  1.00  0.00    -0.177 NA
HETATM    5  N2  UNL     1      23.580   1.779  52.186  1.00  0.00    -0.237 N 
ENDROOT
BRANCH   1   6
HETATM    6  C5  UNL     1      25.113   0.355  53.431  1.00  0.00    -0.033 A 
HETATM    7  C4  UNL     1      25.596  -0.664  52.634  1.00  0.00     0.012 A 
HETATM    8  C3  UNL     1      26.843  -1.224  52.722  1.00  0.00     0.037 A 
HETATM    9  C2  UNL     1      27.726  -0.753  53.680  1.00  0.00     0.068 A 
HETATM   10  C19 UNL     1      27.306   0.269  54.511  1.00  0.00     0.037 A 
HETATM   11  C18 UNL     1      26.047   0.793  54.382  1.00  0.00     0.012 A 
BRANCH   9  12
HETATM   12  O1  UNL     1      29.002  -1.253  53.843  1.00  0.00    -0.356 OA
HETATM   13  C1  UNL     1      30.167  -0.512  53.524  1.00  0.00     0.210 C 
ENDBRANCH   9  12
ENDBRANCH   1   6
BRANCH   5  14
HETATM   14  C15 UNL     1      24.256   2.656  51.244  1.00  0.00     0.192 A 
HETATM   15  N3  UNL     1      25.465   2.898  51.120  1.00  0.00    -0.198 NA
HETATM   16  C16 UNL     1      25.884   3.736  50.178  1.00  0.00     0.171 A 
HETATM   17  C17 UNL     1      24.979   4.352  49.322  1.00  0.00     0.111 A 
HETATM   18  S1  UNL     1      23.369   3.634  49.958  1.00  0.00    -0.058 SA
BRANCH  16  19
HETATM   19  O2  UNL     1      27.281   3.925  50.145  1.00  0.00    -0.344 OA
HETATM   20  H12 UNL     1      27.724   4.629  49.601  1.00  0.00     0.219 HD
ENDBRANCH  16  19
ENDBRANCH   5  14
BRANCH   3  21
HETATM   21  C9  UNL     1      20.239   0.185  52.164  1.00  0.00     0.042 A 
HETATM   22  C10 UNL     1      19.325  -0.543  53.215  1.00  0.00     0.045 A 
HETATM   23  C11 UNL     1      18.933  -0.166  52.198  1.00  0.00    -0.054 A 
BRANCH  23  24
HETATM   24  C12 UNL     1      18.596   0.184  51.268  1.00  0.00    -0.064 A 
HETATM   25  C13 UNL     1      18.213   0.549  50.273  1.00  0.00     0.034 A 
HETATM   26  C14 UNL     1      17.327  -0.335  51.234  1.00  0.00     0.043 A 
ENDBRANCH  23  24
ENDBRANCH   3  21
TORSDOF 7
ENDMDL
MODEL 5
REMARK VINA RESULT:      -8.2      3.600      6.595
REMARK  7 active torsions:
REMARK  status: ('A' for Active; 'I' for Inactive)
REMARK    1  A    between atoms: O1_2  and  C2_3 
REMARK    2  A    between atoms: C5_6  and  C6_7 
REMARK    3  A    between atoms: C8_9  and  C9_10 
REMARK    4  A    between atoms: C9_10  and  C14_15 
REMARK    5  A    between atoms: C11_12  and  C12_13 
REMARK    6  A    between atoms: N2_17  and  C15_18 
REMARK    7  A    between atoms: C16_20  and  O2_21 
ROOT
HETATM    1  C6  UNL     1      24.285   2.367  52.872  1.00  0.00     0.151 C 
HETATM    2  C7  UNL     1      25.408   1.761  52.003  1.00  0.00     0.090 C 
HETATM    3  C8  UNL     1      25.664   0.553  52.778  1.00  0.00     0.049 C 
HETATM    4  N1  UNL     1      24.598   0.287  53.387  1.00  0.00    -0.177 NA
HETATM    5  N2  UNL     1      23.576   1.168  53.144  1.00  0.00    -0.237 N 
ENDROOT
BRANCH   1   6
HETATM    6  C5  UNL     1      23.600   3.299  51.966  1.00  0.00    -0.033 A 
HETATM    7  C4  UNL     1      23.548   3.175  50.593  1.00  0.00     0.012 A 
HETATM    8  C3  UNL     1      22.909   4.033  49.737  1.00  0.00     0.037 A 
HETATM    9  C2  UNL     1      22.244   5.132  50.258  1.00  0.00     0.068 A 
HETATM   10  C19 UNL     1      22.256   5.315  51.628  1.00  0.00     0.037 A 
HETATM   11  C18 UNL     1      22.912   4.426  52.440  1.00  0.00     0.012 A 
BRANCH   9  12
HETATM   12  O1  UNL     1      21.572   6.050  49.477  1.00  0.00    -0.356 OA
HETATM   13  C1  UNL     1      20.997   7.234  50.001  1.00  0.00     0.210 C 
ENDBRANCH   9  12
ENDBRANCH   1   6
BRANCH   5  14
HETATM   14  C15 UNL     1      22.247   0.587  53.241  1.00  0.00     0.192 A 
HETATM   15  N3  UNL     1      21.854  -0.374  53.918  1.00  0.00    -0.198 NA
HETATM   16  C16 UNL     1      20.579  -0.747  53.870  1.00  0.00     0.171 A 
HETATM   17  C17 UNL     1      19.672  -0.072  53.062  1.00  0.00     0.111 A 
HETATM   18  S1  UNL     1      20.791   1.229  52.309  1.00  0.00    -0.058 SA
BRANCH  16  19
HETATM   19  O2  UNL     1      20.264  -1.853  54.686  1.00  0.00    -0.344 OA
HETATM   20  H12 UNL     1      19.432  -2.387  54.585  1.00  0.00     0.219 HD
ENDBRANCH  16  19
ENDBRANCH   5  14
BRANCH   3  21
HETATM   21  C9  UNL     1      26.953  -0.334  52.938  1.00  0.00     0.042 A 
HETATM   22  C10 UNL     1      27.087  -1.864  52.603  1.00  0.00     0.045 A 
HETATM   23  C11 UNL     1      27.967  -1.229  52.994  1.00  0.00    -0.054 A 
BRANCH  23  24
HETATM   24  C12 UNL     1      28.755  -0.634  53.350  1.00  0.00    -0.064 A 
HETATM   25  C13 UNL     1      29.615  -0.015  53.734  1.00  0.00     0.034 A 
HETATM   26  C14 UNL     1      29.755  -1.564  53.469  1.00  0.00     0.043 A 
ENDBRANCH  23  24
ENDBRANCH   3  21
TORSDOF 7
ENDMDL
MODEL 6
REMARK VINA RESULT:      -8.1      3.722      6.173
REMARK  7 active torsions:
REMARK  status: ('A' for Active; 'I' for Inactive)
REMARK    1  A    between atoms: O1_2  and  C2_3 
REMARK    2  A    between atoms: C5_6  and  C6_7 
REMARK    3  A    between atoms: C8_9  and  C9_10 
REMARK    4  A    between atoms: C9_10  and  C14_15 
REMARK    5  A    between atoms: C11_12  and  C12_13 
REMARK    6  A    between atoms: N2_17  and  C15_18 
REMARK    7  A    between atoms: C16_20  and  O2_21 
ROOT
HETATM    1  C6  UNL     1      23.585   1.968  50.840  1.00  0.00     0.151 C 
HETATM    2  C7  UNL     1      23.997   1.243  52.140  1.00  0.00     0.090 C 
HETATM    3  C8  UNL     1      25.445   1.293  51.975  1.00  0.00     0.049 C 
HETATM    4  N1  UNL     1      25.687   2.290  51.249  1.00  0.00    -0.177 NA
HETATM    5  N2  UNL     1      24.572   2.987  50.860  1.00  0.00    -0.237 N 
ENDROOT
BRANCH   1   6
HETATM    6  C5  UNL     1      22.216   2.428  51.110  1.00  0.00    -0.033 A 
HETATM    7  C4  UNL     1      21.417   3.109  50.214  1.00  0.00     0.012 A 
HETATM    8  C3  UNL     1      20.139   3.540  50.451  1.00  0.00     0.037 A 
HETATM    9  C2  UNL     1      19.561   3.286  51.685  1.00  0.00     0.068 A 
HETATM   10  C19 UNL     1      20.307   2.605  52.629  1.00  0.00     0.037 A 
HETATM   11  C18 UNL     1      21.584   2.198  52.340  1.00  0.00     0.012 A 
BRANCH   9  12
HETATM   12  O1  UNL     1      18.280   3.678  52.016  1.00  0.00    -0.356 OA
HETATM   13  C1  UNL     1      17.123   3.017  51.535  1.00  0.00     0.210 C 
ENDBRANCH   9  12
ENDBRANCH   1   6
BRANCH   5  14
HETATM   14  C15 UNL     1      24.800   4.405  50.637  1.00  0.00     0.192 A 
HETATM   15  N3  UNL     1      24.288   5.384  51.199  1.00  0.00    -0.198 NA
HETATM   16  C16 UNL     1      24.642   6.616  50.847  1.00  0.00     0.171 A 
HETATM   17  C17 UNL     1      25.586   6.825  49.848  1.00  0.00     0.111 A 
HETATM   18  S1  UNL     1      25.989   5.055  49.387  1.00  0.00    -0.058 SA
BRANCH  16  19
HETATM   19  O2  UNL     1      23.985   7.638  51.562  1.00  0.00    -0.344 OA
HETATM   20  H12 UNL     1      24.108   7.789  52.537  1.00  0.00     0.219 HD
ENDBRANCH  16  19
ENDBRANCH   5  14
BRANCH   3  21
HETATM   21  C9  UNL     1      26.592   0.361  52.511  1.00  0.00     0.042 A 
HETATM   22  C10 UNL     1      26.622  -1.211  52.471  1.00  0.00     0.045 A 
HETATM   23  C11 UNL     1      27.487  -0.579  52.899  1.00  0.00    -0.054 A 
BRANCH  23  24
HETATM   24  C12 UNL     1      28.263   0.014  53.283  1.00  0.00    -0.064 A 
HETATM   25  C13 UNL     1      29.084   0.651  53.718  1.00  0.00     0.034 A 
HETATM   26  C14 UNL     1      27.867   0.152  54.589  1.00  0.00     0.043 A 
ENDBRANCH  23  24
ENDBRANCH   3  21
TORSDOF 7
ENDMDL
MODEL 7
REMARK VINA RESULT:      -8.1      3.407      5.609
REMARK  7 active torsions:
REMARK  status: ('A' for Active; 'I' for Inactive)
REMARK    1  A    between atoms: O1_2  and  C2_3 
REMARK    2  A    between atoms: C5_6  and  C6_7 
REMARK    3  A    between atoms: C8_9  and  C9_10 
REMARK    4  A    between atoms: C9_10  and  C14_15 
REMARK    5  A    between atoms: C11_12  and  C12_13 
REMARK    6  A    between atoms: N2_17  and  C15_18 
REMARK    7  A    between atoms: C16_20  and  O2_21 
ROOT
HETATM    1  C6  UNL     1      24.558   1.496  51.761  1.00  0.00     0.151 C 
HETATM    2  C7  UNL     1      24.640   3.002  52.099  1.00  0.00     0.090 C 
HETATM    3  C8  UNL     1      23.252   3.365  51.844  1.00  0.00     0.049 C 
HETATM    4  N1  UNL     1      22.573   2.322  52.018  1.00  0.00    -0.177 NA
HETATM    5  N2  UNL     1      23.309   1.224  52.378  1.00  0.00    -0.237 N 
ENDROOT
BRANCH   1   6
HETATM    6  C5  UNL     1      25.723   0.916  52.441  1.00  0.00    -0.033 A 
HETATM    7  C4  UNL     1      26.220  -0.353  52.221  1.00  0.00     0.012 A 
HETATM    8  C3  UNL     1      27.308  -0.904  52.845  1.00  0.00     0.037 A 
HETATM    9  C2  UNL     1      27.998  -0.153  53.783  1.00  0.00     0.068 A 
HETATM   10  C19 UNL     1      27.553   1.129  54.051  1.00  0.00     0.037 A 
HETATM   11  C18 UNL     1      26.457   1.632  53.399  1.00  0.00     0.012 A 
BRANCH   9  12
HETATM   12  O1  UNL     1      29.105  -0.621  54.461  1.00  0.00    -0.356 OA
HETATM   13  C1  UNL     1      30.244  -1.150  53.805  1.00  0.00     0.210 C 
ENDBRANCH   9  12
ENDBRANCH   1   6
BRANCH   5  14
HETATM   14  C15 UNL     1      22.592   0.264  53.202  1.00  0.00     0.192 A 
HETATM   15  N3  UNL     1      23.004  -0.434  54.140  1.00  0.00    -0.198 NA
HETATM   16  C16 UNL     1      22.173  -1.254  54.775  1.00  0.00     0.171 A 
HETATM   17  C17 UNL     1      20.838  -1.343  54.400  1.00  0.00     0.111 A 
HETATM   18  S1  UNL     1      20.799  -0.111  52.990  1.00  0.00    -0.058 SA
BRANCH  16  19
HETATM   19  O2  UNL     1      22.768  -1.991  55.820  1.00  0.00    -0.344 OA
HETATM   20  H12 UNL     1      23.551  -2.588  55.690  1.00  0.00     0.219 HD
ENDBRANCH  16  19
ENDBRANCH   5  14
BRANCH   3  21
HETATM   21  C9  UNL     1      22.587   4.725  51.416  1.00  0.00     0.042 A 
HETATM   22  C10 UNL     1      21.051   5.001  51.228  1.00  0.00     0.045 A 
HETATM   23  C11 UNL     1      21.856   5.813  51.080  1.00  0.00    -0.054 A 
BRANCH  23  24
HETATM   24  C12 UNL     1      22.604   6.538  50.950  1.00  0.00    -0.064 A 
HETATM   25  C13 UNL     1      23.391   7.332  50.802  1.00  0.00     0.034 A 
HETATM   26  C14 UNL     1      21.871   7.589  50.464  1.00  0.00     0.043 A 
ENDBRANCH  23  24
ENDBRANCH   3  21
TORSDOF 7
ENDMDL
MODEL 8
REMARK VINA RESULT:      -8.1      3.397      5.945
REMARK  7 active torsions:
REMARK  status: ('A' for Active; 'I' for Inactive)
REMARK    1  A    between atoms: O1_2  and  C2_3 
REMARK    2  A    between atoms: C5_6  and  C6_7 
REMARK    3  A    between atoms: C8_9  and  C9_10 
REMARK    4  A    between atoms: C9_10  and  C14_15 
REMARK    5  A    between atoms: C11_12  and  C12_13 
REMARK    6  A    between atoms: N2_17  and  C15_18 
REMARK    7  A    between atoms: C16_20  and  O2_21 
ROOT
HETATM    1  C6  UNL     1      24.698   1.739  51.277  1.00  0.00     0.151 C 
HETATM    2  C7  UNL     1      25.028   1.617  52.781  1.00  0.00     0.090 C 
HETATM    3  C8  UNL     1      26.465   1.396  52.678  1.00  0.00     0.049 C 
HETATM    4  N1  UNL     1      26.831   1.928  51.599  1.00  0.00    -0.177 NA
HETATM    5  N2  UNL     1      25.818   2.522  50.892  1.00  0.00    -0.237 N 
ENDROOT
BRANCH   1   6
HETATM    6  C5  UNL     1      23.411   2.448  51.254  1.00  0.00    -0.033 A 
HETATM    7  C4  UNL     1      22.960   3.304  52.238  1.00  0.00     0.012 A 
HETATM    8  C3  UNL     1      21.765   3.975  52.226  1.00  0.00     0.037 A 
HETATM    9  C2  UNL     1      20.909   3.806  51.150  1.00  0.00     0.068 A 
HETATM   10  C19 UNL     1      21.301   2.962  50.128  1.00  0.00     0.037 A 
HETATM   11  C18 UNL     1      22.507   2.314  50.189  1.00  0.00     0.012 A 
BRANCH   9  12
HETATM   12  O1  UNL     1      19.687   4.439  51.048  1.00  0.00    -0.356 OA
HETATM   13  C1  UNL     1      18.457   3.789  51.319  1.00  0.00     0.210 C 
ENDBRANCH   9  12
ENDBRANCH   1   6
BRANCH   5  14
HETATM   14  C15 UNL     1      26.236   3.651  50.078  1.00  0.00     0.192 A 
HETATM   15  N3  UNL     1      27.313   3.849  49.497  1.00  0.00    -0.198 NA
HETATM   16  C16 UNL     1      27.495   4.958  48.789  1.00  0.00     0.171 A 
HETATM   17  C17 UNL     1      26.487   5.911  48.689  1.00  0.00     0.111 A 
HETATM   18  S1  UNL     1      25.154   5.102  49.728  1.00  0.00    -0.058 SA
BRANCH  16  19
HETATM   19  O2  UNL     1      28.763   5.060  48.180  1.00  0.00    -0.344 OA
HETATM   20  H12 UNL     1      29.591   5.293  48.679  1.00  0.00     0.219 HD
ENDBRANCH  16  19
ENDBRANCH   5  14
BRANCH   3  21
HETATM   21  C9  UNL     1      27.481   0.655  53.622  1.00  0.00     0.042 A 
HETATM   22  C10 UNL     1      27.190   0.101  55.064  1.00  0.00     0.045 A 
HETATM   23  C11 UNL     1      28.214  -0.012  54.545  1.00  0.00    -0.054 A 
BRANCH  23  24
HETATM   24  C12 UNL     1      29.137  -0.104  54.054  1.00  0.00    -0.064 A 
HETATM   25  C13 UNL     1      30.121  -0.226  53.519  1.00  0.00     0.034 A 
HETATM   26  C14 UNL     1      28.971  -1.300  53.403  1.00  0.00     0.043 A 
ENDBRANCH  23  24
ENDBRANCH   3  21
TORSDOF 7
ENDMDL
MODEL 9
REMARK VINA RESULT:      -7.7      3.416      6.085
REMARK  7 active torsions:
REMARK  status: ('A' for Active; 'I' for Inactive)
REMARK    1  A    between atoms: O1_2  and  C2_3 
REMARK    2  A    between atoms: C5_6  and  C6_7 
REMARK    3  A    between atoms: C8_9  and  C9_10 
REMARK    4  A    between atoms: C9_10  and  C14_15 
REMARK    5  A    between atoms: C11_12  and  C12_13 
REMARK    6  A    between atoms: N2_17  and  C15_18 
REMARK    7  A    between atoms: C16_20  and  O2_21 
ROOT
HETATM    1  C6  UNL     1      24.173   2.788  52.274  1.00  0.00     0.151 C 
HETATM    2  C7  UNL     1      25.511   2.360  51.630  1.00  0.00     0.090 C 
HETATM    3  C8  UNL     1      26.101   1.675  52.774  1.00  0.00     0.049 C 
HETATM    4  N1  UNL     1      25.143   1.276  53.483  1.00  0.00    -0.177 NA
HETATM    5  N2  UNL     1      23.905   1.590  52.987  1.00  0.00    -0.237 N 
ENDROOT
BRANCH   1   6
HETATM    6  C5  UNL     1      23.291   3.035  51.126  1.00  0.00    -0.033 A 
HETATM    7  C4  UNL     1      23.435   2.465  49.877  1.00  0.00     0.012 A 
HETATM    8  C3  UNL     1      22.618   2.682  48.800  1.00  0.00     0.037 A 
HETATM    9  C2  UNL     1      21.539   3.542  48.936  1.00  0.00     0.068 A 
HETATM   10  C19 UNL     1      21.336   4.146  50.163  1.00  0.00     0.037 A 
HETATM   11  C18 UNL     1      22.186   3.895  51.209  1.00  0.00     0.012 A 
BRANCH   9  12
HETATM   12  O1  UNL     1      20.661   3.822  47.910  1.00  0.00    -0.356 OA
HETATM   13  C1  UNL     1      21.075   4.352  46.663  1.00  0.00     0.210 C 
ENDBRANCH   9  12
ENDBRANCH   1   6
BRANCH   5  14
HETATM   14  C15 UNL     1      22.858   0.646  53.343  1.00  0.00     0.192 A 
HETATM   15  N3  UNL     1      21.650   0.666  53.067  1.00  0.00    -0.198 NA
HETATM   16  C16 UNL     1      20.854  -0.310  53.489  1.00  0.00     0.171 A 
HETATM   17  C17 UNL     1      21.358  -1.362  54.245  1.00  0.00     0.111 A 
HETATM   18  S1  UNL     1      23.164  -0.874  54.341  1.00  0.00    -0.058 SA
BRANCH  16  19
HETATM   19  O2  UNL     1      19.504  -0.167  53.107  1.00  0.00    -0.344 OA
HETATM   20  H12 UNL     1      18.811  -0.858  53.280  1.00  0.00     0.219 HD
ENDBRANCH  16  19
ENDBRANCH   5  14
BRANCH   3  21
HETATM   21  C9  UNL     1      27.598   1.422  53.184  1.00  0.00     0.042 A 
HETATM   22  C10 UNL     1      28.657   2.510  53.589  1.00  0.00     0.045 A 
HETATM   23  C11 UNL     1      28.892   1.381  53.576  1.00  0.00    -0.054 A 
BRANCH  23  24
HETATM   24  C12 UNL     1      29.086   0.350  53.559  1.00  0.00    -0.064 A 
HETATM   25  C13 UNL     1      29.286  -0.759  53.563  1.00  0.00     0.034 A 
HETATM   26  C14 UNL     1      28.636  -0.024  54.799  1.00  0.00     0.043 A 
ENDBRANCH  23  24
ENDBRANCH   3  21
TORSDOF 7
ENDMDL
