MODEL 1
REMARK VINA RESULT:      -8.0      0.000      0.000
REMARK  3 active torsions:
REMARK  status: ('A' for Active; 'I' for Inactive)
REMARK    1  A    between atoms: C3_3  and  C4_4 
REMARK    2  A    between atoms: C14_17  and  O1_18 
REMARK    3  A    between atoms: C15_19  and  O2_20 
ROOT
HETATM    1  C1  UNL     1      17.990   0.152  51.049  1.00  0.00     0.012 C 
HETATM    2  C2  UNL     1      18.573   1.076  51.574  1.00  0.00    -0.113 C 
HETATM    3  C3  UNL     1      19.248   2.192  52.201  1.00  0.00     0.131 C 
ENDROOT
BRANCH   3   4
HETATM    4  C4  UNL     1      20.705   2.195  51.949  1.00  0.00    -0.045 A 
HETATM    5  C5  UNL     1      21.330   3.346  51.468  1.00  0.00     0.009 A 
HETATM    6  C6  UNL     1      22.712   3.320  51.244  1.00  0.00     0.012 A 
HETATM    7  C7  UNL     1      23.561   2.217  51.461  1.00  0.00    -0.007 A 
HETATM    8  C8  UNL     1      22.902   1.099  51.935  1.00  0.00     0.042 A 
HETATM    9  C16 UNL     1      24.914   2.643  51.104  1.00  0.00     0.218 C 
HETATM   10  C9  UNL     1      21.550   1.118  52.157  1.00  0.00     0.038 A 
HETATM   11  N1  UNL     1      23.415  -0.171  52.243  1.00  0.00    -0.344 N 
HETATM   12  C10 UNL     1      24.261  -0.538  53.311  1.00  0.00     0.111 C 
HETATM   13  H7  UNL     1      23.125  -0.948  51.619  1.00  0.00     0.167 HD
HETATM   14  N2  UNL     1      23.451  -0.656  54.301  1.00  0.00    -0.228 NA
HETATM   15  C17 UNL     1      25.671  -0.804  53.541  1.00  0.00     0.137 C 
HETATM   16  C11 UNL     1      24.022  -1.047  55.589  1.00  0.00     0.235 C 
HETATM   17  N3  UNL     1      25.360  -1.214  55.479  1.00  0.00    -0.246 NA
HETATM   18  C12 UNL     1      26.069  -0.163  54.838  1.00  0.00     0.045 C 
HETATM   19  C13 UNL     1      26.899   0.844  54.537  1.00  0.00     0.069 C 
HETATM   20  C14 UNL     1      27.377   1.850  53.560  1.00  0.00     0.125 C 
HETATM   21  C15 UNL     1      26.917   2.092  52.377  1.00  0.00     0.212 C 
HETATM   22  O3  UNL     1      25.899   1.684  51.475  1.00  0.00    -0.324 OA
BRANCH  20  23
HETATM   23  O1  UNL     1      28.432   2.528  54.112  1.00  0.00    -0.356 OA
HETATM   24  H10 UNL     1      29.032   3.153  53.604  1.00  0.00     0.218 HD
ENDBRANCH  20  23
BRANCH  21  25
HETATM   25  O2  UNL     1      27.585   3.094  51.686  1.00  0.00    -0.339 OA
HETATM   26  H11 UNL     1      27.864   3.968  52.126  1.00  0.00     0.220 HD
ENDBRANCH  21  25
ENDBRANCH   3   4
TORSDOF 3
ENDMDL
MODEL 2
REMARK VINA RESULT:      -7.9      3.037      5.598
REMARK  3 active torsions:
REMARK  status: ('A' for Active; 'I' for Inactive)
REMARK    1  A    between atoms: C3_3  and  C4_4 
REMARK    2  A    between atoms: C14_17  and  O1_18 
REMARK    3  A    between atoms: C15_19  and  O2_20 
ROOT
HETATM    1  C1  UNL     1      27.662   7.106  48.215  1.00  0.00     0.012 C 
HETATM    2  C2  UNL     1      27.625   5.907  48.399  1.00  0.00    -0.113 C 
HETATM    3  C3  UNL     1      27.593   4.474  48.598  1.00  0.00     0.131 C 
ENDROOT
BRANCH   3   4
HETATM    4  C4  UNL     1      26.527   4.050  49.530  1.00  0.00    -0.045 A 
HETATM    5  C5  UNL     1      25.186   4.170  49.162  1.00  0.00     0.009 A 
HETATM    6  C6  UNL     1      24.199   3.754  50.064  1.00  0.00     0.012 A 
HETATM    7  C7  UNL     1      24.427   3.211  51.343  1.00  0.00    -0.007 A 
HETATM    8  C8  UNL     1      25.767   3.111  51.668  1.00  0.00     0.042 A 
HETATM    9  C16 UNL     1      23.118   2.915  51.922  1.00  0.00     0.218 C 
HETATM   10  C9  UNL     1      26.738   3.516  50.790  1.00  0.00     0.038 A 
HETATM   11  N1  UNL     1      26.363   2.641  52.849  1.00  0.00    -0.344 N 
HETATM   12  C10 UNL     1      26.413   1.318  53.337  1.00  0.00     0.111 C 
HETATM   13  H7  UNL     1      26.844   3.349  53.435  1.00  0.00     0.167 HD
HETATM   14  N2  UNL     1      27.383   0.797  52.675  1.00  0.00    -0.228 NA
HETATM   15  C17 UNL     1      25.725   0.490  54.313  1.00  0.00     0.137 C 
HETATM   16  C11 UNL     1      27.712  -0.599  52.957  1.00  0.00     0.235 C 
HETATM   17  N3  UNL     1      26.886  -1.094  53.909  1.00  0.00    -0.246 NA
HETATM   18  C12 UNL     1      25.499  -0.865  53.710  1.00  0.00     0.045 C 
HETATM   19  C13 UNL     1      24.179  -0.993  53.523  1.00  0.00     0.069 C 
HETATM   20  C14 UNL     1      22.856  -0.360  53.313  1.00  0.00     0.125 C 
HETATM   21  C15 UNL     1      22.587   0.897  53.180  1.00  0.00     0.212 C 
HETATM   22  O3  UNL     1      23.216   2.169  53.132  1.00  0.00    -0.324 OA
BRANCH  20  23
HETATM   23  O1  UNL     1      21.901  -1.343  53.276  1.00  0.00    -0.356 OA
HETATM   24  H10 UNL     1      21.515  -1.726  52.433  1.00  0.00     0.218 HD
ENDBRANCH  20  23
BRANCH  21  25
HETATM   25  O2  UNL     1      21.241   1.190  53.008  1.00  0.00    -0.339 OA
HETATM   26  H11 UNL     1      20.916   1.903  52.360  1.00  0.00     0.220 HD
ENDBRANCH  21  25
ENDBRANCH   3   4
TORSDOF 3
ENDMDL
MODEL 3
REMARK VINA RESULT:      -7.8      2.449      3.915
REMARK  3 active torsions:
REMARK  status: ('A' for Active; 'I' for Inactive)
REMARK    1  A    between atoms: C3_3  and  C4_4 
REMARK    2  A    between atoms: C14_17  and  O1_18 
REMARK    3  A    between atoms: C15_19  and  O2_20 
ROOT
HETATM    1  C1  UNL     1      21.748   6.070  48.690  1.00  0.00     0.012 C 
HETATM    2  C2  UNL     1      21.651   5.778  49.863  1.00  0.00    -0.113 C 
HETATM    3  C3  UNL     1      21.525   5.452  51.268  1.00  0.00     0.131 C 
ENDROOT
BRANCH   3   4
HETATM    4  C4  UNL     1      22.430   4.361  51.685  1.00  0.00    -0.045 A 
HETATM    5  C5  UNL     1      23.670   4.658  52.251  1.00  0.00     0.009 A 
HETATM    6  C6  UNL     1      24.504   3.603  52.642  1.00  0.00     0.012 A 
HETATM    7  C7  UNL     1      24.210   2.232  52.519  1.00  0.00    -0.007 A 
HETATM    8  C8  UNL     1      22.974   1.982  51.953  1.00  0.00     0.042 A 
HETATM    9  C16 UNL     1      25.354   1.499  53.060  1.00  0.00     0.218 C 
HETATM   10  C9  UNL     1      22.153   3.010  51.568  1.00  0.00     0.038 A 
HETATM   11  N1  UNL     1      22.362   0.752  51.661  1.00  0.00    -0.344 N 
HETATM   12  C10 UNL     1      21.853  -0.207  52.563  1.00  0.00     0.111 C 
HETATM   13  H7  UNL     1      22.251   0.520  50.656  1.00  0.00     0.167 HD
HETATM   14  N2  UNL     1      20.698   0.263  52.871  1.00  0.00    -0.228 NA
HETATM   15  C17 UNL     1      22.261  -1.471  53.153  1.00  0.00     0.137 C 
HETATM   16  C11 UNL     1      19.885  -0.518  53.802  1.00  0.00     0.235 C 
HETATM   17  N3  UNL     1      20.545  -1.639  54.177  1.00  0.00    -0.246 NA
HETATM   18  C12 UNL     1      21.887  -1.458  54.606  1.00  0.00     0.045 C 
HETATM   19  C13 UNL     1      23.031  -1.422  55.303  1.00  0.00     0.069 C 
HETATM   20  C14 UNL     1      24.468  -1.069  55.372  1.00  0.00     0.125 C 
HETATM   21  C15 UNL     1      25.186  -0.476  54.476  1.00  0.00     0.212 C 
HETATM   22  O3  UNL     1      25.095   0.104  53.183  1.00  0.00    -0.324 OA
BRANCH  20  23
HETATM   23  O1  UNL     1      24.961  -1.479  56.583  1.00  0.00    -0.356 OA
HETATM   24  H10 UNL     1      25.585  -2.256  56.707  1.00  0.00     0.218 HD
ENDBRANCH  20  23
BRANCH  21  25
HETATM   25  O2  UNL     1      26.517  -0.292  54.825  1.00  0.00    -0.339 OA
HETATM   26  H11 UNL     1      27.112  -1.058  55.133  1.00  0.00     0.220 HD
ENDBRANCH  21  25
ENDBRANCH   3   4
TORSDOF 3
ENDMDL
MODEL 4
REMARK VINA RESULT:      -7.8      2.945      6.942
REMARK  3 active torsions:
REMARK  status: ('A' for Active; 'I' for Inactive)
REMARK    1  A    between atoms: C3_3  and  C4_4 
REMARK    2  A    between atoms: C14_17  and  O1_18 
REMARK    3  A    between atoms: C15_19  and  O2_20 
ROOT
HETATM    1  C1  UNL     1      30.153  -1.212  53.817  1.00  0.00     0.012 C 
HETATM    2  C2  UNL     1      29.483  -0.209  53.943  1.00  0.00    -0.113 C 
HETATM    3  C3  UNL     1      28.701   0.997  54.110  1.00  0.00     0.131 C 
ENDROOT
BRANCH   3   4
HETATM    4  C4  UNL     1      27.285   0.818  53.727  1.00  0.00    -0.045 A 
HETATM    5  C5  UNL     1      26.407   0.149  54.581  1.00  0.00     0.009 A 
HETATM    6  C6  UNL     1      25.070   0.000  54.194  1.00  0.00     0.012 A 
HETATM    7  C7  UNL     1      24.503   0.469  52.993  1.00  0.00    -0.007 A 
HETATM    8  C8  UNL     1      25.406   1.124  52.177  1.00  0.00     0.042 A 
HETATM    9  C16 UNL     1      23.089   0.100  53.015  1.00  0.00     0.218 C 
HETATM   10  C9  UNL     1      26.716   1.274  52.550  1.00  0.00     0.038 A 
HETATM   11  N1  UNL     1      25.205   1.700  50.912  1.00  0.00    -0.344 N 
HETATM   12  C10 UNL     1      24.467   2.858  50.585  1.00  0.00     0.111 C 
HETATM   13  H7  UNL     1      25.670   1.229  50.112  1.00  0.00     0.167 HD
HETATM   14  N2  UNL     1      25.282   3.813  50.860  1.00  0.00    -0.228 NA
HETATM   15  C17 UNL     1      23.159   3.202  50.054  1.00  0.00     0.137 C 
HETATM   16  C11 UNL     1      24.818   5.178  50.618  1.00  0.00     0.235 C 
HETATM   17  N3  UNL     1      23.556   5.166  50.129  1.00  0.00    -0.246 NA
HETATM   18  C12 UNL     1      22.621   4.365  50.836  1.00  0.00     0.045 C 
HETATM   19  C13 UNL     1      21.578   3.910  51.544  1.00  0.00     0.069 C 
HETATM   20  C14 UNL     1      20.878   2.777  52.193  1.00  0.00     0.125 C 
HETATM   21  C15 UNL     1      21.270   1.549  52.289  1.00  0.00     0.212 C 
HETATM   22  O3  UNL     1      22.356   0.699  51.951  1.00  0.00    -0.324 OA
BRANCH  20  23
HETATM   23  O1  UNL     1      19.693   3.233  52.708  1.00  0.00    -0.356 OA
HETATM   24  H10 UNL     1      18.868   3.407  52.163  1.00  0.00     0.218 HD
ENDBRANCH  20  23
BRANCH  21  25
HETATM   25  O2  UNL     1      20.386   0.706  52.949  1.00  0.00    -0.339 OA
HETATM   26  H11 UNL     1      20.561  -0.290  53.060  1.00  0.00     0.220 HD
ENDBRANCH  21  25
ENDBRANCH   3   4
TORSDOF 3
ENDMDL
MODEL 5
REMARK VINA RESULT:      -7.8      2.531      6.094
REMARK  3 active torsions:
REMARK  status: ('A' for Active; 'I' for Inactive)
REMARK    1  A    between atoms: C3_3  and  C4_4 
REMARK    2  A    between atoms: C14_17  and  O1_18 
REMARK    3  A    between atoms: C15_19  and  O2_20 
ROOT
HETATM    1  C1  UNL     1      29.512  -1.424  53.457  1.00  0.00     0.012 C 
HETATM    2  C2  UNL     1      28.864  -0.512  53.925  1.00  0.00    -0.113 C 
HETATM    3  C3  UNL     1      28.095   0.568  54.507  1.00  0.00     0.131 C 
ENDROOT
BRANCH   3   4
HETATM    4  C4  UNL     1      27.163   1.189  53.543  1.00  0.00    -0.045 A 
HETATM    5  C5  UNL     1      27.623   1.613  52.296  1.00  0.00     0.009 A 
HETATM    6  C6  UNL     1      26.715   2.193  51.402  1.00  0.00     0.012 A 
HETATM    7  C7  UNL     1      25.342   2.399  51.640  1.00  0.00    -0.007 A 
HETATM    8  C8  UNL     1      24.928   1.967  52.886  1.00  0.00     0.042 A 
HETATM    9  C16 UNL     1      24.788   3.020  50.438  1.00  0.00     0.218 C 
HETATM   10  C9  UNL     1      25.812   1.398  53.765  1.00  0.00     0.038 A 
HETATM   11  N1  UNL     1      23.652   2.026  53.469  1.00  0.00    -0.344 N 
HETATM   12  C10 UNL     1      22.495   1.297  53.119  1.00  0.00     0.111 C 
HETATM   13  H7  UNL     1      23.542   2.675  54.271  1.00  0.00     0.167 HD
HETATM   14  N2  UNL     1      22.676   0.165  53.697  1.00  0.00    -0.228 NA
HETATM   15  C17 UNL     1      21.271   1.495  52.361  1.00  0.00     0.137 C 
HETATM   16  C11 UNL     1      21.627  -0.842  53.539  1.00  0.00     0.235 C 
HETATM   17  N3  UNL     1      20.622  -0.358  52.773  1.00  0.00    -0.246 NA
HETATM   18  C12 UNL     1      21.009   0.257  51.553  1.00  0.00     0.045 C 
HETATM   19  C13 UNL     1      21.180   0.589  50.266  1.00  0.00     0.069 C 
HETATM   20  C14 UNL     1      21.802   1.471  49.251  1.00  0.00     0.125 C 
HETATM   21  C15 UNL     1      22.645   2.432  49.441  1.00  0.00     0.212 C 
HETATM   22  O3  UNL     1      23.366   3.091  50.471  1.00  0.00    -0.324 OA
BRANCH  20  23
HETATM   23  O1  UNL     1      21.338   1.108  48.014  1.00  0.00    -0.356 OA
HETATM   24  H10 UNL     1      20.402   0.797  47.828  1.00  0.00     0.218 HD
ENDBRANCH  20  23
BRANCH  21  25
HETATM   25  O2  UNL     1      23.044   3.092  48.287  1.00  0.00    -0.339 OA
HETATM   26  H11 UNL     1      22.737   4.036  48.063  1.00  0.00     0.220 HD
ENDBRANCH  21  25
ENDBRANCH   3   4
TORSDOF 3
ENDMDL
MODEL 6
REMARK VINA RESULT:      -7.7      2.542      3.800
REMARK  3 active torsions:
REMARK  status: ('A' for Active; 'I' for Inactive)
REMARK    1  A    between atoms: C3_3  and  C4_4 
REMARK    2  A    between atoms: C14_17  and  O1_18 
REMARK    3  A    between atoms: C15_19  and  O2_20 
ROOT
HETATM    1  C1  UNL     1      17.915  -2.109  53.488  1.00  0.00     0.012 C 
HETATM    2  C2  UNL     1      17.528  -1.266  52.707  1.00  0.00    -0.113 C 
HETATM    3  C3  UNL     1      17.049  -0.277  51.764  1.00  0.00     0.131 C 
ENDROOT
BRANCH   3   4
HETATM    4  C4  UNL     1      18.030   0.800  51.519  1.00  0.00    -0.045 A 
HETATM    5  C5  UNL     1      17.633   2.137  51.582  1.00  0.00     0.009 A 
HETATM    6  C6  UNL     1      18.587   3.136  51.351  1.00  0.00     0.012 A 
HETATM    7  C7  UNL     1      19.946   2.924  51.051  1.00  0.00    -0.007 A 
HETATM    8  C8  UNL     1      20.297   1.588  50.997  1.00  0.00     0.042 A 
HETATM    9  C16 UNL     1      20.561   4.242  50.899  1.00  0.00     0.218 C 
HETATM   10  C9  UNL     1      19.368   0.605  51.223  1.00  0.00     0.038 A 
HETATM   11  N1  UNL     1      21.542   1.007  50.710  1.00  0.00    -0.344 N 
HETATM   12  C10 UNL     1      22.713   1.013  51.499  1.00  0.00     0.111 C 
HETATM   13  H7  UNL     1      21.613   0.490  49.813  1.00  0.00     0.167 HD
HETATM   14  N2  UNL     1      22.501   0.073  52.347  1.00  0.00    -0.228 NA
HETATM   15  C17 UNL     1      23.974   1.732  51.569  1.00  0.00     0.137 C 
HETATM   16  C11 UNL     1      23.554  -0.194  53.326  1.00  0.00     0.235 C 
HETATM   17  N3  UNL     1      24.597   0.647  53.136  1.00  0.00    -0.246 NA
HETATM   18  C12 UNL     1      24.273   2.024  53.011  1.00  0.00     0.045 C 
HETATM   19  C13 UNL     1      24.167   3.350  53.170  1.00  0.00     0.069 C 
HETATM   20  C14 UNL     1      23.599   4.644  52.725  1.00  0.00     0.125 C 
HETATM   21  C15 UNL     1      22.750   4.855  51.774  1.00  0.00     0.212 C 
HETATM   22  O3  UNL     1      21.980   4.169  50.798  1.00  0.00    -0.324 OA
BRANCH  20  23
HETATM   23  O1  UNL     1      24.123   5.642  53.504  1.00  0.00    -0.356 OA
HETATM   24  H10 UNL     1      25.099   5.875  53.546  1.00  0.00     0.218 HD
ENDBRANCH  20  23
BRANCH  21  25
HETATM   25  O2  UNL     1      22.411   6.188  51.583  1.00  0.00    -0.339 OA
HETATM   26  H11 UNL     1      22.318   6.600  50.658  1.00  0.00     0.220 HD
ENDBRANCH  21  25
ENDBRANCH   3   4
TORSDOF 3
ENDMDL
MODEL 7
REMARK VINA RESULT:      -7.7      2.682      6.181
REMARK  3 active torsions:
REMARK  status: ('A' for Active; 'I' for Inactive)
REMARK    1  A    between atoms: C3_3  and  C4_4 
REMARK    2  A    between atoms: C14_17  and  O1_18 
REMARK    3  A    between atoms: C15_19  and  O2_20 
ROOT
HETATM    1  C1  UNL     1      29.824  -0.916  53.671  1.00  0.00     0.012 C 
HETATM    2  C2  UNL     1      28.734  -1.293  53.295  1.00  0.00    -0.113 C 
HETATM    3  C3  UNL     1      27.445  -1.764  52.836  1.00  0.00     0.131 C 
ENDROOT
BRANCH   3   4
HETATM    4  C4  UNL     1      26.462  -0.672  52.673  1.00  0.00    -0.045 A 
HETATM    5  C5  UNL     1      26.642   0.289  51.678  1.00  0.00     0.009 A 
HETATM    6  C6  UNL     1      25.691   1.308  51.544  1.00  0.00     0.012 A 
HETATM    7  C7  UNL     1      24.538   1.468  52.336  1.00  0.00    -0.007 A 
HETATM    8  C8  UNL     1      24.399   0.497  53.310  1.00  0.00     0.042 A 
HETATM    9  C16 UNL     1      23.838   2.652  51.839  1.00  0.00     0.218 C 
HETATM   10  C9  UNL     1      25.326  -0.504  53.446  1.00  0.00     0.038 A 
HETATM   11  N1  UNL     1      23.397   0.350  54.282  1.00  0.00    -0.344 N 
HETATM   12  C10 UNL     1      22.045  -0.013  54.097  1.00  0.00     0.111 C 
HETATM   13  H7  UNL     1      23.683   0.509  55.266  1.00  0.00     0.167 HD
HETATM   14  N2  UNL     1      22.095  -1.292  53.994  1.00  0.00    -0.228 NA
HETATM   15  C17 UNL     1      20.745   0.633  54.019  1.00  0.00     0.137 C 
HETATM   16  C11 UNL     1      20.829  -1.998  53.801  1.00  0.00     0.235 C 
HETATM   17  N3  UNL     1      19.801  -1.118  53.765  1.00  0.00    -0.246 NA
HETATM   18  C12 UNL     1      19.967  -0.001  52.903  1.00  0.00     0.045 C 
HETATM   19  C13 UNL     1      19.843   0.923  51.941  1.00  0.00     0.069 C 
HETATM   20  C14 UNL     1      20.351   2.147  51.279  1.00  0.00     0.125 C 
HETATM   21  C15 UNL     1      21.424   2.813  51.553  1.00  0.00     0.212 C 
HETATM   22  O3  UNL     1      22.548   2.803  52.421  1.00  0.00    -0.324 OA
BRANCH  20  23
HETATM   23  O1  UNL     1      19.481   2.497  50.280  1.00  0.00    -0.356 OA
HETATM   24  H10 UNL     1      19.416   2.027  49.395  1.00  0.00     0.218 HD
ENDBRANCH  20  23
BRANCH  21  25
HETATM   25  O2  UNL     1      21.631   3.934  50.761  1.00  0.00    -0.339 OA
HETATM   26  H11 UNL     1      20.936   4.272  50.100  1.00  0.00     0.220 HD
ENDBRANCH  21  25
ENDBRANCH   3   4
TORSDOF 3
ENDMDL
MODEL 8
REMARK VINA RESULT:      -7.6      2.974      4.388
REMARK  3 active torsions:
REMARK  status: ('A' for Active; 'I' for Inactive)
REMARK    1  A    between atoms: C3_3  and  C4_4 
REMARK    2  A    between atoms: C14_17  and  O1_18 
REMARK    3  A    between atoms: C15_19  and  O2_20 
ROOT
HETATM    1  C1  UNL     1      22.223   4.813  47.423  1.00  0.00     0.012 C 
HETATM    2  C2  UNL     1      22.250   3.607  47.555  1.00  0.00    -0.113 C 
HETATM    3  C3  UNL     1      22.273   2.166  47.689  1.00  0.00     0.131 C 
ENDROOT
BRANCH   3   4
HETATM    4  C4  UNL     1      22.207   1.722  49.098  1.00  0.00    -0.045 A 
HETATM    5  C5  UNL     1      21.365   0.670  49.461  1.00  0.00     0.009 A 
HETATM    6  C6  UNL     1      21.328   0.268  50.802  1.00  0.00     0.012 A 
HETATM    7  C7  UNL     1      22.076   0.834  51.853  1.00  0.00    -0.007 A 
HETATM    8  C8  UNL     1      22.894   1.872  51.450  1.00  0.00     0.042 A 
HETATM    9  C16 UNL     1      21.728   0.099  53.068  1.00  0.00     0.218 C 
HETATM   10  C9  UNL     1      22.936   2.270  50.139  1.00  0.00     0.038 A 
HETATM   11  N1  UNL     1      23.756   2.673  52.216  1.00  0.00    -0.344 N 
HETATM   12  C10 UNL     1      24.967   2.306  52.841  1.00  0.00     0.111 C 
HETATM   13  H7  UNL     1      23.483   3.668  52.327  1.00  0.00     0.167 HD
HETATM   14  N2  UNL     1      25.820   2.356  51.881  1.00  0.00    -0.228 NA
HETATM   15  C17 UNL     1      25.443   1.942  54.165  1.00  0.00     0.137 C 
HETATM   16  C11 UNL     1      27.209   2.033  52.203  1.00  0.00     0.235 C 
HETATM   17  N3  UNL     1      27.329   1.728  53.517  1.00  0.00    -0.246 NA
HETATM   18  C12 UNL     1      26.393   0.789  54.026  1.00  0.00     0.045 C 
HETATM   19  C13 UNL     1      25.796  -0.277  54.576  1.00  0.00     0.069 C 
HETATM   20  C14 UNL     1      24.550  -0.976  54.968  1.00  0.00     0.125 C 
HETATM   21  C15 UNL     1      23.330  -0.601  54.765  1.00  0.00     0.212 C 
HETATM   22  O3  UNL     1      22.571   0.438  54.166  1.00  0.00    -0.324 OA
BRANCH  20  23
HETATM   23  O1  UNL     1      24.885  -2.139  55.611  1.00  0.00    -0.356 OA
HETATM   24  H10 UNL     1      24.728  -3.058  55.239  1.00  0.00     0.218 HD
ENDBRANCH  20  23
BRANCH  21  25
HETATM   25  O2  UNL     1      22.365  -1.466  55.264  1.00  0.00    -0.339 OA
HETATM   26  H11 UNL     1      21.459  -1.143  55.594  1.00  0.00     0.220 HD
ENDBRANCH  21  25
ENDBRANCH   3   4
TORSDOF 3
ENDMDL
MODEL 9
REMARK VINA RESULT:      -7.6      7.342      9.195
REMARK  3 active torsions:
REMARK  status: ('A' for Active; 'I' for Inactive)
REMARK    1  A    between atoms: C3_3  and  C4_4 
REMARK    2  A    between atoms: C14_17  and  O1_18 
REMARK    3  A    between atoms: C15_19  and  O2_20 
ROOT
HETATM    1  C1  UNL     1      23.364   3.018  50.081  1.00  0.00     0.012 C 
HETATM    2  C2  UNL     1      24.561   3.142  49.929  1.00  0.00    -0.113 C 
HETATM    3  C3  UNL     1      25.993   3.271  49.763  1.00  0.00     0.131 C 
ENDROOT
BRANCH   3   4
HETATM    4  C4  UNL     1      26.396   4.615  49.297  1.00  0.00    -0.045 A 
HETATM    5  C5  UNL     1      25.551   5.707  49.494  1.00  0.00     0.009 A 
HETATM    6  C6  UNL     1      25.963   6.969  49.047  1.00  0.00     0.012 A 
HETATM    7  C7  UNL     1      27.179   7.257  48.399  1.00  0.00    -0.007 A 
HETATM    8  C8  UNL     1      27.985   6.148  48.223  1.00  0.00     0.042 A 
HETATM    9  C16 UNL     1      27.188   8.693  48.124  1.00  0.00     0.218 C 
HETATM   10  C9  UNL     1      27.589   4.910  48.659  1.00  0.00     0.038 A 
HETATM   11  N1  UNL     1      29.244   6.052  47.608  1.00  0.00    -0.344 N 
HETATM   12  C10 UNL     1      30.481   6.556  48.065  1.00  0.00     0.111 C 
HETATM   13  H7  UNL     1      29.280   5.532  46.712  1.00  0.00     0.167 HD
HETATM   14  N2  UNL     1      30.861   5.673  48.917  1.00  0.00    -0.228 NA
HETATM   15  C17 UNL     1      31.349   7.696  47.823  1.00  0.00     0.137 C 
HETATM   16  C11 UNL     1      32.145   5.894  49.582  1.00  0.00     0.235 C 
HETATM   17  N3  UNL     1      32.707   7.046  49.147  1.00  0.00    -0.246 NA
HETATM   18  C12 UNL     1      31.864   8.188  49.144  1.00  0.00     0.045 C 
HETATM   19  C13 UNL     1      31.306   9.388  49.357  1.00  0.00     0.069 C 
HETATM   20  C14 UNL     1      30.197  10.338  49.107  1.00  0.00     0.125 C 
HETATM   21  C15 UNL     1      29.123  10.144  48.415  1.00  0.00     0.212 C 
HETATM   22  O3  UNL     1      28.455   9.147  47.657  1.00  0.00    -0.324 OA
BRANCH  20  23
HETATM   23  O1  UNL     1      30.479  11.517  49.747  1.00  0.00    -0.356 OA
HETATM   24  H10 UNL     1      29.789  12.190  50.024  1.00  0.00     0.218 HD
ENDBRANCH  20  23
BRANCH  21  25
HETATM   25  O2  UNL     1      28.267  11.234  48.351  1.00  0.00    -0.339 OA
HETATM   26  H11 UNL     1      28.580  12.186  48.529  1.00  0.00     0.220 HD
ENDBRANCH  21  25
ENDBRANCH   3   4
TORSDOF 3
ENDMDL
