MODEL 1
REMARK VINA RESULT:      -8.7      0.000      0.000
REMARK  9 active torsions:
REMARK  status: ('A' for Active; 'I' for Inactive)
REMARK    1  A    between atoms: C2_2  and  C3_3 
REMARK       I    between atoms: C3_3  and  N1_5 
REMARK    2  A    between atoms: N1_5  and  C4_6 
REMARK    3  A    between atoms: N2_10  and  C8_11 
REMARK    4  A    between atoms: N3_12  and  C9_13 
REMARK    5  A    between atoms: C9_13  and  C10_14 
REMARK    6  A    between atoms: C13_17  and  C14_18 
REMARK    7  A    between atoms: C14_18  and  O2_19 
REMARK    8  A    between atoms: C14_18  and  C15_20 
REMARK    9  A    between atoms: C24_29  and  O3_30 
ROOT
HETATM    1  C8  UNL     1      20.933   1.180  51.495  1.00  0.00     0.227 C 
HETATM    2  N3  UNL     1      20.664   2.054  52.401  1.00  0.00    -0.278 NA
ENDROOT
BRANCH   2   3
HETATM    3  C9  UNL     1      20.087   3.337  52.060  1.00  0.00     0.188 C 
BRANCH   3   4
HETATM    4  C10 UNL     1      21.190   4.231  51.627  1.00  0.00    -0.038 A 
HETATM    5  C11 UNL     1      21.079   4.813  50.401  1.00  0.00     0.009 A 
HETATM    6  C12 UNL     1      22.098   5.652  49.975  1.00  0.00     0.011 A 
HETATM    7  C13 UNL     1      23.220   5.929  50.727  1.00  0.00    -0.025 A 
HETATM    8  C21 UNL     1      23.298   5.313  51.977  1.00  0.00     0.011 A 
HETATM    9  C22 UNL     1      22.288   4.466  52.428  1.00  0.00     0.009 A 
BRANCH   7  10
HETATM   10  C14 UNL     1      24.307   6.832  50.258  1.00  0.00     0.184 C 
BRANCH  10  11
HETATM   11  O2  UNL     1      24.732   7.718  51.266  1.00  0.00    -0.386 OA
HETATM   12  H16 UNL     1      24.976   8.605  50.879  1.00  0.00     0.210 HD
ENDBRANCH  10  11
BRANCH  10  13
HETATM   13  C15 UNL     1      25.473   6.071  49.706  1.00  0.00    -0.025 A 
HETATM   14  C16 UNL     1      26.400   6.795  48.984  1.00  0.00     0.010 A 
HETATM   15  C17 UNL     1      27.509   6.178  48.436  1.00  0.00     0.001 A 
HETATM   16  C18 UNL     1      27.708   4.823  48.601  1.00  0.00     0.000 A 
HETATM   17  C19 UNL     1      26.767   4.123  49.326  1.00  0.00     0.001 A 
HETATM   18  C20 UNL     1      25.638   4.709  49.893  1.00  0.00     0.010 A 
ENDBRANCH  10  13
ENDBRANCH   7  10
ENDBRANCH   3   4
ENDBRANCH   2   3
BRANCH   1  19
HETATM   19  N2  UNL     1      21.388   0.373  52.569  1.00  0.00    -0.247 NA
HETATM   20  C7  UNL     1      22.655   0.301  52.773  1.00  0.00     0.042 A 
HETATM   21  C6  UNL     1      23.522   1.079  51.854  1.00  0.00     0.088 A 
HETATM   22  C23 UNL     1      23.263  -0.487  53.836  1.00  0.00     0.066 A 
HETATM   23  C5  UNL     1      24.924   0.856  52.263  1.00  0.00     0.012 A 
HETATM   24  C4  UNL     1      25.499   0.161  53.204  1.00  0.00     0.065 A 
HETATM   25  C24 UNL     1      24.565  -0.563  54.048  1.00  0.00     0.096 A 
BRANCH  24  26
HETATM   26  N1  UNL     1      26.880   0.040  53.479  1.00  0.00    -0.325 N 
HETATM   27  C3  UNL     1      27.784   1.005  53.974  1.00  0.00     0.221 C 
HETATM   28  O1  UNL     1      27.376   2.163  54.230  1.00  0.00    -0.273 OA
HETATM   29  H6  UNL     1      27.353  -0.873  53.312  1.00  0.00     0.169 HD
BRANCH  27  30
HETATM   30  C2  UNL     1      29.226   0.748  54.223  1.00  0.00     0.098 C 
HETATM   31  C1  UNL     1      29.708  -0.453  53.478  1.00  0.00     0.014 C 
ENDBRANCH  27  30
ENDBRANCH  24  26
BRANCH  25  32
HETATM   32  O3  UNL     1      25.010  -1.354  55.100  1.00  0.00    -0.354 OA
HETATM   33  C25 UNL     1      24.943  -0.821  56.411  1.00  0.00     0.210 C 
ENDBRANCH  25  32
ENDBRANCH   1  19
TORSDOF 9
ENDMDL
MODEL 2
REMARK VINA RESULT:      -8.5      3.228      7.783
REMARK  9 active torsions:
REMARK  status: ('A' for Active; 'I' for Inactive)
REMARK    1  A    between atoms: C2_2  and  C3_3 
REMARK       I    between atoms: C3_3  and  N1_5 
REMARK    2  A    between atoms: N1_5  and  C4_6 
REMARK    3  A    between atoms: N2_10  and  C8_11 
REMARK    4  A    between atoms: N3_12  and  C9_13 
REMARK    5  A    between atoms: C9_13  and  C10_14 
REMARK    6  A    between atoms: C13_17  and  C14_18 
REMARK    7  A    between atoms: C14_18  and  O2_19 
REMARK    8  A    between atoms: C14_18  and  C15_20 
REMARK    9  A    between atoms: C24_29  and  O3_30 
ROOT
HETATM    1  C8  UNL     1      24.568   3.804  49.572  1.00  0.00     0.227 C 
HETATM    2  N3  UNL     1      23.667   4.120  50.436  1.00  0.00    -0.278 NA
ENDROOT
BRANCH   2   3
HETATM    3  C9  UNL     1      22.830   3.113  51.052  1.00  0.00     0.188 C 
BRANCH   3   4
HETATM    4  C10 UNL     1      23.663   2.358  52.021  1.00  0.00    -0.038 A 
HETATM    5  C11 UNL     1      23.544   1.002  52.024  1.00  0.00     0.009 A 
HETATM    6  C12 UNL     1      24.313   0.275  52.922  1.00  0.00     0.011 A 
HETATM    7  C13 UNL     1      25.193   0.853  53.812  1.00  0.00    -0.025 A 
HETATM    8  C21 UNL     1      25.286   2.245  53.778  1.00  0.00     0.011 A 
HETATM    9  C22 UNL     1      24.524   2.998  52.886  1.00  0.00     0.009 A 
BRANCH   7  10
HETATM   10  C14 UNL     1      26.012   0.062  54.770  1.00  0.00     0.184 C 
BRANCH  10  11
HETATM   11  O2  UNL     1      25.406  -1.167  55.098  1.00  0.00    -0.386 OA
HETATM   12  H16 UNL     1      25.810  -1.551  55.926  1.00  0.00     0.210 HD
ENDBRANCH  10  11
BRANCH  10  13
HETATM   13  C15 UNL     1      27.406  -0.162  54.269  1.00  0.00    -0.025 A 
HETATM   14  C16 UNL     1      27.619  -1.294  53.510  1.00  0.00     0.010 A 
HETATM   15  C17 UNL     1      28.872  -1.583  53.005  1.00  0.00     0.001 A 
HETATM   16  C18 UNL     1      29.937  -0.742  53.253  1.00  0.00     0.000 A 
HETATM   17  C19 UNL     1      29.698   0.383  54.014  1.00  0.00     0.001 A 
HETATM   18  C20 UNL     1      28.450   0.707  54.539  1.00  0.00     0.010 A 
ENDBRANCH  10  13
ENDBRANCH   7  10
ENDBRANCH   3   4
ENDBRANCH   2   3
BRANCH   1  19
HETATM   19  N2  UNL     1      24.846   5.193  49.521  1.00  0.00    -0.247 NA
HETATM   20  C7  UNL     1      26.028   5.558  49.173  1.00  0.00     0.042 A 
HETATM   21  C6  UNL     1      26.992   4.476  48.856  1.00  0.00     0.088 A 
HETATM   22  C23 UNL     1      26.454   6.947  49.078  1.00  0.00     0.066 A 
HETATM   23  C5  UNL     1      28.273   5.110  48.484  1.00  0.00     0.012 A 
HETATM   24  C4  UNL     1      28.686   6.343  48.390  1.00  0.00     0.065 A 
HETATM   25  C24 UNL     1      27.669   7.325  48.721  1.00  0.00     0.096 A 
BRANCH  24  26
HETATM   26  N1  UNL     1      29.967   6.807  48.014  1.00  0.00    -0.325 N 
HETATM   27  C3  UNL     1      31.233   6.480  48.548  1.00  0.00     0.221 C 
HETATM   28  O1  UNL     1      31.313   5.664  49.496  1.00  0.00    -0.273 OA
HETATM   29  H6  UNL     1      30.050   7.493  47.235  1.00  0.00     0.169 HD
BRANCH  27  30
HETATM   30  C2  UNL     1      32.516   7.044  48.057  1.00  0.00     0.098 C 
HETATM   31  C1  UNL     1      32.647   6.908  46.576  1.00  0.00     0.014 C 
ENDBRANCH  27  30
ENDBRANCH  24  26
BRANCH  25  32
HETATM   32  O3  UNL     1      27.942   8.686  48.671  1.00  0.00    -0.354 OA
HETATM   33  C25 UNL     1      27.758   9.448  49.851  1.00  0.00     0.210 C 
ENDBRANCH  25  32
ENDBRANCH   1  19
TORSDOF 9
ENDMDL
MODEL 3
REMARK VINA RESULT:      -8.4      4.489      7.252
REMARK  9 active torsions:
REMARK  status: ('A' for Active; 'I' for Inactive)
REMARK    1  A    between atoms: C2_2  and  C3_3 
REMARK       I    between atoms: C3_3  and  N1_5 
REMARK    2  A    between atoms: N1_5  and  C4_6 
REMARK    3  A    between atoms: N2_10  and  C8_11 
REMARK    4  A    between atoms: N3_12  and  C9_13 
REMARK    5  A    between atoms: C9_13  and  C10_14 
REMARK    6  A    between atoms: C13_17  and  C14_18 
REMARK    7  A    between atoms: C14_18  and  O2_19 
REMARK    8  A    between atoms: C14_18  and  C15_20 
REMARK    9  A    between atoms: C24_29  and  O3_30 
ROOT
HETATM    1  C8  UNL     1      26.169   4.668  49.440  1.00  0.00     0.227 C 
HETATM    2  N3  UNL     1      27.297   4.951  48.885  1.00  0.00    -0.278 NA
ENDROOT
BRANCH   2   3
HETATM    3  C9  UNL     1      27.480   6.176  48.137  1.00  0.00     0.188 C 
BRANCH   3   4
HETATM    4  C10 UNL     1      28.939   6.385  47.957  1.00  0.00    -0.038 A 
HETATM    5  C11 UNL     1      29.750   5.306  48.129  1.00  0.00     0.009 A 
HETATM    6  C12 UNL     1      31.118   5.477  47.965  1.00  0.00     0.011 A 
HETATM    7  C13 UNL     1      31.700   6.683  47.638  1.00  0.00    -0.025 A 
HETATM    8  C21 UNL     1      30.835   7.765  47.471  1.00  0.00     0.011 A 
HETATM    9  C22 UNL     1      29.457   7.620  47.630  1.00  0.00     0.009 A 
BRANCH   7  10
HETATM   10  C14 UNL     1      33.168   6.853  47.466  1.00  0.00     0.184 C 
BRANCH  10  11
HETATM   11  O2  UNL     1      33.804   7.224  48.666  1.00  0.00    -0.386 OA
HETATM   12  H16 UNL     1      34.723   7.569  48.488  1.00  0.00     0.210 HD
ENDBRANCH  10  11
BRANCH  10  13
HETATM   13  C15 UNL     1      33.814   5.630  46.890  1.00  0.00    -0.025 A 
HETATM   14  C16 UNL     1      34.351   4.730  47.788  1.00  0.00     0.010 A 
HETATM   15  C17 UNL     1      34.966   3.574  47.349  1.00  0.00     0.001 A 
HETATM   16  C18 UNL     1      35.057   3.298  46.001  1.00  0.00     0.000 A 
HETATM   17  C19 UNL     1      34.513   4.213  45.124  1.00  0.00     0.001 A 
HETATM   18  C20 UNL     1      33.884   5.388  45.528  1.00  0.00     0.010 A 
ENDBRANCH  10  13
ENDBRANCH   7  10
ENDBRANCH   3   4
ENDBRANCH   2   3
BRANCH   1  19
HETATM   19  N2  UNL     1      26.810   3.482  49.877  1.00  0.00    -0.247 NA
HETATM   20  C7  UNL     1      26.197   2.749  50.737  1.00  0.00     0.042 A 
HETATM   21  C6  UNL     1      24.867   3.225  51.189  1.00  0.00     0.088 A 
HETATM   22  C23 UNL     1      26.734   1.506  51.274  1.00  0.00     0.066 A 
HETATM   23  C5  UNL     1      24.347   2.245  52.165  1.00  0.00     0.012 A 
HETATM   24  C4  UNL     1      24.799   1.129  52.665  1.00  0.00     0.065 A 
HETATM   25  C24 UNL     1      26.107   0.751  52.159  1.00  0.00     0.096 A 
BRANCH  24  26
HETATM   26  N1  UNL     1      24.177   0.281  53.609  1.00  0.00    -0.325 N 
HETATM   27  C3  UNL     1      22.925  -0.368  53.546  1.00  0.00     0.221 C 
HETATM   28  O1  UNL     1      22.200  -0.219  52.534  1.00  0.00    -0.273 OA
HETATM   29  H6  UNL     1      24.670   0.068  54.502  1.00  0.00     0.169 HD
BRANCH  27  30
HETATM   30  C2  UNL     1      22.383  -1.242  54.618  1.00  0.00     0.098 C 
HETATM   31  C1  UNL     1      20.975  -1.651  54.335  1.00  0.00     0.014 C 
ENDBRANCH  27  30
ENDBRANCH  24  26
BRANCH  25  32
HETATM   32  O3  UNL     1      26.735  -0.412  52.588  1.00  0.00    -0.354 OA
HETATM   33  C25 UNL     1      27.868  -0.288  53.428  1.00  0.00     0.210 C 
ENDBRANCH  25  32
ENDBRANCH   1  19
TORSDOF 9
ENDMDL
MODEL 4
REMARK VINA RESULT:      -8.2      3.858      8.772
REMARK  9 active torsions:
REMARK  status: ('A' for Active; 'I' for Inactive)
REMARK    1  A    between atoms: C2_2  and  C3_3 
REMARK       I    between atoms: C3_3  and  N1_5 
REMARK    2  A    between atoms: N1_5  and  C4_6 
REMARK    3  A    between atoms: N2_10  and  C8_11 
REMARK    4  A    between atoms: N3_12  and  C9_13 
REMARK    5  A    between atoms: C9_13  and  C10_14 
REMARK    6  A    between atoms: C13_17  and  C14_18 
REMARK    7  A    between atoms: C14_18  and  O2_19 
REMARK    8  A    between atoms: C14_18  and  C15_20 
REMARK    9  A    between atoms: C24_29  and  O3_30 
ROOT
HETATM    1  C8  UNL     1      24.610   5.407  49.645  1.00  0.00     0.227 C 
HETATM    2  N3  UNL     1      24.670   4.165  49.310  1.00  0.00    -0.278 NA
ENDROOT
BRANCH   2   3
HETATM    3  C9  UNL     1      23.628   3.234  49.686  1.00  0.00     0.188 C 
BRANCH   3   4
HETATM    4  C10 UNL     1      24.122   2.437  50.837  1.00  0.00    -0.038 A 
HETATM    5  C11 UNL     1      25.470   2.360  51.010  1.00  0.00     0.009 A 
HETATM    6  C12 UNL     1      25.955   1.620  52.079  1.00  0.00     0.011 A 
HETATM    7  C13 UNL     1      25.145   0.957  52.976  1.00  0.00    -0.025 A 
HETATM    8  C21 UNL     1      23.769   1.060  52.764  1.00  0.00     0.011 A 
HETATM    9  C22 UNL     1      23.256   1.797  51.698  1.00  0.00     0.009 A 
BRANCH   7  10
HETATM   10  C14 UNL     1      25.678   0.167  54.119  1.00  0.00     0.184 C 
BRANCH  10  11
HETATM   11  O2  UNL     1      24.816  -0.885  54.484  1.00  0.00    -0.386 OA
HETATM   12  H16 UNL     1      25.245  -1.474  55.166  1.00  0.00     0.210 HD
ENDBRANCH  10  11
BRANCH  10  13
HETATM   13  C15 UNL     1      27.055  -0.356  53.848  1.00  0.00    -0.025 A 
HETATM   14  C16 UNL     1      28.106   0.346  54.403  1.00  0.00     0.010 A 
HETATM   15  C17 UNL     1      29.412  -0.062  54.207  1.00  0.00     0.001 A 
HETATM   16  C18 UNL     1      29.689  -1.182  53.452  1.00  0.00     0.000 A 
HETATM   17  C19 UNL     1      28.622  -1.866  52.909  1.00  0.00     0.001 A 
HETATM   18  C20 UNL     1      27.293  -1.486  53.084  1.00  0.00     0.010 A 
ENDBRANCH  10  13
ENDBRANCH   7  10
ENDBRANCH   3   4
ENDBRANCH   2   3
BRANCH   1  19
HETATM   19  N2  UNL     1      25.847   5.534  48.963  1.00  0.00    -0.247 NA
HETATM   20  C7  UNL     1      26.505   6.628  49.109  1.00  0.00     0.042 A 
HETATM   21  C6  UNL     1      25.898   7.658  49.987  1.00  0.00     0.088 A 
HETATM   22  C23 UNL     1      27.786   6.897  48.470  1.00  0.00     0.066 A 
HETATM   23  C5  UNL     1      26.810   8.820  50.015  1.00  0.00     0.012 A 
HETATM   24  C4  UNL     1      27.957   9.091  49.457  1.00  0.00     0.065 A 
HETATM   25  C24 UNL     1      28.465   8.020  48.618  1.00  0.00     0.096 A 
BRANCH  24  26
HETATM   26  N1  UNL     1      28.727  10.270  49.577  1.00  0.00    -0.325 N 
HETATM   27  C3  UNL     1      28.593  11.503  48.904  1.00  0.00     0.221 C 
HETATM   28  O1  UNL     1      27.677  11.652  48.060  1.00  0.00    -0.273 OA
HETATM   29  H6  UNL     1      29.525  10.288  50.247  1.00  0.00     0.169 HD
BRANCH  27  30
HETATM   30  C2  UNL     1      29.477  12.676  49.124  1.00  0.00     0.098 C 
HETATM   31  C1  UNL     1      30.917  12.318  48.957  1.00  0.00     0.014 C 
ENDBRANCH  27  30
ENDBRANCH  24  26
BRANCH  25  32
HETATM   32  O3  UNL     1      29.676   8.145  47.949  1.00  0.00    -0.354 OA
HETATM   33  C25 UNL     1      30.794   7.438  48.455  1.00  0.00     0.210 C 
ENDBRANCH  25  32
ENDBRANCH   1  19
TORSDOF 9
ENDMDL
MODEL 5
REMARK VINA RESULT:      -8.2      2.002      3.229
REMARK  9 active torsions:
REMARK  status: ('A' for Active; 'I' for Inactive)
REMARK    1  A    between atoms: C2_2  and  C3_3 
REMARK       I    between atoms: C3_3  and  N1_5 
REMARK    2  A    between atoms: N1_5  and  C4_6 
REMARK    3  A    between atoms: N2_10  and  C8_11 
REMARK    4  A    between atoms: N3_12  and  C9_13 
REMARK    5  A    between atoms: C9_13  and  C10_14 
REMARK    6  A    between atoms: C13_17  and  C14_18 
REMARK    7  A    between atoms: C14_18  and  O2_19 
REMARK    8  A    between atoms: C14_18  and  C15_20 
REMARK    9  A    between atoms: C24_29  and  O3_30 
ROOT
HETATM    1  C8  UNL     1      22.658   4.443  49.843  1.00  0.00     0.227 C 
HETATM    2  N3  UNL     1      22.137   5.240  50.710  1.00  0.00    -0.278 NA
ENDROOT
BRANCH   2   3
HETATM    3  C9  UNL     1      21.868   6.626  50.391  1.00  0.00     0.188 C 
BRANCH   3   4
HETATM    4  C10 UNL     1      23.172   7.315  50.223  1.00  0.00    -0.038 A 
HETATM    5  C11 UNL     1      24.160   7.007  51.106  1.00  0.00     0.009 A 
HETATM    6  C12 UNL     1      25.388   7.639  50.969  1.00  0.00     0.011 A 
HETATM    7  C13 UNL     1      25.661   8.565  49.985  1.00  0.00    -0.025 A 
HETATM    8  C21 UNL     1      24.622   8.855  49.099  1.00  0.00     0.011 A 
HETATM    9  C22 UNL     1      23.380   8.234  49.216  1.00  0.00     0.009 A 
BRANCH   7  10
HETATM   10  C14 UNL     1      26.982   9.236  49.849  1.00  0.00     0.184 C 
BRANCH  10  11
HETATM   11  O2  UNL     1      27.500   9.645  51.093  1.00  0.00    -0.386 OA
HETATM   12  H16 UNL     1      28.349   9.161  51.299  1.00  0.00     0.210 HD
ENDBRANCH  10  11
BRANCH  10  13
HETATM   13  C15 UNL     1      27.977   8.382  49.124  1.00  0.00    -0.025 A 
HETATM   14  C16 UNL     1      29.281   8.833  49.100  1.00  0.00     0.010 A 
HETATM   15  C17 UNL     1      30.267   8.111  48.456  1.00  0.00     0.001 A 
HETATM   16  C18 UNL     1      29.965   6.924  47.822  1.00  0.00     0.000 A 
HETATM   17  C19 UNL     1      28.654   6.496  47.860  1.00  0.00     0.001 A 
HETATM   18  C20 UNL     1      27.634   7.195  48.499  1.00  0.00     0.010 A 
ENDBRANCH  10  13
ENDBRANCH   7  10
ENDBRANCH   3   4
ENDBRANCH   2   3
BRANCH   1  19
HETATM   19  N2  UNL     1      22.571   3.461  50.862  1.00  0.00    -0.247 NA
HETATM   20  C7  UNL     1      23.658   2.886  51.238  1.00  0.00     0.042 A 
HETATM   21  C6  UNL     1      24.907   3.315  50.561  1.00  0.00     0.088 A 
HETATM   22  C23 UNL     1      23.719   1.861  52.271  1.00  0.00     0.066 A 
HETATM   23  C5  UNL     1      26.022   2.538  51.139  1.00  0.00     0.012 A 
HETATM   24  C4  UNL     1      26.110   1.618  52.059  1.00  0.00     0.065 A 
HETATM   25  C24 UNL     1      24.835   1.269  52.659  1.00  0.00     0.096 A 
BRANCH  24  26
HETATM   26  N1  UNL     1      27.269   0.950  52.516  1.00  0.00    -0.325 N 
HETATM   27  C3  UNL     1      28.260   1.388  53.421  1.00  0.00     0.221 C 
HETATM   28  O1  UNL     1      28.166   2.527  53.939  1.00  0.00    -0.273 OA
HETATM   29  H6  UNL     1      27.473  -0.010  52.166  1.00  0.00     0.169 HD
BRANCH  27  30
HETATM   30  C2  UNL     1      29.440   0.581  53.822  1.00  0.00     0.098 C 
HETATM   31  C1  UNL     1      29.275  -0.856  53.455  1.00  0.00     0.014 C 
ENDBRANCH  27  30
ENDBRANCH  24  26
BRANCH  25  32
HETATM   32  O3  UNL     1      24.750   0.306  53.657  1.00  0.00    -0.354 OA
HETATM   33  C25 UNL     1      23.641  -0.575  53.643  1.00  0.00     0.210 C 
ENDBRANCH  25  32
ENDBRANCH   1  19
TORSDOF 9
ENDMDL
MODEL 6
REMARK VINA RESULT:      -7.8      2.156      6.745
REMARK  9 active torsions:
REMARK  status: ('A' for Active; 'I' for Inactive)
REMARK    1  A    between atoms: C2_2  and  C3_3 
REMARK       I    between atoms: C3_3  and  N1_5 
REMARK    2  A    between atoms: N1_5  and  C4_6 
REMARK    3  A    between atoms: N2_10  and  C8_11 
REMARK    4  A    between atoms: N3_12  and  C9_13 
REMARK    5  A    between atoms: C9_13  and  C10_14 
REMARK    6  A    between atoms: C13_17  and  C14_18 
REMARK    7  A    between atoms: C14_18  and  O2_19 
REMARK    8  A    between atoms: C14_18  and  C15_20 
REMARK    9  A    between atoms: C24_29  and  O3_30 
ROOT
HETATM    1  C8  UNL     1      20.410   3.338  52.382  1.00  0.00     0.227 C 
HETATM    2  N3  UNL     1      20.664   2.117  52.061  1.00  0.00    -0.278 NA
ENDROOT
BRANCH   2   3
HETATM    3  C9  UNL     1      20.725   1.074  53.062  1.00  0.00     0.188 C 
BRANCH   3   4
HETATM    4  C10 UNL     1      22.126   0.586  53.126  1.00  0.00    -0.038 A 
HETATM    5  C11 UNL     1      22.438  -0.285  54.123  1.00  0.00     0.009 A 
HETATM    6  C12 UNL     1      23.742  -0.755  54.204  1.00  0.00     0.011 A 
HETATM    7  C13 UNL     1      24.739  -0.385  53.326  1.00  0.00    -0.025 A 
HETATM    8  C21 UNL     1      24.379   0.510  52.318  1.00  0.00     0.011 A 
HETATM    9  C22 UNL     1      23.077   0.997  52.216  1.00  0.00     0.009 A 
BRANCH   7  10
HETATM   10  C14 UNL     1      26.134  -0.896  53.423  1.00  0.00     0.184 C 
BRANCH  10  11
HETATM   11  O2  UNL     1      26.470  -1.727  52.337  1.00  0.00    -0.386 OA
HETATM   12  H16 UNL     1      27.194  -1.315  51.787  1.00  0.00     0.210 HD
ENDBRANCH  10  11
BRANCH  10  13
HETATM   13  C15 UNL     1      27.132   0.212  53.562  1.00  0.00    -0.025 A 
HETATM   14  C16 UNL     1      28.122   0.041  54.507  1.00  0.00     0.010 A 
HETATM   15  C17 UNL     1      29.087   1.010  54.705  1.00  0.00     0.001 A 
HETATM   16  C18 UNL     1      29.076   2.170  53.960  1.00  0.00     0.000 A 
HETATM   17  C19 UNL     1      28.076   2.317  53.022  1.00  0.00     0.001 A 
HETATM   18  C20 UNL     1      27.088   1.363  52.793  1.00  0.00     0.010 A 
ENDBRANCH  10  13
ENDBRANCH   7  10
ENDBRANCH   3   4
ENDBRANCH   2   3
BRANCH   1  19
HETATM   19  N2  UNL     1      20.531   3.609  50.995  1.00  0.00    -0.247 NA
HETATM   20  C7  UNL     1      21.607   4.180  50.585  1.00  0.00     0.042 A 
HETATM   21  C6  UNL     1      22.625   4.500  51.616  1.00  0.00     0.088 A 
HETATM   22  C23 UNL     1      21.867   4.518  49.193  1.00  0.00     0.066 A 
HETATM   23  C5  UNL     1      23.767   5.144  50.936  1.00  0.00     0.012 A 
HETATM   24  C4  UNL     1      24.030   5.460  49.698  1.00  0.00     0.065 A 
HETATM   25  C24 UNL     1      22.972   5.105  48.769  1.00  0.00     0.096 A 
BRANCH  24  26
HETATM   26  N1  UNL     1      25.189   6.086  49.186  1.00  0.00    -0.325 N 
HETATM   27  C3  UNL     1      26.464   5.539  48.924  1.00  0.00     0.221 C 
HETATM   28  O1  UNL     1      26.676   4.324  49.154  1.00  0.00    -0.273 OA
HETATM   29  H6  UNL     1      25.155   7.099  48.948  1.00  0.00     0.169 HD
BRANCH  27  30
HETATM   30  C2  UNL     1      27.608   6.312  48.378  1.00  0.00     0.098 C 
HETATM   31  C1  UNL     1      28.835   5.471  48.259  1.00  0.00     0.014 C 
ENDBRANCH  27  30
ENDBRANCH  24  26
BRANCH  25  32
HETATM   32  O3  UNL     1      23.091   5.371  47.410  1.00  0.00    -0.354 OA
HETATM   33  C25 UNL     1      22.484   6.547  46.904  1.00  0.00     0.210 C 
ENDBRANCH  25  32
ENDBRANCH   1  19
TORSDOF 9
ENDMDL
MODEL 7
REMARK VINA RESULT:      -7.6      1.780      2.754
REMARK  9 active torsions:
REMARK  status: ('A' for Active; 'I' for Inactive)
REMARK    1  A    between atoms: C2_2  and  C3_3 
REMARK       I    between atoms: C3_3  and  N1_5 
REMARK    2  A    between atoms: N1_5  and  C4_6 
REMARK    3  A    between atoms: N2_10  and  C8_11 
REMARK    4  A    between atoms: N3_12  and  C9_13 
REMARK    5  A    between atoms: C9_13  and  C10_14 
REMARK    6  A    between atoms: C13_17  and  C14_18 
REMARK    7  A    between atoms: C14_18  and  O2_19 
REMARK    8  A    between atoms: C14_18  and  C15_20 
REMARK    9  A    between atoms: C24_29  and  O3_30 
ROOT
HETATM    1  C8  UNL     1      20.720   3.856  51.543  1.00  0.00     0.227 C 
HETATM    2  N3  UNL     1      21.229   3.758  50.364  1.00  0.00    -0.278 NA
ENDROOT
BRANCH   2   3
HETATM    3  C9  UNL     1      21.073   4.815  49.388  1.00  0.00     0.188 C 
BRANCH   3   4
HETATM    4  C10 UNL     1      22.289   5.665  49.439  1.00  0.00    -0.038 A 
HETATM    5  C11 UNL     1      22.140   6.942  49.885  1.00  0.00     0.009 A 
HETATM    6  C12 UNL     1      23.263   7.756  49.942  1.00  0.00     0.011 A 
HETATM    7  C13 UNL     1      24.523   7.340  49.569  1.00  0.00    -0.025 A 
HETATM    8  C21 UNL     1      24.635   6.024  49.116  1.00  0.00     0.011 A 
HETATM    9  C22 UNL     1      23.522   5.187  49.049  1.00  0.00     0.009 A 
BRANCH   7  10
HETATM   10  C14 UNL     1      25.719   8.222  49.634  1.00  0.00     0.184 C 
BRANCH  10  11
HETATM   11  O2  UNL     1      26.544   7.918  50.734  1.00  0.00    -0.386 OA
HETATM   12  H16 UNL     1      27.391   7.485  50.432  1.00  0.00     0.210 HD
ENDBRANCH  10  11
BRANCH  10  13
HETATM   13  C15 UNL     1      26.512   8.192  48.363  1.00  0.00    -0.025 A 
HETATM   14  C16 UNL     1      27.721   7.527  48.402  1.00  0.00     0.010 A 
HETATM   15  C17 UNL     1      28.521   7.447  47.278  1.00  0.00     0.001 A 
HETATM   16  C18 UNL     1      28.125   8.033  46.094  1.00  0.00     0.000 A 
HETATM   17  C19 UNL     1      26.913   8.691  46.082  1.00  0.00     0.001 A 
HETATM   18  C20 UNL     1      26.080   8.793  47.193  1.00  0.00     0.010 A 
ENDBRANCH  10  13
ENDBRANCH   7  10
ENDBRANCH   3   4
ENDBRANCH   2   3
BRANCH   1  19
HETATM   19  N2  UNL     1      21.283   2.574  51.769  1.00  0.00    -0.247 NA
HETATM   20  C7  UNL     1      22.467   2.517  52.268  1.00  0.00     0.042 A 
HETATM   21  C6  UNL     1      23.129   3.812  52.559  1.00  0.00     0.088 A 
HETATM   22  C23 UNL     1      23.168   1.274  52.553  1.00  0.00     0.066 A 
HETATM   23  C5  UNL     1      24.464   3.518  53.119  1.00  0.00     0.012 A 
HETATM   24  C4  UNL     1      25.120   2.423  53.386  1.00  0.00     0.065 A 
HETATM   25  C24 UNL     1      24.385   1.212  53.065  1.00  0.00     0.096 A 
BRANCH  24  26
HETATM   26  N1  UNL     1      26.417   2.294  53.931  1.00  0.00    -0.325 N 
HETATM   27  C3  UNL     1      27.670   2.299  53.280  1.00  0.00     0.221 C 
HETATM   28  O1  UNL     1      27.720   2.435  52.034  1.00  0.00    -0.273 OA
HETATM   29  H6  UNL     1      26.525   2.175  54.960  1.00  0.00     0.169 HD
BRANCH  27  30
HETATM   30  C2  UNL     1      28.973   2.154  53.976  1.00  0.00     0.098 C 
HETATM   31  C1  UNL     1      29.412   0.728  54.031  1.00  0.00     0.014 C 
ENDBRANCH  27  30
ENDBRANCH  24  26
BRANCH  25  32
HETATM   32  O3  UNL     1      24.937  -0.043  53.287  1.00  0.00    -0.354 OA
HETATM   33  C25 UNL     1      24.386  -0.843  54.318  1.00  0.00     0.210 C 
ENDBRANCH  25  32
ENDBRANCH   1  19
TORSDOF 9
ENDMDL
MODEL 8
REMARK VINA RESULT:      -7.6      2.462      6.308
REMARK  9 active torsions:
REMARK  status: ('A' for Active; 'I' for Inactive)
REMARK    1  A    between atoms: C2_2  and  C3_3 
REMARK       I    between atoms: C3_3  and  N1_5 
REMARK    2  A    between atoms: N1_5  and  C4_6 
REMARK    3  A    between atoms: N2_10  and  C8_11 
REMARK    4  A    between atoms: N3_12  and  C9_13 
REMARK    5  A    between atoms: C9_13  and  C10_14 
REMARK    6  A    between atoms: C13_17  and  C14_18 
REMARK    7  A    between atoms: C14_18  and  O2_19 
REMARK    8  A    between atoms: C14_18  and  C15_20 
REMARK    9  A    between atoms: C24_29  and  O3_30 
ROOT
HETATM    1  C8  UNL     1      21.388   5.393  49.113  1.00  0.00     0.227 C 
HETATM    2  N3  UNL     1      21.171   4.199  48.682  1.00  0.00    -0.278 NA
ENDROOT
BRANCH   2   3
HETATM    3  C9  UNL     1      19.879   3.566  48.838  1.00  0.00     0.188 C 
BRANCH   3   4
HETATM    4  C10 UNL     1      19.937   2.704  50.045  1.00  0.00    -0.038 A 
HETATM    5  C11 UNL     1      20.176   1.378  49.854  1.00  0.00     0.009 A 
HETATM    6  C12 UNL     1      20.235   0.553  50.969  1.00  0.00     0.011 A 
HETATM    7  C13 UNL     1      20.062   1.004  52.260  1.00  0.00    -0.025 A 
HETATM    8  C21 UNL     1      19.818   2.369  52.413  1.00  0.00     0.011 A 
HETATM    9  C22 UNL     1      19.755   3.220  51.311  1.00  0.00     0.009 A 
BRANCH   7  10
HETATM   10  C14 UNL     1      20.127   0.108  53.446  1.00  0.00     0.184 C 
BRANCH  10  11
HETATM   11  O2  UNL     1      19.377  -1.070  53.263  1.00  0.00    -0.386 OA
HETATM   12  H16 UNL     1      19.371  -1.619  54.096  1.00  0.00     0.210 HD
ENDBRANCH  10  11
BRANCH  10  13
HETATM   13  C15 UNL     1      21.537  -0.225  53.825  1.00  0.00    -0.025 A 
HETATM   14  C16 UNL     1      21.708  -1.045  54.922  1.00  0.00     0.010 A 
HETATM   15  C17 UNL     1      22.973  -1.406  55.346  1.00  0.00     0.001 A 
HETATM   16  C18 UNL     1      24.091  -0.951  54.678  1.00  0.00     0.000 A 
HETATM   17  C19 UNL     1      23.893  -0.134  53.585  1.00  0.00     0.001 A 
HETATM   18  C20 UNL     1      22.635   0.251  53.128  1.00  0.00     0.010 A 
ENDBRANCH  10  13
ENDBRANCH   7  10
ENDBRANCH   3   4
ENDBRANCH   2   3
BRANCH   1  19
HETATM   19  N2  UNL     1      22.701   5.216  48.609  1.00  0.00    -0.247 NA
HETATM   20  C7  UNL     1      23.581   4.701  49.391  1.00  0.00     0.042 A 
HETATM   21  C6  UNL     1      23.128   4.339  50.757  1.00  0.00     0.088 A 
HETATM   22  C23 UNL     1      24.966   4.461  49.009  1.00  0.00     0.066 A 
HETATM   23  C5  UNL     1      24.285   3.771  51.479  1.00  0.00     0.012 A 
HETATM   24  C4  UNL     1      25.531   3.544  51.168  1.00  0.00     0.065 A 
HETATM   25  C24 UNL     1      25.873   3.933  49.811  1.00  0.00     0.096 A 
BRANCH  24  26
HETATM   26  N1  UNL     1      26.544   2.984  51.979  1.00  0.00    -0.325 N 
HETATM   27  C3  UNL     1      26.964   1.640  52.090  1.00  0.00     0.221 C 
HETATM   28  O1  UNL     1      26.404   0.756  51.400  1.00  0.00    -0.273 OA
HETATM   29  H6  UNL     1      27.095   3.607  52.606  1.00  0.00     0.169 HD
BRANCH  27  30
HETATM   30  C2  UNL     1      28.052   1.178  52.989  1.00  0.00     0.098 C 
HETATM   31  C1  UNL     1      27.996  -0.298  53.208  1.00  0.00     0.014 C 
ENDBRANCH  27  30
ENDBRANCH  24  26
BRANCH  25  32
HETATM   32  O3  UNL     1      27.160   3.759  49.317  1.00  0.00    -0.354 OA
HETATM   33  C25 UNL     1      27.763   4.840  48.628  1.00  0.00     0.210 C 
ENDBRANCH  25  32
ENDBRANCH   1  19
TORSDOF 9
ENDMDL
MODEL 9
REMARK VINA RESULT:      -7.5      2.238      7.140
REMARK  9 active torsions:
REMARK  status: ('A' for Active; 'I' for Inactive)
REMARK    1  A    between atoms: C2_2  and  C3_3 
REMARK       I    between atoms: C3_3  and  N1_5 
REMARK    2  A    between atoms: N1_5  and  C4_6 
REMARK    3  A    between atoms: N2_10  and  C8_11 
REMARK    4  A    between atoms: N3_12  and  C9_13 
REMARK    5  A    between atoms: C9_13  and  C10_14 
REMARK    6  A    between atoms: C13_17  and  C14_18 
REMARK    7  A    between atoms: C14_18  and  O2_19 
REMARK    8  A    between atoms: C14_18  and  C15_20 
REMARK    9  A    between atoms: C24_29  and  O3_30 
ROOT
HETATM    1  C8  UNL     1      20.260   2.093  52.818  1.00  0.00     0.227 C 
HETATM    2  N3  UNL     1      20.744   1.287  51.939  1.00  0.00    -0.278 NA
ENDROOT
BRANCH   2   3
HETATM    3  C9  UNL     1      21.456   0.089  52.330  1.00  0.00     0.188 C 
BRANCH   3   4
HETATM    4  C10 UNL     1      22.885   0.448  52.514  1.00  0.00    -0.038 A 
HETATM    5  C11 UNL     1      23.461   1.227  51.558  1.00  0.00     0.009 A 
HETATM    6  C12 UNL     1      24.796   1.576  51.709  1.00  0.00     0.011 A 
HETATM    7  C13 UNL     1      25.571   1.174  52.776  1.00  0.00    -0.025 A 
HETATM    8  C21 UNL     1      24.945   0.376  53.734  1.00  0.00     0.011 A 
HETATM    9  C22 UNL     1      23.605   0.012  53.605  1.00  0.00     0.009 A 
BRANCH   7  10
HETATM   10  C14 UNL     1      27.002   1.555  52.926  1.00  0.00     0.184 C 
BRANCH  10  11
HETATM   11  O2  UNL     1      27.199   2.473  53.975  1.00  0.00    -0.386 OA
HETATM   12  H16 UNL     1      28.026   2.251  54.489  1.00  0.00     0.210 HD
ENDBRANCH  10  11
BRANCH  10  13
HETATM   13  C15 UNL     1      27.888   0.360  53.104  1.00  0.00    -0.025 A 
HETATM   14  C16 UNL     1      27.384  -0.854  52.684  1.00  0.00     0.010 A 
HETATM   15  C17 UNL     1      28.130  -2.011  52.809  1.00  0.00     0.001 A 
HETATM   16  C18 UNL     1      29.394  -1.972  53.359  1.00  0.00     0.000 A 
HETATM   17  C19 UNL     1      29.874  -0.747  53.771  1.00  0.00     0.001 A 
HETATM   18  C20 UNL     1      29.153   0.439  53.661  1.00  0.00     0.010 A 
ENDBRANCH  10  13
ENDBRANCH   7  10
ENDBRANCH   3   4
ENDBRANCH   2   3
BRANCH   1  19
HETATM   19  N2  UNL     1      19.811   2.854  51.709  1.00  0.00    -0.247 NA
HETATM   20  C7  UNL     1      20.473   3.911  51.396  1.00  0.00     0.042 A 
HETATM   21  C6  UNL     1      21.652   4.231  52.238  1.00  0.00     0.088 A 
HETATM   22  C23 UNL     1      20.128   4.785  50.284  1.00  0.00     0.066 A 
HETATM   23  C5  UNL     1      22.258   5.470  51.710  1.00  0.00     0.012 A 
HETATM   24  C4  UNL     1      21.976   6.274  50.722  1.00  0.00     0.065 A 
HETATM   25  C24 UNL     1      20.805   5.873  49.961  1.00  0.00     0.096 A 
BRANCH  24  26
HETATM   26  N1  UNL     1      22.659   7.446  50.329  1.00  0.00    -0.325 N 
HETATM   27  C3  UNL     1      23.985   7.600  49.868  1.00  0.00     0.221 C 
HETATM   28  O1  UNL     1      24.727   6.594  49.766  1.00  0.00    -0.273 OA
HETATM   29  H6  UNL     1      22.161   8.360  50.363  1.00  0.00     0.169 HD
BRANCH  27  30
HETATM   30  C2  UNL     1      24.588   8.901  49.482  1.00  0.00     0.098 C 
HETATM   31  C1  UNL     1      26.020   8.749  49.086  1.00  0.00     0.014 C 
ENDBRANCH  27  30
ENDBRANCH  24  26
BRANCH  25  32
HETATM   32  O3  UNL     1      20.365   6.618  48.874  1.00  0.00    -0.354 OA
HETATM   33  C25 UNL     1      20.053   5.930  47.676  1.00  0.00     0.210 C 
ENDBRANCH  25  32
ENDBRANCH   1  19
TORSDOF 9
ENDMDL
