MODEL 1
REMARK VINA RESULT:      -8.2      0.000      0.000
REMARK  6 active torsions:
REMARK  status: ('A' for Active; 'I' for Inactive)
REMARK    1  A    between atoms: C2_2  and  C4_4 
REMARK    2  A    between atoms: C6_6  and  C7_7 
REMARK    3  A    between atoms: C7_7  and  C8_8 
REMARK    4  A    between atoms: C9_9  and  C11_12 
REMARK       I    between atoms: C11_12  and  N2_13 
REMARK    5  A    between atoms: C13_16  and  C14_17 
REMARK    6  A    between atoms: C18_21  and  O2_22 
ROOT
HETATM    1  C8  UNL     1      26.790   0.141  52.530  1.00  0.00     0.006 C 
HETATM    2  C9  UNL     1      27.822  -0.350  53.195  1.00  0.00     0.108 C 
HETATM    3  C10 UNL     1      28.182  -1.736  53.146  1.00  0.00     0.104 C 
HETATM    4  N1  UNL     1      28.453  -2.859  53.102  1.00  0.00    -0.191 NA
ENDROOT
BRANCH   2   5
HETATM    5  C11 UNL     1      28.653   0.515  54.020  1.00  0.00     0.259 C 
HETATM    6  N2  UNL     1      29.836   1.202  53.638  1.00  0.00    -0.365 N 
HETATM    7  H12 UNL     1      30.691   0.579  53.678  1.00  0.00     0.159 HD
HETATM    8  H13 UNL     1      30.212   2.122  53.318  1.00  0.00     0.159 HD
HETATM    9  O1  UNL     1      28.408   0.764  55.222  1.00  0.00    -0.267 OA
ENDBRANCH   2   5
BRANCH   1  10
HETATM   10  C7  UNL     1      26.121   1.427  52.323  1.00  0.00     0.067 C 
BRANCH  10  11
HETATM   11  C6  UNL     1      24.666   1.190  52.182  1.00  0.00    -0.053 A 
HETATM   12  C5  UNL     1      23.916   0.466  53.084  1.00  0.00     0.017 A 
HETATM   13  C4  UNL     1      22.541   0.264  52.915  1.00  0.00    -0.021 A 
HETATM   14  C18 UNL     1      21.907   0.802  51.815  1.00  0.00     0.079 A 
HETATM   15  C13 UNL     1      22.598   1.537  50.875  1.00  0.00    -0.016 A 
HETATM   16  C12 UNL     1      23.969   1.699  51.105  1.00  0.00     0.018 A 
BRANCH  13  17
HETATM   17  C2  UNL     1      21.809  -0.529  53.935  1.00  0.00     0.013 C 
HETATM   18  C1  UNL     1      20.834   0.336  54.702  1.00  0.00     0.015 C 
HETATM   19  C3  UNL     1      22.738  -1.313  54.799  1.00  0.00     0.015 C 
ENDBRANCH  13  17
BRANCH  14  20
HETATM   20  O2  UNL     1      20.545   0.621  51.617  1.00  0.00    -0.360 OA
HETATM   21  H24 UNL     1      20.196  -0.328  51.656  1.00  0.00     0.217 HD
ENDBRANCH  14  20
BRANCH  15  22
HETATM   22  C14 UNL     1      22.004   2.152  49.663  1.00  0.00    -0.021 C 
HETATM   23  C15 UNL     1      23.076   2.831  48.834  1.00  0.00     0.019 C 
HETATM   24  C16 UNL     1      21.436   1.052  48.754  1.00  0.00     0.019 C 
HETATM   25  C17 UNL     1      20.934   3.160  49.955  1.00  0.00     0.019 C 
ENDBRANCH  15  22
ENDBRANCH  10  11
ENDBRANCH   1  10
TORSDOF 6
ENDMDL
MODEL 2
REMARK VINA RESULT:      -8.2      0.772      3.707
REMARK  6 active torsions:
REMARK  status: ('A' for Active; 'I' for Inactive)
REMARK    1  A    between atoms: C2_2  and  C4_4 
REMARK    2  A    between atoms: C6_6  and  C7_7 
REMARK    3  A    between atoms: C7_7  and  C8_8 
REMARK    4  A    between atoms: C9_9  and  C11_12 
REMARK       I    between atoms: C11_12  and  N2_13 
REMARK    5  A    between atoms: C13_16  and  C14_17 
REMARK    6  A    between atoms: C18_21  and  O2_22 
ROOT
HETATM    1  C8  UNL     1      26.726   0.248  52.220  1.00  0.00     0.006 C 
HETATM    2  C9  UNL     1      27.395  -0.299  53.220  1.00  0.00     0.108 C 
HETATM    3  C10 UNL     1      27.961  -1.613  53.143  1.00  0.00     0.104 C 
HETATM    4  N1  UNL     1      28.404  -2.678  53.065  1.00  0.00    -0.191 NA
ENDROOT
BRANCH   2   5
HETATM    5  C11 UNL     1      27.589   0.425  54.468  1.00  0.00     0.259 C 
HETATM    6  N2  UNL     1      28.794   0.994  54.962  1.00  0.00    -0.365 N 
HETATM    7  H12 UNL     1      29.405   0.278  55.447  1.00  0.00     0.159 HD
HETATM    8  H13 UNL     1      29.341   1.881  55.038  1.00  0.00     0.159 HD
HETATM    9  O1  UNL     1      26.671   0.641  55.290  1.00  0.00    -0.267 OA
ENDBRANCH   2   5
BRANCH   1  10
HETATM   10  C7  UNL     1      26.027   1.497  51.912  1.00  0.00     0.067 C 
BRANCH  10  11
HETATM   11  C6  UNL     1      24.569   1.237  51.899  1.00  0.00    -0.053 A 
HETATM   12  C5  UNL     1      23.712   1.723  50.934  1.00  0.00     0.017 A 
HETATM   13  C4  UNL     1      22.338   1.454  50.957  1.00  0.00    -0.021 A 
HETATM   14  C18 UNL     1      21.815   0.682  51.971  1.00  0.00     0.079 A 
HETATM   15  C13 UNL     1      22.617   0.165  52.967  1.00  0.00    -0.016 A 
HETATM   16  C12 UNL     1      23.980   0.472  52.884  1.00  0.00     0.018 A 
BRANCH  13  17
HETATM   17  C2  UNL     1      21.488   2.018  49.878  1.00  0.00     0.013 C 
HETATM   18  C1  UNL     1      21.479   1.115  48.663  1.00  0.00     0.015 C 
HETATM   19  C3  UNL     1      21.836   3.436  49.580  1.00  0.00     0.015 C 
ENDBRANCH  13  17
BRANCH  14  20
HETATM   20  O2  UNL     1      20.458   0.396  52.024  1.00  0.00    -0.360 OA
HETATM   21  H24 UNL     1      19.824   1.183  52.080  1.00  0.00     0.217 HD
ENDBRANCH  14  20
BRANCH  15  22
HETATM   22  C14 UNL     1      22.146  -0.675  54.096  1.00  0.00    -0.021 C 
HETATM   23  C15 UNL     1      23.295  -1.005  55.026  1.00  0.00     0.019 C 
HETATM   24  C16 UNL     1      21.158   0.128  54.956  1.00  0.00     0.019 C 
HETATM   25  C17 UNL     1      21.506  -1.961  53.672  1.00  0.00     0.019 C 
ENDBRANCH  15  22
ENDBRANCH  10  11
ENDBRANCH   1  10
TORSDOF 6
ENDMDL
MODEL 3
REMARK VINA RESULT:      -8.0      3.016      5.453
REMARK  6 active torsions:
REMARK  status: ('A' for Active; 'I' for Inactive)
REMARK    1  A    between atoms: C2_2  and  C4_4 
REMARK    2  A    between atoms: C6_6  and  C7_7 
REMARK    3  A    between atoms: C7_7  and  C8_8 
REMARK    4  A    between atoms: C9_9  and  C11_12 
REMARK       I    between atoms: C11_12  and  N2_13 
REMARK    5  A    between atoms: C13_16  and  C14_17 
REMARK    6  A    between atoms: C18_21  and  O2_22 
ROOT
HETATM    1  C8  UNL     1      24.264   2.890  50.036  1.00  0.00     0.006 C 
HETATM    2  C9  UNL     1      24.861   4.066  50.126  1.00  0.00     0.108 C 
HETATM    3  C10 UNL     1      26.102   4.353  49.471  1.00  0.00     0.104 C 
HETATM    4  N1  UNL     1      27.108   4.565  48.942  1.00  0.00    -0.191 NA
ENDROOT
BRANCH   2   5
HETATM    5  C11 UNL     1      24.269   5.140  50.910  1.00  0.00     0.259 C 
HETATM    6  N2  UNL     1      24.013   5.154  52.307  1.00  0.00    -0.365 N 
HETATM    7  H12 UNL     1      23.106   4.667  52.552  1.00  0.00     0.159 HD
HETATM    8  H13 UNL     1      24.385   5.470  53.231  1.00  0.00     0.159 HD
HETATM    9  O1  UNL     1      23.899   6.230  50.417  1.00  0.00    -0.267 OA
ENDBRANCH   2   5
BRANCH   1  10
HETATM   10  C7  UNL     1      23.055   2.225  50.525  1.00  0.00     0.067 C 
BRANCH  10  11
HETATM   11  C6  UNL     1      23.413   1.375  51.684  1.00  0.00    -0.053 A 
HETATM   12  C5  UNL     1      22.488   0.825  52.546  1.00  0.00     0.017 A 
HETATM   13  C4  UNL     1      22.867   0.027  53.632  1.00  0.00    -0.021 A 
HETATM   14  C18 UNL     1      24.204  -0.224  53.855  1.00  0.00     0.079 A 
HETATM   15  C13 UNL     1      25.180   0.295  53.030  1.00  0.00    -0.016 A 
HETATM   16  C12 UNL     1      24.732   1.084  51.965  1.00  0.00     0.018 A 
BRANCH  13  17
HETATM   17  C2  UNL     1      21.806  -0.525  54.511  1.00  0.00     0.013 C 
HETATM   18  C1  UNL     1      21.470  -1.951  54.132  1.00  0.00     0.015 C 
HETATM   19  C3  UNL     1      20.623   0.379  54.588  1.00  0.00     0.015 C 
ENDBRANCH  13  17
BRANCH  14  20
HETATM   20  O2  UNL     1      24.614  -1.012  54.922  1.00  0.00    -0.360 OA
HETATM   21  H24 UNL     1      24.976  -1.932  54.703  1.00  0.00     0.217 HD
ENDBRANCH  14  20
BRANCH  15  22
HETATM   22  C14 UNL     1      26.639   0.080  53.190  1.00  0.00    -0.021 C 
HETATM   23  C15 UNL     1      27.415   1.046  52.318  1.00  0.00     0.019 C 
HETATM   24  C16 UNL     1      27.055   0.424  54.629  1.00  0.00     0.019 C 
HETATM   25  C17 UNL     1      27.089  -1.310  52.859  1.00  0.00     0.019 C 
ENDBRANCH  15  22
ENDBRANCH  10  11
ENDBRANCH   1  10
TORSDOF 6
ENDMDL
MODEL 4
REMARK VINA RESULT:      -8.0      1.597      2.665
REMARK  6 active torsions:
REMARK  status: ('A' for Active; 'I' for Inactive)
REMARK    1  A    between atoms: C2_2  and  C4_4 
REMARK    2  A    between atoms: C6_6  and  C7_7 
REMARK    3  A    between atoms: C7_7  and  C8_8 
REMARK    4  A    between atoms: C9_9  and  C11_12 
REMARK       I    between atoms: C11_12  and  N2_13 
REMARK    5  A    between atoms: C13_16  and  C14_17 
REMARK    6  A    between atoms: C18_21  and  O2_22 
ROOT
HETATM    1  C8  UNL     1      26.949   0.254  53.700  1.00  0.00     0.006 C 
HETATM    2  C9  UNL     1      28.256   0.212  53.888  1.00  0.00     0.108 C 
HETATM    3  C10 UNL     1      28.986   1.294  54.478  1.00  0.00     0.104 C 
HETATM    4  N1  UNL     1      29.560   2.181  54.949  1.00  0.00    -0.191 NA
ENDROOT
BRANCH   2   5
HETATM    5  C11 UNL     1      29.025  -0.960  53.495  1.00  0.00     0.259 C 
HETATM    6  N2  UNL     1      28.573  -2.304  53.407  1.00  0.00    -0.365 N 
HETATM    7  H12 UNL     1      28.578  -2.790  54.347  1.00  0.00     0.159 HD
HETATM    8  H13 UNL     1      28.220  -3.035  52.749  1.00  0.00     0.159 HD
HETATM    9  O1  UNL     1      30.234  -0.916  53.175  1.00  0.00    -0.267 OA
ENDBRANCH   2   5
BRANCH   1  10
HETATM   10  C7  UNL     1      25.883  -0.592  53.160  1.00  0.00     0.067 C 
BRANCH  10  11
HETATM   11  C6  UNL     1      24.754   0.270  52.744  1.00  0.00    -0.053 A 
HETATM   12  C5  UNL     1      23.464   0.124  53.210  1.00  0.00     0.017 A 
HETATM   13  C4  UNL     1      22.423   0.961  52.792  1.00  0.00    -0.021 A 
HETATM   14  C18 UNL     1      22.683   1.966  51.886  1.00  0.00     0.079 A 
HETATM   15  C13 UNL     1      23.950   2.168  51.380  1.00  0.00    -0.016 A 
HETATM   16  C12 UNL     1      24.944   1.295  51.840  1.00  0.00     0.018 A 
BRANCH  13  17
HETATM   17  C2  UNL     1      21.064   0.732  53.345  1.00  0.00     0.013 C 
HETATM   18  C1  UNL     1      21.132   0.054  54.696  1.00  0.00     0.015 C 
HETATM   19  C3  UNL     1      20.173   0.048  52.364  1.00  0.00     0.015 C 
ENDBRANCH  13  17
BRANCH  14  20
HETATM   20  O2  UNL     1      21.674   2.814  51.450  1.00  0.00    -0.360 OA
HETATM   21  H24 UNL     1      21.721   3.131  50.491  1.00  0.00     0.217 HD
ENDBRANCH  14  20
BRANCH  15  22
HETATM   22  C14 UNL     1      24.326   3.220  50.404  1.00  0.00    -0.021 C 
HETATM   23  C15 UNL     1      24.104   4.596  50.997  1.00  0.00     0.019 C 
HETATM   24  C16 UNL     1      25.835   3.146  50.124  1.00  0.00     0.019 C 
HETATM   25  C17 UNL     1      23.574   3.145  49.110  1.00  0.00     0.019 C 
ENDBRANCH  15  22
ENDBRANCH  10  11
ENDBRANCH   1  10
TORSDOF 6
ENDMDL
MODEL 5
REMARK VINA RESULT:      -7.9      1.455      4.117
REMARK  6 active torsions:
REMARK  status: ('A' for Active; 'I' for Inactive)
REMARK    1  A    between atoms: C2_2  and  C4_4 
REMARK    2  A    between atoms: C6_6  and  C7_7 
REMARK    3  A    between atoms: C7_7  and  C8_8 
REMARK    4  A    between atoms: C9_9  and  C11_12 
REMARK       I    between atoms: C11_12  and  N2_13 
REMARK    5  A    between atoms: C13_16  and  C14_17 
REMARK    6  A    between atoms: C18_21  and  O2_22 
ROOT
HETATM    1  C8  UNL     1      27.468   0.579  52.996  1.00  0.00     0.006 C 
HETATM    2  C9  UNL     1      28.588   0.392  53.672  1.00  0.00     0.108 C 
HETATM    3  C10 UNL     1      29.199   1.424  54.455  1.00  0.00     0.104 C 
HETATM    4  N1  UNL     1      29.682   2.272  55.076  1.00  0.00    -0.191 NA
ENDROOT
BRANCH   2   5
HETATM    5  C11 UNL     1      29.262  -0.898  53.649  1.00  0.00     0.259 C 
HETATM    6  N2  UNL     1      28.683  -2.175  53.416  1.00  0.00    -0.365 N 
HETATM    7  H12 UNL     1      28.243  -2.580  54.289  1.00  0.00     0.159 HD
HETATM    8  H13 UNL     1      28.513  -2.905  52.688  1.00  0.00     0.159 HD
HETATM    9  O1  UNL     1      30.491  -1.038  53.842  1.00  0.00    -0.267 OA
ENDBRANCH   2   5
BRANCH   1  10
HETATM   10  C7  UNL     1      26.567  -0.174  52.121  1.00  0.00     0.067 C 
BRANCH  10  11
HETATM   11  C6  UNL     1      25.192   0.349  52.290  1.00  0.00    -0.053 A 
HETATM   12  C5  UNL     1      24.707   1.458  51.630  1.00  0.00     0.017 A 
HETATM   13  C4  UNL     1      23.399   1.922  51.817  1.00  0.00    -0.021 A 
HETATM   14  C18 UNL     1      22.562   1.255  52.685  1.00  0.00     0.079 A 
HETATM   15  C13 UNL     1      22.983   0.139  53.376  1.00  0.00    -0.016 A 
HETATM   16  C12 UNL     1      24.301  -0.270  53.143  1.00  0.00     0.018 A 
BRANCH  13  17
HETATM   17  C2  UNL     1      22.959   3.125  51.066  1.00  0.00     0.013 C 
HETATM   18  C1  UNL     1      23.438   3.078  49.632  1.00  0.00     0.015 C 
HETATM   19  C3  UNL     1      23.306   4.385  51.784  1.00  0.00     0.015 C 
ENDBRANCH  13  17
BRANCH  14  20
HETATM   20  O2  UNL     1      21.259   1.687  52.893  1.00  0.00    -0.360 OA
HETATM   21  H24 UNL     1      20.939   1.741  53.852  1.00  0.00     0.217 HD
ENDBRANCH  14  20
BRANCH  15  22
HETATM   22  C14 UNL     1      22.156  -0.642  54.328  1.00  0.00    -0.021 C 
HETATM   23  C15 UNL     1      21.514  -1.822  53.629  1.00  0.00     0.019 C 
HETATM   24  C16 UNL     1      23.060  -1.263  55.404  1.00  0.00     0.019 C 
HETATM   25  C17 UNL     1      21.072   0.154  54.987  1.00  0.00     0.019 C 
ENDBRANCH  15  22
ENDBRANCH  10  11
ENDBRANCH   1  10
TORSDOF 6
ENDMDL
MODEL 6
REMARK VINA RESULT:      -7.7      1.648      3.692
REMARK  6 active torsions:
REMARK  status: ('A' for Active; 'I' for Inactive)
REMARK    1  A    between atoms: C2_2  and  C4_4 
REMARK    2  A    between atoms: C6_6  and  C7_7 
REMARK    3  A    between atoms: C7_7  and  C8_8 
REMARK    4  A    between atoms: C9_9  and  C11_12 
REMARK       I    between atoms: C11_12  and  N2_13 
REMARK    5  A    between atoms: C13_16  and  C14_17 
REMARK    6  A    between atoms: C18_21  and  O2_22 
ROOT
HETATM    1  C8  UNL     1      26.759   0.102  53.824  1.00  0.00     0.006 C 
HETATM    2  C9  UNL     1      27.989  -0.377  53.754  1.00  0.00     0.108 C 
HETATM    3  C10 UNL     1      28.270  -1.729  53.372  1.00  0.00     0.104 C 
HETATM    4  N1  UNL     1      28.478  -2.825  53.070  1.00  0.00    -0.191 NA
ENDROOT
BRANCH   2   5
HETATM    5  C11 UNL     1      29.133   0.467  54.067  1.00  0.00     0.259 C 
HETATM    6  N2  UNL     1      30.398   0.489  53.419  1.00  0.00    -0.365 N 
HETATM    7  H12 UNL     1      31.042  -0.273  53.773  1.00  0.00     0.159 HD
HETATM    8  H13 UNL     1      30.968   0.983  52.698  1.00  0.00     0.159 HD
HETATM    9  O1  UNL     1      29.134   1.312  54.991  1.00  0.00    -0.267 OA
ENDBRANCH   2   5
BRANCH   1  10
HETATM   10  C7  UNL     1      26.080   1.356  54.154  1.00  0.00     0.067 C 
BRANCH  10  11
HETATM   11  C6  UNL     1      25.173   1.715  53.040  1.00  0.00    -0.053 A 
HETATM   12  C5  UNL     1      25.553   2.477  51.956  1.00  0.00     0.017 A 
HETATM   13  C4  UNL     1      24.664   2.794  50.922  1.00  0.00    -0.021 A 
HETATM   14  C18 UNL     1      23.366   2.336  50.979  1.00  0.00     0.079 A 
HETATM   15  C13 UNL     1      22.920   1.568  52.035  1.00  0.00    -0.016 A 
HETATM   16  C12 UNL     1      23.860   1.289  53.034  1.00  0.00     0.018 A 
BRANCH  13  17
HETATM   17  C2  UNL     1      25.157   3.621  49.791  1.00  0.00     0.013 C 
HETATM   18  C1  UNL     1      26.598   3.294  49.465  1.00  0.00     0.015 C 
HETATM   19  C3  UNL     1      24.896   5.072  50.010  1.00  0.00     0.015 C 
ENDBRANCH  13  17
BRANCH  14  20
HETATM   20  O2  UNL     1      22.458   2.631  49.971  1.00  0.00    -0.360 OA
HETATM   21  H24 UNL     1      22.089   3.573  49.946  1.00  0.00     0.217 HD
ENDBRANCH  14  20
BRANCH  15  22
HETATM   22  C14 UNL     1      21.545   1.031  52.184  1.00  0.00    -0.021 C 
HETATM   23  C15 UNL     1      21.469   0.092  53.370  1.00  0.00     0.019 C 
HETATM   24  C16 UNL     1      20.580   2.177  52.523  1.00  0.00     0.019 C 
HETATM   25  C17 UNL     1      21.045   0.298  50.977  1.00  0.00     0.019 C 
ENDBRANCH  15  22
ENDBRANCH  10  11
ENDBRANCH   1  10
TORSDOF 6
ENDMDL
MODEL 7
REMARK VINA RESULT:      -7.7      3.996      6.397
REMARK  6 active torsions:
REMARK  status: ('A' for Active; 'I' for Inactive)
REMARK    1  A    between atoms: C2_2  and  C4_4 
REMARK    2  A    between atoms: C6_6  and  C7_7 
REMARK    3  A    between atoms: C7_7  and  C8_8 
REMARK    4  A    between atoms: C9_9  and  C11_12 
REMARK       I    between atoms: C11_12  and  N2_13 
REMARK    5  A    between atoms: C13_16  and  C14_17 
REMARK    6  A    between atoms: C18_21  and  O2_22 
ROOT
HETATM    1  C8  UNL     1      25.518   4.628  49.244  1.00  0.00     0.006 C 
HETATM    2  C9  UNL     1      24.906   5.797  49.327  1.00  0.00     0.108 C 
HETATM    3  C10 UNL     1      23.935   6.230  48.367  1.00  0.00     0.104 C 
HETATM    4  N1  UNL     1      23.160   6.566  47.578  1.00  0.00    -0.191 NA
ENDROOT
BRANCH   2   5
HETATM    5  C11 UNL     1      25.198   6.711  50.422  1.00  0.00     0.259 C 
HETATM    6  N2  UNL     1      24.570   6.769  51.695  1.00  0.00    -0.365 N 
HETATM    7  H12 UNL     1      23.663   7.315  51.668  1.00  0.00     0.159 HD
HETATM    8  H13 UNL     1      24.653   6.471  52.692  1.00  0.00     0.159 HD
HETATM    9  O1  UNL     1      26.082   7.596  50.363  1.00  0.00    -0.267 OA
ENDBRANCH   2   5
BRANCH   1  10
HETATM   10  C7  UNL     1      26.518   3.850  49.977  1.00  0.00     0.067 C 
BRANCH  10  11
HETATM   11  C6  UNL     1      25.823   2.822  50.786  1.00  0.00    -0.053 A 
HETATM   12  C5  UNL     1      24.457   2.635  50.779  1.00  0.00     0.017 A 
HETATM   13  C4  UNL     1      23.837   1.651  51.559  1.00  0.00    -0.021 A 
HETATM   14  C18 UNL     1      24.607   0.838  52.362  1.00  0.00     0.079 A 
HETATM   15  C13 UNL     1      25.979   0.971  52.415  1.00  0.00    -0.016 A 
HETATM   16  C12 UNL     1      26.533   1.975  51.612  1.00  0.00     0.018 A 
BRANCH  13  17
HETATM   17  C2  UNL     1      22.360   1.519  51.491  1.00  0.00     0.013 C 
HETATM   18  C1  UNL     1      21.917   1.046  50.123  1.00  0.00     0.015 C 
HETATM   19  C3  UNL     1      21.670   2.753  51.962  1.00  0.00     0.015 C 
ENDBRANCH  13  17
BRANCH  14  20
HETATM   20  O2  UNL     1      24.025  -0.148  53.147  1.00  0.00    -0.360 OA
HETATM   21  H24 UNL     1      24.648  -0.809  53.592  1.00  0.00     0.217 HD
ENDBRANCH  14  20
BRANCH  15  22
HETATM   22  C14 UNL     1      26.888   0.146  53.247  1.00  0.00    -0.021 C 
HETATM   23  C15 UNL     1      28.295   0.707  53.212  1.00  0.00     0.019 C 
HETATM   24  C16 UNL     1      26.461   0.236  54.720  1.00  0.00     0.019 C 
HETATM   25  C17 UNL     1      26.951  -1.293  52.834  1.00  0.00     0.019 C 
ENDBRANCH  15  22
ENDBRANCH  10  11
ENDBRANCH   1  10
TORSDOF 6
ENDMDL
MODEL 8
REMARK VINA RESULT:      -7.7      3.167      5.420
REMARK  6 active torsions:
REMARK  status: ('A' for Active; 'I' for Inactive)
REMARK    1  A    between atoms: C2_2  and  C4_4 
REMARK    2  A    between atoms: C6_6  and  C7_7 
REMARK    3  A    between atoms: C7_7  and  C8_8 
REMARK    4  A    between atoms: C9_9  and  C11_12 
REMARK       I    between atoms: C11_12  and  N2_13 
REMARK    5  A    between atoms: C13_16  and  C14_17 
REMARK    6  A    between atoms: C18_21  and  O2_22 
ROOT
HETATM    1  C8  UNL     1      24.502   3.107  49.813  1.00  0.00     0.006 C 
HETATM    2  C9  UNL     1      25.190   4.235  49.825  1.00  0.00     0.108 C 
HETATM    3  C10 UNL     1      26.518   4.335  49.296  1.00  0.00     0.104 C 
HETATM    4  N1  UNL     1      27.592   4.395  48.872  1.00  0.00    -0.191 NA
ENDROOT
BRANCH   2   5
HETATM    5  C11 UNL     1      24.616   5.449  50.387  1.00  0.00     0.259 C 
HETATM    6  N2  UNL     1      24.269   5.697  51.742  1.00  0.00    -0.365 N 
HETATM    7  H12 UNL     1      23.320   5.302  51.991  1.00  0.00     0.159 HD
HETATM    8  H13 UNL     1      24.598   6.136  52.631  1.00  0.00     0.159 HD
HETATM    9  O1  UNL     1      24.348   6.465  49.706  1.00  0.00    -0.267 OA
ENDBRANCH   2   5
BRANCH   1  10
HETATM   10  C7  UNL     1      23.189   2.610  50.230  1.00  0.00     0.067 C 
BRANCH  10  11
HETATM   11  C6  UNL     1      23.372   1.671  51.360  1.00  0.00    -0.053 A 
HETATM   12  C5  UNL     1      24.604   1.285  51.845  1.00  0.00     0.017 A 
HETATM   13  C4  UNL     1      24.735   0.394  52.917  1.00  0.00    -0.021 A 
HETATM   14  C18 UNL     1      23.604  -0.121  53.513  1.00  0.00     0.079 A 
HETATM   15  C13 UNL     1      22.342   0.223  53.077  1.00  0.00    -0.016 A 
HETATM   16  C12 UNL     1      22.283   1.118  52.002  1.00  0.00     0.018 A 
BRANCH  13  17
HETATM   17  C2  UNL     1      26.100   0.033  53.376  1.00  0.00     0.013 C 
HETATM   18  C1  UNL     1      26.594   0.996  54.433  1.00  0.00     0.015 C 
HETATM   19  C3  UNL     1      27.040  -0.150  52.232  1.00  0.00     0.015 C 
ENDBRANCH  13  17
BRANCH  14  20
HETATM   20  O2  UNL     1      23.698  -1.007  54.577  1.00  0.00    -0.360 OA
HETATM   21  H24 UNL     1      23.434  -0.660  55.490  1.00  0.00     0.217 HD
ENDBRANCH  14  20
BRANCH  15  22
HETATM   22  C14 UNL     1      21.070  -0.278  53.654  1.00  0.00    -0.021 C 
HETATM   23  C15 UNL     1      20.691   0.527  54.880  1.00  0.00     0.019 C 
HETATM   24  C16 UNL     1      19.926  -0.042  52.656  1.00  0.00     0.019 C 
HETATM   25  C17 UNL     1      21.106  -1.725  54.039  1.00  0.00     0.019 C 
ENDBRANCH  15  22
ENDBRANCH  10  11
ENDBRANCH   1  10
TORSDOF 6
ENDMDL
MODEL 9
REMARK VINA RESULT:      -7.5      3.841      5.538
REMARK  6 active torsions:
REMARK  status: ('A' for Active; 'I' for Inactive)
REMARK    1  A    between atoms: C2_2  and  C4_4 
REMARK    2  A    between atoms: C6_6  and  C7_7 
REMARK    3  A    between atoms: C7_7  and  C8_8 
REMARK    4  A    between atoms: C9_9  and  C11_12 
REMARK       I    between atoms: C11_12  and  N2_13 
REMARK    5  A    between atoms: C13_16  and  C14_17 
REMARK    6  A    between atoms: C18_21  and  O2_22 
ROOT
HETATM    1  C8  UNL     1      25.272   4.206  49.572  1.00  0.00     0.006 C 
HETATM    2  C9  UNL     1      24.743   5.414  49.485  1.00  0.00     0.108 C 
HETATM    3  C10 UNL     1      23.816   5.778  48.455  1.00  0.00     0.104 C 
HETATM    4  N1  UNL     1      23.075   6.056  47.612  1.00  0.00    -0.191 NA
ENDROOT
BRANCH   2   5
HETATM    5  C11 UNL     1      25.087   6.446  50.452  1.00  0.00     0.259 C 
HETATM    6  N2  UNL     1      24.481   6.688  51.715  1.00  0.00    -0.365 N 
HETATM    7  H12 UNL     1      23.595   7.261  51.629  1.00  0.00     0.159 HD
HETATM    8  H13 UNL     1      24.569   6.514  52.741  1.00  0.00     0.159 HD
HETATM    9  O1  UNL     1      26.002   7.281  50.274  1.00  0.00    -0.267 OA
ENDBRANCH   2   5
BRANCH   1  10
HETATM   10  C7  UNL     1      26.207   3.468  50.425  1.00  0.00     0.067 C 
BRANCH  10  11
HETATM   11  C6  UNL     1      25.456   2.433  51.172  1.00  0.00    -0.053 A 
HETATM   12  C5  UNL     1      26.050   1.488  51.981  1.00  0.00     0.017 A 
HETATM   13  C4  UNL     1      25.305   0.525  52.671  1.00  0.00    -0.021 A 
HETATM   14  C18 UNL     1      23.933   0.512  52.545  1.00  0.00     0.079 A 
HETATM   15  C13 UNL     1      23.274   1.429  51.753  1.00  0.00    -0.016 A 
HETATM   16  C12 UNL     1      24.080   2.363  51.091  1.00  0.00     0.018 A 
BRANCH  13  17
HETATM   17  C2  UNL     1      26.026  -0.456  53.521  1.00  0.00     0.013 C 
HETATM   18  C1  UNL     1      26.697   0.227  54.693  1.00  0.00     0.015 C 
HETATM   19  C3  UNL     1      26.937  -1.321  52.718  1.00  0.00     0.015 C 
ENDBRANCH  13  17
BRANCH  14  20
HETATM   20  O2  UNL     1      23.163  -0.429  53.216  1.00  0.00    -0.360 OA
HETATM   21  H24 UNL     1      22.358  -0.799  52.726  1.00  0.00     0.217 HD
ENDBRANCH  14  20
BRANCH  15  22
HETATM   22  C14 UNL     1      21.805   1.494  51.556  1.00  0.00    -0.021 C 
HETATM   23  C15 UNL     1      21.097   1.619  52.889  1.00  0.00     0.019 C 
HETATM   24  C16 UNL     1      21.445   2.778  50.793  1.00  0.00     0.019 C 
HETATM   25  C17 UNL     1      21.236   0.310  50.835  1.00  0.00     0.019 C 
ENDBRANCH  15  22
ENDBRANCH  10  11
ENDBRANCH   1  10
TORSDOF 6
ENDMDL
