MODEL 1
REMARK VINA RESULT:      -7.8      0.000      0.000
REMARK  3 active torsions:
REMARK  status: ('A' for Active; 'I' for Inactive)
REMARK    1  A    between atoms: C12_15  and  O2_16 
REMARK    2  A    between atoms: N2_18  and  C14_19 
REMARK    3  A    between atoms: C15_20  and  O3_21 
ROOT
HETATM    1  C1  UNL     1      23.733   4.449  53.539  1.00  0.00     0.064 C 
HETATM    2  C2  UNL     1      23.914   3.348  52.826  1.00  0.00     0.099 C 
HETATM    3  N1  UNL     1      25.240   2.839  52.814  1.00  0.00    -0.369 N 
HETATM    4  C3  UNL     1      26.408   2.199  53.351  1.00  0.00     0.101 C 
HETATM    5  C4  UNL     1      27.529   2.126  52.308  1.00  0.00     0.036 C 
HETATM    6  C5  UNL     1      26.213   0.886  53.959  1.00  0.00    -0.004 C 
HETATM    7  C6  UNL     1      25.384  -0.131  54.280  1.00  0.00    -0.003 C 
HETATM    8  C7  UNL     1      23.949  -0.506  54.152  1.00  0.00     0.203 C 
HETATM    9  O1  UNL     1      23.313   0.538  53.498  1.00  0.00    -0.344 OA
HETATM   10  C8  UNL     1      22.005   0.674  53.145  1.00  0.00     0.116 A 
HETATM   11  C9  UNL     1      20.917  -0.148  53.328  1.00  0.00     0.046 A 
HETATM   12 BR1  UNL     1      21.336  -1.774  54.248  1.00  0.00    -0.048 Br
HETATM   13  C10 UNL     1      19.658   0.191  52.882  1.00  0.00     0.025 A 
HETATM   14  C11 UNL     1      19.430   1.381  52.225  1.00  0.00     0.040 A 
HETATM   15  C12 UNL     1      20.498   2.235  52.022  1.00  0.00     0.095 A 
HETATM   16  C13 UNL     1      21.757   1.880  52.477  1.00  0.00     0.109 A 
HETATM   17  N2  UNL     1      22.742   2.863  52.191  1.00  0.00    -0.294 N 
HETATM   18  H3  UNL     1      25.323   3.167  51.802  1.00  0.00     0.161 HD
ENDROOT
BRANCH  17  19
HETATM   19  C14 UNL     1      22.680   3.646  51.005  1.00  0.00     0.052 C 
HETATM   20  C15 UNL     1      23.072   2.924  49.968  1.00  0.00     0.074 C 
HETATM   21  C16 UNL     1      23.154   3.366  48.552  1.00  0.00     0.062 C 
HETATM   22  C17 UNL     1      22.532   2.274  47.709  1.00  0.00     0.021 C 
HETATM   23  C18 UNL     1      22.468   4.665  48.435  1.00  0.00    -0.019 C 
HETATM   24  C19 UNL     1      22.079   5.389  49.481  1.00  0.00    -0.024 C 
HETATM   25  C20 UNL     1      22.241   5.069  50.929  1.00  0.00     0.087 C 
BRANCH  20  26
HETATM   26  O3  UNL     1      23.418   1.629  50.378  1.00  0.00    -0.362 OA
HETATM   27  H15 UNL     1      22.751   0.898  50.516  1.00  0.00     0.217 HD
ENDBRANCH  20  26
ENDBRANCH  17  19
BRANCH  15  28
HETATM   28  O2  UNL     1      20.209   3.404  51.363  1.00  0.00    -0.358 OA
HETATM   29  H14 UNL     1      19.788   4.176  51.884  1.00  0.00     0.217 HD
ENDBRANCH  15  28
TORSDOF 3
ENDMDL
MODEL 2
REMARK VINA RESULT:      -7.5      1.857      4.843
REMARK  3 active torsions:
REMARK  status: ('A' for Active; 'I' for Inactive)
REMARK    1  A    between atoms: C12_15  and  O2_16 
REMARK    2  A    between atoms: N2_18  and  C14_19 
REMARK    3  A    between atoms: C15_20  and  O3_21 
ROOT
HETATM    1  C1  UNL     1      21.918   1.314  48.562  1.00  0.00     0.064 C 
HETATM    2  C2  UNL     1      21.523   1.770  49.742  1.00  0.00     0.099 C 
HETATM    3  N1  UNL     1      20.153   2.133  49.830  1.00  0.00    -0.369 N 
HETATM    4  C3  UNL     1      18.735   1.911  49.893  1.00  0.00     0.101 C 
HETATM    5  C4  UNL     1      17.971   3.236  49.997  1.00  0.00     0.036 C 
HETATM    6  C5  UNL     1      18.263   0.988  50.920  1.00  0.00    -0.004 C 
HETATM    7  C6  UNL     1      18.539   0.168  51.958  1.00  0.00    -0.003 C 
HETATM    8  C7  UNL     1      19.711  -0.311  52.742  1.00  0.00     0.203 C 
HETATM    9  O1  UNL     1      20.836   0.298  52.205  1.00  0.00    -0.344 OA
HETATM   10  C8  UNL     1      22.142   0.186  52.570  1.00  0.00     0.116 A 
HETATM   11  C9  UNL     1      22.759  -0.554  53.553  1.00  0.00     0.046 A 
HETATM   12 BR1  UNL     1      21.543  -1.616  54.582  1.00  0.00    -0.048 Br
HETATM   13  C10 UNL     1      24.121  -0.517  53.754  1.00  0.00     0.025 A 
HETATM   14  C11 UNL     1      24.937   0.272  52.972  1.00  0.00     0.040 A 
HETATM   15  C12 UNL     1      24.356   1.031  51.974  1.00  0.00     0.095 A 
HETATM   16  C13 UNL     1      22.985   0.983  51.785  1.00  0.00     0.109 A 
HETATM   17  N2  UNL     1      22.547   1.818  50.722  1.00  0.00    -0.294 N 
HETATM   18  H3  UNL     1      20.457   3.155  49.854  1.00  0.00     0.161 HD
ENDROOT
BRANCH  17  19
HETATM   19  C14 UNL     1      23.196   3.053  50.439  1.00  0.00     0.052 C 
HETATM   20  C15 UNL     1      22.808   3.973  51.306  1.00  0.00     0.074 C 
HETATM   21  C16 UNL     1      23.249   5.392  51.358  1.00  0.00     0.062 C 
HETATM   22  C17 UNL     1      23.567   5.705  52.804  1.00  0.00     0.021 C 
HETATM   23  C18 UNL     1      24.401   5.549  50.453  1.00  0.00    -0.019 C 
HETATM   24  C19 UNL     1      24.784   4.621  49.579  1.00  0.00    -0.024 C 
HETATM   25  C20 UNL     1      24.168   3.285  49.332  1.00  0.00     0.087 C 
BRANCH  20  26
HETATM   26  O3  UNL     1      21.890   3.432  52.215  1.00  0.00    -0.362 OA
HETATM   27  H15 UNL     1      20.902   3.431  52.067  1.00  0.00     0.217 HD
ENDBRANCH  20  26
ENDBRANCH  17  19
BRANCH  15  28
HETATM   28  O2  UNL     1      25.218   1.797  51.229  1.00  0.00    -0.358 OA
HETATM   29  H14 UNL     1      25.058   2.804  51.166  1.00  0.00     0.217 HD
ENDBRANCH  15  28
TORSDOF 3
ENDMDL
MODEL 3
REMARK VINA RESULT:      -7.3      2.055      4.805
REMARK  3 active torsions:
REMARK  status: ('A' for Active; 'I' for Inactive)
REMARK    1  A    between atoms: C12_15  and  O2_16 
REMARK    2  A    between atoms: N2_18  and  C14_19 
REMARK    3  A    between atoms: C15_20  and  O3_21 
ROOT
HETATM    1  C1  UNL     1      21.765   1.287  48.350  1.00  0.00     0.064 C 
HETATM    2  C2  UNL     1      21.727   1.832  49.557  1.00  0.00     0.099 C 
HETATM    3  N1  UNL     1      20.596   1.495  50.345  1.00  0.00    -0.369 N 
HETATM    4  C3  UNL     1      19.755   0.648  51.144  1.00  0.00     0.101 C 
HETATM    5  C4  UNL     1      18.505   1.397  51.619  1.00  0.00     0.036 C 
HETATM    6  C5  UNL     1      20.388  -0.020  52.277  1.00  0.00    -0.004 C 
HETATM    7  C6  UNL     1      21.492  -0.240  53.025  1.00  0.00    -0.003 C 
HETATM    8  C7  UNL     1      22.921   0.175  53.084  1.00  0.00     0.203 C 
HETATM    9  O1  UNL     1      23.133   1.052  52.031  1.00  0.00    -0.344 OA
HETATM   10  C8  UNL     1      24.269   1.705  51.659  1.00  0.00     0.116 A 
HETATM   11  C9  UNL     1      25.542   1.698  52.180  1.00  0.00     0.046 A 
HETATM   12 BR1  UNL     1      25.734   0.557  53.706  1.00  0.00    -0.048 Br
HETATM   13  C10 UNL     1      26.562   2.448  51.637  1.00  0.00     0.025 A 
HETATM   14  C11 UNL     1      26.351   3.249  50.536  1.00  0.00     0.040 A 
HETATM   15  C12 UNL     1      25.085   3.283  49.982  1.00  0.00     0.095 A 
HETATM   16  C13 UNL     1      24.070   2.523  50.539  1.00  0.00     0.109 A 
HETATM   17  N2  UNL     1      22.834   2.669  49.855  1.00  0.00    -0.294 N 
HETATM   18  H3  UNL     1      20.234   2.488  50.196  1.00  0.00     0.161 HD
ENDROOT
BRANCH  17  19
HETATM   19  C14 UNL     1      22.462   3.907  49.260  1.00  0.00     0.052 C 
HETATM   20  C15 UNL     1      21.960   4.715  50.179  1.00  0.00     0.074 C 
HETATM   21  C16 UNL     1      21.454   6.097  49.973  1.00  0.00     0.062 C 
HETATM   22  C17 UNL     1      22.032   6.951  51.081  1.00  0.00     0.021 C 
HETATM   23  C18 UNL     1      21.850   6.535  48.623  1.00  0.00    -0.019 C 
HETATM   24  C19 UNL     1      22.351   5.717  47.700  1.00  0.00    -0.024 C 
HETATM   25  C20 UNL     1      22.610   4.253  47.817  1.00  0.00     0.087 C 
BRANCH  20  26
HETATM   26  O3  UNL     1      21.961   4.088  51.433  1.00  0.00    -0.362 OA
HETATM   27  H15 UNL     1      21.130   3.788  51.900  1.00  0.00     0.217 HD
ENDBRANCH  20  26
ENDBRANCH  17  19
BRANCH  15  28
HETATM   28  O2  UNL     1      24.935   4.098  48.887  1.00  0.00    -0.358 OA
HETATM   29  H14 UNL     1      24.682   5.078  49.029  1.00  0.00     0.217 HD
ENDBRANCH  15  28
TORSDOF 3
ENDMDL
MODEL 4
REMARK VINA RESULT:      -7.2      3.760      6.778
REMARK  3 active torsions:
REMARK  status: ('A' for Active; 'I' for Inactive)
REMARK    1  A    between atoms: C12_15  and  O2_16 
REMARK    2  A    between atoms: N2_18  and  C14_19 
REMARK    3  A    between atoms: C15_20  and  O3_21 
ROOT
HETATM    1  C1  UNL     1      22.786   5.455  52.548  1.00  0.00     0.064 C 
HETATM    2  C2  UNL     1      22.694   5.486  51.227  1.00  0.00     0.099 C 
HETATM    3  N1  UNL     1      21.718   6.373  50.702  1.00  0.00    -0.369 N 
HETATM    4  C3  UNL     1      21.142   7.645  50.367  1.00  0.00     0.101 C 
HETATM    5  C4  UNL     1      19.783   7.475  49.679  1.00  0.00     0.036 C 
HETATM    6  C5  UNL     1      21.976   8.557  49.590  1.00  0.00    -0.004 C 
HETATM    7  C6  UNL     1      23.143   8.804  48.954  1.00  0.00    -0.003 C 
HETATM    8  C7  UNL     1      24.439   8.131  48.664  1.00  0.00     0.203 C 
HETATM    9  O1  UNL     1      24.383   6.873  49.245  1.00  0.00    -0.344 OA
HETATM   10  C8  UNL     1      25.315   5.881  49.260  1.00  0.00     0.116 A 
HETATM   11  C9  UNL     1      26.584   5.808  48.733  1.00  0.00     0.046 A 
HETATM   12 BR1  UNL     1      27.121   7.401  47.815  1.00  0.00    -0.048 Br
HETATM   13  C10 UNL     1      27.371   4.685  48.868  1.00  0.00     0.025 A 
HETATM   14  C11 UNL     1      26.918   3.573  49.543  1.00  0.00     0.040 A 
HETATM   15  C12 UNL     1      25.648   3.606  50.088  1.00  0.00     0.095 A 
HETATM   16  C13 UNL     1      24.870   4.743  49.944  1.00  0.00     0.109 A 
HETATM   17  N2  UNL     1      23.595   4.617  50.559  1.00  0.00    -0.294 N 
HETATM   18  H3  UNL     1      21.130   5.522  50.440  1.00  0.00     0.161 HD
ENDROOT
BRANCH  17  19
HETATM   19  C14 UNL     1      22.915   3.367  50.599  1.00  0.00     0.052 C 
HETATM   20  C15 UNL     1      22.336   3.133  49.432  1.00  0.00     0.074 C 
HETATM   21  C16 UNL     1      21.530   1.942  49.059  1.00  0.00     0.062 C 
HETATM   22  C17 UNL     1      22.008   1.491  47.696  1.00  0.00     0.021 C 
HETATM   23  C18 UNL     1      21.701   0.923  50.111  1.00  0.00    -0.019 C 
HETATM   24  C19 UNL     1      22.280   1.165  51.284  1.00  0.00    -0.024 C 
HETATM   25  C20 UNL     1      22.856   2.451  51.774  1.00  0.00     0.087 C 
BRANCH  20  26
HETATM   26  O3  UNL     1      22.583   4.189  48.544  1.00  0.00    -0.362 OA
HETATM   27  H15 UNL     1      23.280   4.887  48.698  1.00  0.00     0.217 HD
ENDBRANCH  20  26
ENDBRANCH  17  19
BRANCH  15  28
HETATM   28  O2  UNL     1      25.252   2.470  50.748  1.00  0.00    -0.358 OA
HETATM   29  H14 UNL     1      24.269   2.193  50.712  1.00  0.00     0.217 HD
ENDBRANCH  15  28
TORSDOF 3
ENDMDL
MODEL 5
REMARK VINA RESULT:      -7.1     10.039     13.155
REMARK  3 active torsions:
REMARK  status: ('A' for Active; 'I' for Inactive)
REMARK    1  A    between atoms: C12_15  and  O2_16 
REMARK    2  A    between atoms: N2_18  and  C14_19 
REMARK    3  A    between atoms: C15_20  and  O3_21 
ROOT
HETATM    1  C1  UNL     1      31.787   8.134  49.559  1.00  0.00     0.064 C 
HETATM    2  C2  UNL     1      31.505   7.478  48.443  1.00  0.00     0.099 C 
HETATM    3  N1  UNL     1      30.226   6.864  48.400  1.00  0.00    -0.369 N 
HETATM    4  C3  UNL     1      28.793   6.815  48.313  1.00  0.00     0.101 C 
HETATM    5  C4  UNL     1      28.283   5.370  48.369  1.00  0.00     0.036 C 
HETATM    6  C5  UNL     1      28.183   7.509  47.183  1.00  0.00    -0.004 C 
HETATM    7  C6  UNL     1      28.327   8.238  46.054  1.00  0.00    -0.003 C 
HETATM    8  C7  UNL     1      29.408   8.826  45.217  1.00  0.00     0.203 C 
HETATM    9  O1  UNL     1      30.614   8.500  45.821  1.00  0.00    -0.344 OA
HETATM   10  C8  UNL     1      31.886   8.803  45.444  1.00  0.00     0.116 A 
HETATM   11  C9  UNL     1      32.378   9.523  44.379  1.00  0.00     0.046 A 
HETATM   12 BR1  UNL     1      31.011  10.216  43.231  1.00  0.00    -0.048 Br
HETATM   13  C10 UNL     1      33.728   9.711  44.182  1.00  0.00     0.025 A 
HETATM   14  C11 UNL     1      34.657   9.181  45.051  1.00  0.00     0.040 A 
HETATM   15  C12 UNL     1      34.203   8.452  46.134  1.00  0.00     0.095 A 
HETATM   16  C13 UNL     1      32.842   8.272  46.318  1.00  0.00     0.109 A 
HETATM   17  N2  UNL     1      32.541   7.502  47.473  1.00  0.00    -0.294 N 
HETATM   18  H3  UNL     1      30.710   5.919  48.498  1.00  0.00     0.161 HD
ENDROOT
BRANCH  17  19
HETATM   19  C14 UNL     1      33.396   6.448  47.902  1.00  0.00     0.052 C 
HETATM   20  C15 UNL     1      33.151   5.356  47.197  1.00  0.00     0.074 C 
HETATM   21  C16 UNL     1      33.825   4.038  47.330  1.00  0.00     0.062 C 
HETATM   22  C17 UNL     1      34.158   3.566  45.932  1.00  0.00     0.021 C 
HETATM   23  C18 UNL     1      35.008   4.211  48.192  1.00  0.00    -0.019 C 
HETATM   24  C19 UNL     1      35.248   5.311  48.902  1.00  0.00    -0.024 C 
HETATM   25  C20 UNL     1      34.420   6.549  48.981  1.00  0.00     0.087 C 
BRANCH  20  26
HETATM   26  O3  UNL     1      32.133   5.594  46.264  1.00  0.00    -0.362 OA
HETATM   27  H15 UNL     1      31.364   6.209  46.433  1.00  0.00     0.217 HD
ENDBRANCH  20  26
ENDBRANCH  17  19
BRANCH  15  28
HETATM   28  O2  UNL     1      35.174   7.949  46.964  1.00  0.00    -0.358 OA
HETATM   29  H14 UNL     1      36.138   8.267  46.848  1.00  0.00     0.217 HD
ENDBRANCH  15  28
TORSDOF 3
ENDMDL
MODEL 6
REMARK VINA RESULT:      -6.6      1.782      2.368
REMARK  3 active torsions:
REMARK  status: ('A' for Active; 'I' for Inactive)
REMARK    1  A    between atoms: C12_15  and  O2_16 
REMARK    2  A    between atoms: N2_18  and  C14_19 
REMARK    3  A    between atoms: C15_20  and  O3_21 
ROOT
HETATM    1  C1  UNL     1      22.500   4.728  52.756  1.00  0.00     0.064 C 
HETATM    2  C2  UNL     1      22.459   3.683  51.943  1.00  0.00     0.099 C 
HETATM    3  N1  UNL     1      23.561   2.792  52.036  1.00  0.00    -0.369 N 
HETATM    4  C3  UNL     1      24.389   1.783  52.634  1.00  0.00     0.101 C 
HETATM    5  C4  UNL     1      25.588   1.448  51.740  1.00  0.00     0.036 C 
HETATM    6  C5  UNL     1      23.724   0.552  53.047  1.00  0.00    -0.004 C 
HETATM    7  C6  UNL     1      22.592  -0.182  53.135  1.00  0.00    -0.003 C 
HETATM    8  C7  UNL     1      21.149  -0.084  52.783  1.00  0.00     0.203 C 
HETATM    9  O1  UNL     1      20.959   1.154  52.186  1.00  0.00    -0.344 OA
HETATM   10  C8  UNL     1      19.822   1.714  51.690  1.00  0.00     0.116 A 
HETATM   11  C9  UNL     1      18.525   1.257  51.633  1.00  0.00     0.046 A 
HETATM   12 BR1  UNL     1      18.297  -0.485  52.393  1.00  0.00    -0.048 Br
HETATM   13  C10 UNL     1      17.509   2.002  51.076  1.00  0.00     0.025 A 
HETATM   14  C11 UNL     1      17.747   3.252  50.546  1.00  0.00     0.040 A 
HETATM   15  C12 UNL     1      19.037   3.747  50.585  1.00  0.00     0.095 A 
HETATM   16  C13 UNL     1      20.048   2.986  51.148  1.00  0.00     0.109 A 
HETATM   17  N2  UNL     1      21.311   3.635  51.111  1.00  0.00    -0.294 N 
HETATM   18  H3  UNL     1      23.895   3.156  51.090  1.00  0.00     0.161 HD
ENDROOT
BRANCH  17  19
HETATM   19  C14 UNL     1      21.670   4.489  50.030  1.00  0.00     0.052 C 
HETATM   20  C15 UNL     1      22.092   3.765  49.006  1.00  0.00     0.074 C 
HETATM   21  C16 UNL     1      22.558   4.270  47.688  1.00  0.00     0.062 C 
HETATM   22  C17 UNL     1      21.891   3.422  46.627  1.00  0.00     0.021 C 
HETATM   23  C18 UNL     1      22.219   5.701  47.598  1.00  0.00    -0.019 C 
HETATM   24  C19 UNL     1      21.799   6.426  48.632  1.00  0.00    -0.024 C 
HETATM   25  C20 UNL     1      21.587   5.978  50.039  1.00  0.00     0.087 C 
BRANCH  20  26
HETATM   26  O3  UNL     1      22.047   2.401  49.321  1.00  0.00    -0.362 OA
HETATM   27  H15 UNL     1      22.078   1.675  48.635  1.00  0.00     0.217 HD
ENDBRANCH  20  26
ENDBRANCH  17  19
BRANCH  15  28
HETATM   28  O2  UNL     1      19.213   4.995  50.042  1.00  0.00    -0.358 OA
HETATM   29  H14 UNL     1      20.127   5.446  50.122  1.00  0.00     0.217 HD
ENDBRANCH  15  28
TORSDOF 3
ENDMDL
MODEL 7
REMARK VINA RESULT:      -6.4      1.994      2.522
REMARK  3 active torsions:
REMARK  status: ('A' for Active; 'I' for Inactive)
REMARK    1  A    between atoms: C12_15  and  O2_16 
REMARK    2  A    between atoms: N2_18  and  C14_19 
REMARK    3  A    between atoms: C15_20  and  O3_21 
ROOT
HETATM    1  C1  UNL     1      23.619   6.023  51.439  1.00  0.00     0.064 C 
HETATM    2  C2  UNL     1      23.526   4.878  50.779  1.00  0.00     0.099 C 
HETATM    3  N1  UNL     1      24.756   4.221  50.517  1.00  0.00    -0.369 N 
HETATM    4  C3  UNL     1      25.942   3.475  50.832  1.00  0.00     0.101 C 
HETATM    5  C4  UNL     1      26.792   3.229  49.581  1.00  0.00     0.036 C 
HETATM    6  C5  UNL     1      25.753   2.221  51.554  1.00  0.00    -0.004 C 
HETATM    7  C6  UNL     1      24.916   1.319  52.113  1.00  0.00    -0.003 C 
HETATM    8  C7  UNL     1      23.457   1.106  52.321  1.00  0.00     0.203 C 
HETATM    9  O1  UNL     1      22.803   2.187  51.751  1.00  0.00    -0.344 OA
HETATM   10  C8  UNL     1      21.470   2.457  51.678  1.00  0.00     0.116 A 
HETATM   11  C9  UNL     1      20.371   1.774  52.145  1.00  0.00     0.046 A 
HETATM   12 BR1  UNL     1      20.814   0.151  53.060  1.00  0.00    -0.048 Br
HETATM   13  C10 UNL     1      19.086   2.235  51.958  1.00  0.00     0.025 A 
HETATM   14  C11 UNL     1      18.842   3.414  51.287  1.00  0.00     0.040 A 
HETATM   15  C12 UNL     1      19.920   4.131  50.803  1.00  0.00     0.095 A 
HETATM   16  C13 UNL     1      21.205   3.653  51.000  1.00  0.00     0.109 A 
HETATM   17  N2  UNL     1      22.199   4.504  50.444  1.00  0.00    -0.294 N 
HETATM   18  H3  UNL     1      24.648   4.494  49.491  1.00  0.00     0.161 HD
ENDROOT
BRANCH  17  19
HETATM   19  C14 UNL     1      21.957   5.237  49.249  1.00  0.00     0.052 C 
HETATM   20  C15 UNL     1      22.193   4.472  48.196  1.00  0.00     0.074 C 
HETATM   21  C16 UNL     1      22.061   4.855  46.766  1.00  0.00     0.062 C 
HETATM   22  C17 UNL     1      21.325   3.730  46.071  1.00  0.00     0.021 C 
HETATM   23  C18 UNL     1      21.359   6.149  46.700  1.00  0.00    -0.019 C 
HETATM   24  C19 UNL     1      21.127   6.917  47.762  1.00  0.00    -0.024 C 
HETATM   25  C20 UNL     1      21.505   6.657  49.181  1.00  0.00     0.087 C 
BRANCH  20  26
HETATM   26  O3  UNL     1      22.602   3.195  48.603  1.00  0.00    -0.362 OA
HETATM   27  H15 UNL     1      22.181   2.696  49.359  1.00  0.00     0.217 HD
ENDBRANCH  20  26
ENDBRANCH  17  19
BRANCH  15  28
HETATM   28  O2  UNL     1      19.615   5.296  50.145  1.00  0.00    -0.358 OA
HETATM   29  H14 UNL     1      20.319   5.722  49.539  1.00  0.00     0.217 HD
ENDBRANCH  15  28
TORSDOF 3
ENDMDL
MODEL 8
REMARK VINA RESULT:      -6.4      7.842     10.733
REMARK  3 active torsions:
REMARK  status: ('A' for Active; 'I' for Inactive)
REMARK    1  A    between atoms: C12_15  and  O2_16 
REMARK    2  A    between atoms: N2_18  and  C14_19 
REMARK    3  A    between atoms: C15_20  and  O3_21 
ROOT
HETATM    1  C1  UNL     1      28.061   9.569  49.946  1.00  0.00     0.064 C 
HETATM    2  C2  UNL     1      27.907   8.538  49.128  1.00  0.00     0.099 C 
HETATM    3  N1  UNL     1      26.888   7.619  49.489  1.00  0.00    -0.369 N 
HETATM    4  C3  UNL     1      25.541   7.154  49.674  1.00  0.00     0.101 C 
HETATM    5  C4  UNL     1      25.519   5.724  50.225  1.00  0.00     0.036 C 
HETATM    6  C5  UNL     1      24.651   7.253  48.522  1.00  0.00    -0.004 C 
HETATM    7  C6  UNL     1      24.463   7.589  47.227  1.00  0.00    -0.003 C 
HETATM    8  C7  UNL     1      25.230   8.148  46.080  1.00  0.00     0.203 C 
HETATM    9  O1  UNL     1      26.523   8.376  46.527  1.00  0.00    -0.344 OA
HETATM   10  C8  UNL     1      27.598   8.877  45.860  1.00  0.00     0.116 A 
HETATM   11  C9  UNL     1      27.748   9.320  44.566  1.00  0.00     0.046 A 
HETATM   12 BR1  UNL     1      26.141   9.206  43.531  1.00  0.00    -0.048 Br
HETATM   13  C10 UNL     1      28.949   9.796  44.087  1.00  0.00     0.025 A 
HETATM   14  C11 UNL     1      30.067   9.850  44.891  1.00  0.00     0.040 A 
HETATM   15  C12 UNL     1      29.958   9.413  46.198  1.00  0.00     0.095 A 
HETATM   16  C13 UNL     1      28.743   8.938  46.664  1.00  0.00     0.109 A 
HETATM   17  N2  UNL     1      28.798   8.530  48.024  1.00  0.00    -0.294 N 
HETATM   18  H3  UNL     1      27.651   6.925  49.761  1.00  0.00     0.161 HD
ENDROOT
BRANCH  17  19
HETATM   19  C14 UNL     1      29.974   7.947  48.573  1.00  0.00     0.052 C 
HETATM   20  C15 UNL     1      30.000   6.651  48.307  1.00  0.00     0.074 C 
HETATM   21  C16 UNL     1      31.053   5.679  48.701  1.00  0.00     0.062 C 
HETATM   22  C17 UNL     1      31.362   4.841  47.480  1.00  0.00     0.021 C 
HETATM   23  C18 UNL     1      32.212   6.437  49.205  1.00  0.00    -0.019 C 
HETATM   24  C19 UNL     1      32.180   7.740  49.474  1.00  0.00    -0.024 C 
HETATM   25  C20 UNL     1      31.028   8.677  49.335  1.00  0.00     0.087 C 
BRANCH  20  26
HETATM   26  O3  UNL     1      28.864   6.281  47.575  1.00  0.00    -0.362 OA
HETATM   27  H15 UNL     1      28.117   6.909  47.360  1.00  0.00     0.217 HD
ENDBRANCH  20  26
ENDBRANCH  17  19
BRANCH  15  28
HETATM   28  O2  UNL     1      31.104   9.491  46.950  1.00  0.00    -0.358 OA
HETATM   29  H14 UNL     1      31.032   9.456  47.969  1.00  0.00     0.217 HD
ENDBRANCH  15  28
TORSDOF 3
ENDMDL
MODEL 9
REMARK VINA RESULT:      -6.3      9.112     11.481
REMARK  3 active torsions:
REMARK  status: ('A' for Active; 'I' for Inactive)
REMARK    1  A    between atoms: C12_15  and  O2_16 
REMARK    2  A    between atoms: N2_18  and  C14_19 
REMARK    3  A    between atoms: C15_20  and  O3_21 
ROOT
HETATM    1  C1  UNL     1      27.228   8.858  45.193  1.00  0.00     0.064 C 
HETATM    2  C2  UNL     1      27.781   8.740  46.391  1.00  0.00     0.099 C 
HETATM    3  N1  UNL     1      26.910   8.308  47.426  1.00  0.00    -0.369 N 
HETATM    4  C3  UNL     1      26.095   7.377  48.156  1.00  0.00     0.101 C 
HETATM    5  C4  UNL     1      25.451   8.044  49.377  1.00  0.00     0.036 C 
HETATM    6  C5  UNL     1      26.730   6.126  48.556  1.00  0.00    -0.004 C 
HETATM    7  C6  UNL     1      27.832   5.343  48.590  1.00  0.00    -0.003 C 
HETATM    8  C7  UNL     1      29.251   5.365  48.141  1.00  0.00     0.203 C 
HETATM    9  O1  UNL     1      29.455   6.577  47.499  1.00  0.00    -0.344 OA
HETATM   10  C8  UNL     1      30.581   7.073  46.915  1.00  0.00     0.116 A 
HETATM   11  C9  UNL     1      31.842   6.545  46.763  1.00  0.00     0.046 A 
HETATM   12 BR1  UNL     1      32.031   4.794  47.515  1.00  0.00    -0.048 Br
HETATM   13  C10 UNL     1      32.853   7.231  46.128  1.00  0.00     0.025 A 
HETATM   14  C11 UNL     1      32.646   8.491  45.609  1.00  0.00     0.040 A 
HETATM   15  C12 UNL     1      31.391   9.056  45.741  1.00  0.00     0.095 A 
HETATM   16  C13 UNL     1      30.385   8.353  46.382  1.00  0.00     0.109 A 
HETATM   17  N2  UNL     1      29.160   9.071  46.434  1.00  0.00    -0.294 N 
HETATM   18  H3  UNL     1      26.940   9.298  47.822  1.00  0.00     0.161 HD
ENDROOT
BRANCH  17  19
HETATM   19  C14 UNL     1      29.139  10.488  46.559  1.00  0.00     0.052 C 
HETATM   20  C15 UNL     1      29.358  10.832  47.818  1.00  0.00     0.074 C 
HETATM   21  C16 UNL     1      29.417  12.210  48.370  1.00  0.00     0.062 C 
HETATM   22  C17 UNL     1      30.634  12.278  49.267  1.00  0.00     0.021 C 
HETATM   23  C18 UNL     1      29.464  13.156  47.240  1.00  0.00    -0.019 C 
HETATM   24  C19 UNL     1      29.239  12.806  45.976  1.00  0.00    -0.024 C 
HETATM   25  C20 UNL     1      28.907  11.452  45.445  1.00  0.00     0.087 C 
BRANCH  20  26
HETATM   26  O3  UNL     1      29.538   9.690  48.611  1.00  0.00    -0.362 OA
HETATM   27  H15 UNL     1      28.941   8.890  48.569  1.00  0.00     0.217 HD
ENDBRANCH  20  26
ENDBRANCH  17  19
BRANCH  15  28
HETATM   28  O2  UNL     1      31.244  10.312  45.205  1.00  0.00    -0.358 OA
HETATM   29  H14 UNL     1      31.507  11.124  45.767  1.00  0.00     0.217 HD
ENDBRANCH  15  28
TORSDOF 3
ENDMDL
