MODEL 1
REMARK VINA RESULT:      -7.9      0.000      0.000
REMARK  4 active torsions:
REMARK  status: ('A' for Active; 'I' for Inactive)
REMARK    1  A    between atoms: C4_5  and  N1_6 
REMARK    2  A    between atoms: N1_6  and  C5_7 
REMARK    3  A    between atoms: C10_15  and  O2_16 
REMARK    4  A    between atoms: O2_16  and  C11_17 
ROOT
HETATM    1  C5  UNL     1      24.159  -0.384  53.711  1.00  0.00     0.140 A 
HETATM    2  N2  UNL     1      24.249  -1.023  54.868  1.00  0.00    -0.224 NA
HETATM    3  C6  UNL     1      23.231  -1.414  55.648  1.00  0.00     0.235 A 
HETATM    4  N3  UNL     1      21.986  -1.131  55.217  1.00  0.00    -0.241 NA
HETATM    5  C7  UNL     1      21.764  -0.482  54.054  1.00  0.00     0.075 A 
HETATM    6  C8  UNL     1      22.863  -0.119  53.320  1.00  0.00     0.041 A 
HETATM    7  C9  UNL     1      22.639   0.595  52.036  1.00  0.00     0.223 A 
HETATM    8  O1  UNL     1      21.275   0.807  51.744  1.00  0.00    -0.326 OA
HETATM    9  C10 UNL     1      20.218   0.411  52.534  1.00  0.00     0.183 A 
HETATM   10  C12 UNL     1      20.383  -0.226  53.681  1.00  0.00     0.096 A 
ENDROOT
BRANCH   1  11
HETATM   11  N1  UNL     1      25.218   0.024  52.899  1.00  0.00    -0.340 N 
HETATM   12  H3  UNL     1      24.998   0.522  51.990  1.00  0.00     0.167 HD
BRANCH  11  13
HETATM   13  C4  UNL     1      26.606  -0.143  53.130  1.00  0.00     0.035 A 
HETATM   14  C3  UNL     1      27.346  -1.276  52.891  1.00  0.00     0.032 A 
HETATM   15  C2  UNL     1      28.688  -1.423  53.120  1.00  0.00     0.046 A 
HETATM   16  C1  UNL     1      29.390  -0.366  53.631  1.00  0.00     0.138 A 
HETATM   17  F1  UNL     1      30.711  -0.474  53.869  1.00  0.00    -0.204 F 
HETATM   18  C14 UNL     1      28.723   0.795  53.894  1.00  0.00     0.074 A 
HETATM   19  C13 UNL     1      27.392   0.880  53.647  1.00  0.00     0.056 A 
HETATM   20 CL2  UNL     1      29.612   2.147  54.546  1.00  0.00    -0.081 Cl
ENDBRANCH  11  13
ENDBRANCH   1  11
BRANCH   9  21
HETATM   21  O2  UNL     1      18.918   0.684  52.128  1.00  0.00    -0.316 OA
BRANCH  21  22
HETATM   22  C11 UNL     1      18.086  -0.231  51.468  1.00  0.00     0.292 C 
HETATM   23 CL1  UNL     1      17.228  -1.300  52.597  1.00  0.00    -0.101 Cl
ENDBRANCH  21  22
ENDBRANCH   9  21
TORSDOF 4
ENDMDL
MODEL 2
REMARK VINA RESULT:      -7.8      1.471      2.182
REMARK  4 active torsions:
REMARK  status: ('A' for Active; 'I' for Inactive)
REMARK    1  A    between atoms: C4_5  and  N1_6 
REMARK    2  A    between atoms: N1_6  and  C5_7 
REMARK    3  A    between atoms: C10_15  and  O2_16 
REMARK    4  A    between atoms: O2_16  and  C11_17 
ROOT
HETATM    1  C5  UNL     1      24.009   0.228  52.977  1.00  0.00     0.140 A 
HETATM    2  N2  UNL     1      24.298   1.065  51.993  1.00  0.00    -0.224 NA
HETATM    3  C6  UNL     1      23.424   1.693  51.193  1.00  0.00     0.235 A 
HETATM    4  N3  UNL     1      22.116   1.452  51.407  1.00  0.00    -0.241 NA
HETATM    5  C7  UNL     1      21.695   0.617  52.381  1.00  0.00     0.075 A 
HETATM    6  C8  UNL     1      22.657   0.018  53.152  1.00  0.00     0.041 A 
HETATM    7  C9  UNL     1      22.213  -0.904  54.229  1.00  0.00     0.223 A 
HETATM    8  O1  UNL     1      20.811  -1.038  54.309  1.00  0.00    -0.326 OA
HETATM    9  C10 UNL     1      19.900  -0.400  53.496  1.00  0.00     0.183 A 
HETATM   10  C12 UNL     1      20.262   0.426  52.529  1.00  0.00     0.096 A 
ENDROOT
BRANCH   1  11
HETATM   11  N1  UNL     1      24.918  -0.426  53.810  1.00  0.00    -0.340 N 
HETATM   12  H3  UNL     1      24.546  -0.966  54.643  1.00  0.00     0.167 HD
BRANCH  11  13
HETATM   13  C4  UNL     1      26.330  -0.470  53.694  1.00  0.00     0.035 A 
HETATM   14  C3  UNL     1      27.075  -1.482  53.138  1.00  0.00     0.032 A 
HETATM   15  C2  UNL     1      28.439  -1.510  53.032  1.00  0.00     0.046 A 
HETATM   16  C1  UNL     1      29.161  -0.452  53.512  1.00  0.00     0.138 A 
HETATM   17  F1  UNL     1      30.504  -0.446  53.426  1.00  0.00    -0.204 F 
HETATM   18  C14 UNL     1      28.490   0.592  54.079  1.00  0.00     0.074 A 
HETATM   19  C13 UNL     1      27.136   0.563  54.156  1.00  0.00     0.056 A 
HETATM   20 CL2  UNL     1      29.404   1.946  54.693  1.00  0.00    -0.081 Cl
ENDBRANCH  11  13
ENDBRANCH   1  11
BRANCH   9  21
HETATM   21  O2  UNL     1      18.541  -0.621  53.683  1.00  0.00    -0.316 OA
BRANCH  21  22
HETATM   22  C11 UNL     1      17.769  -1.503  52.914  1.00  0.00     0.292 C 
HETATM   23 CL1  UNL     1      17.647  -3.113  53.653  1.00  0.00    -0.101 Cl
ENDBRANCH  21  22
ENDBRANCH   9  21
TORSDOF 4
ENDMDL
MODEL 3
REMARK VINA RESULT:      -7.6      4.830      6.173
REMARK  4 active torsions:
REMARK  status: ('A' for Active; 'I' for Inactive)
REMARK    1  A    between atoms: C4_5  and  N1_6 
REMARK    2  A    between atoms: N1_6  and  C5_7 
REMARK    3  A    between atoms: C10_15  and  O2_16 
REMARK    4  A    between atoms: O2_16  and  C11_17 
ROOT
HETATM    1  C5  UNL     1      26.854   2.078  51.746  1.00  0.00     0.140 A 
HETATM    2  N2  UNL     1      27.977   2.499  52.306  1.00  0.00    -0.224 NA
HETATM    3  C6  UNL     1      28.410   2.216  53.543  1.00  0.00     0.235 A 
HETATM    4  N3  UNL     1      27.627   1.423  54.300  1.00  0.00    -0.241 NA
HETATM    5  C7  UNL     1      26.457   0.931  53.841  1.00  0.00     0.075 A 
HETATM    6  C8  UNL     1      26.091   1.271  52.565  1.00  0.00     0.041 A 
HETATM    7  C9  UNL     1      24.806   0.738  52.042  1.00  0.00     0.223 A 
HETATM    8  O1  UNL     1      24.118  -0.073  52.968  1.00  0.00    -0.326 OA
HETATM    9  C10 UNL     1      24.550  -0.374  54.242  1.00  0.00     0.183 A 
HETATM   10  C12 UNL     1      25.687   0.084  54.737  1.00  0.00     0.096 A 
ENDROOT
BRANCH   1  11
HETATM   11  N1  UNL     1      26.402   2.372  50.459  1.00  0.00    -0.340 N 
HETATM   12  H3  UNL     1      26.167   1.570  49.808  1.00  0.00     0.167 HD
BRANCH  11  13
HETATM   13  C4  UNL     1      26.207   3.649  49.875  1.00  0.00     0.035 A 
HETATM   14  C3  UNL     1      25.037   4.370  49.855  1.00  0.00     0.032 A 
HETATM   15  C2  UNL     1      24.864   5.604  49.287  1.00  0.00     0.046 A 
HETATM   16  C1  UNL     1      25.929   6.204  48.674  1.00  0.00     0.138 A 
HETATM   17  F1  UNL     1      25.795   7.416  48.104  1.00  0.00    -0.204 F 
HETATM   18  C14 UNL     1      27.125   5.548  48.654  1.00  0.00     0.074 A 
HETATM   19  C13 UNL     1      27.236   4.327  49.234  1.00  0.00     0.056 A 
HETATM   20 CL2  UNL     1      28.489   6.308  47.874  1.00  0.00    -0.081 Cl
ENDBRANCH  11  13
ENDBRANCH   1  11
BRANCH   9  21
HETATM   21  O2  UNL     1      23.772  -1.188  55.056  1.00  0.00    -0.316 OA
BRANCH  21  22
HETATM   22  C11 UNL     1      22.422  -1.483  54.822  1.00  0.00     0.292 C 
HETATM   23 CL1  UNL     1      21.396  -0.035  54.869  1.00  0.00    -0.101 Cl
ENDBRANCH  21  22
ENDBRANCH   9  21
TORSDOF 4
ENDMDL
MODEL 4
REMARK VINA RESULT:      -7.5      4.852      7.034
REMARK  4 active torsions:
REMARK  status: ('A' for Active; 'I' for Inactive)
REMARK    1  A    between atoms: C4_5  and  N1_6 
REMARK    2  A    between atoms: N1_6  and  C5_7 
REMARK    3  A    between atoms: C10_15  and  O2_16 
REMARK    4  A    between atoms: O2_16  and  C11_17 
ROOT
HETATM    1  C5  UNL     1      23.244   2.242  52.660  1.00  0.00     0.140 A 
HETATM    2  N2  UNL     1      22.256   1.424  52.331  1.00  0.00    -0.224 NA
HETATM    3  C6  UNL     1      22.227   0.095  52.502  1.00  0.00     0.235 A 
HETATM    4  N3  UNL     1      23.310  -0.474  53.066  1.00  0.00    -0.241 NA
HETATM    5  C7  UNL     1      24.382   0.255  53.444  1.00  0.00     0.075 A 
HETATM    6  C8  UNL     1      24.327   1.607  53.231  1.00  0.00     0.041 A 
HETATM    7  C9  UNL     1      25.497   2.427  53.642  1.00  0.00     0.223 A 
HETATM    8  O1  UNL     1      26.539   1.667  54.213  1.00  0.00    -0.326 OA
HETATM    9  C10 UNL     1      26.525   0.301  54.396  1.00  0.00     0.183 A 
HETATM   10  C12 UNL     1      25.500  -0.456  54.043  1.00  0.00     0.096 A 
ENDROOT
BRANCH   1  11
HETATM   11  N1  UNL     1      23.275   3.627  52.481  1.00  0.00    -0.340 N 
HETATM   12  H3  UNL     1      22.909   4.247  53.259  1.00  0.00     0.167 HD
BRANCH  11  13
HETATM   13  C4  UNL     1      23.747   4.349  51.357  1.00  0.00     0.035 A 
HETATM   14  C3  UNL     1      24.193   3.818  50.171  1.00  0.00     0.032 A 
HETATM   15  C2  UNL     1      24.646   4.530  49.093  1.00  0.00     0.046 A 
HETATM   16  C1  UNL     1      24.673   5.896  49.167  1.00  0.00     0.138 A 
HETATM   17  F1  UNL     1      25.114   6.628  48.126  1.00  0.00    -0.204 F 
HETATM   18  C14 UNL     1      24.246   6.495  50.315  1.00  0.00     0.074 A 
HETATM   19  C13 UNL     1      23.807   5.738  51.351  1.00  0.00     0.056 A 
HETATM   20 CL2  UNL     1      24.277   8.237  50.417  1.00  0.00    -0.081 Cl
ENDBRANCH  11  13
ENDBRANCH   1  11
BRANCH   9  21
HETATM   21  O2  UNL     1      27.622  -0.325  54.973  1.00  0.00    -0.316 OA
BRANCH  21  22
HETATM   22  C11 UNL     1      28.954  -0.084  54.609  1.00  0.00     0.292 C 
HETATM   23 CL1  UNL     1      29.587  -1.324  53.506  1.00  0.00    -0.101 Cl
ENDBRANCH  21  22
ENDBRANCH   9  21
TORSDOF 4
ENDMDL
MODEL 5
REMARK VINA RESULT:      -7.5      2.542      3.626
REMARK  4 active torsions:
REMARK  status: ('A' for Active; 'I' for Inactive)
REMARK    1  A    between atoms: C4_5  and  N1_6 
REMARK    2  A    between atoms: N1_6  and  C5_7 
REMARK    3  A    between atoms: C10_15  and  O2_16 
REMARK    4  A    between atoms: O2_16  and  C11_17 
ROOT
HETATM    1  C5  UNL     1      25.360   2.596  51.844  1.00  0.00     0.140 A 
HETATM    2  N2  UNL     1      25.634   3.242  50.721  1.00  0.00    -0.224 NA
HETATM    3  C6  UNL     1      24.846   3.339  49.640  1.00  0.00     0.235 A 
HETATM    4  N3  UNL     1      23.652   2.719  49.696  1.00  0.00    -0.241 NA
HETATM    5  C7  UNL     1      23.258   2.027  50.786  1.00  0.00     0.075 A 
HETATM    6  C8  UNL     1      24.126   1.980  51.846  1.00  0.00     0.041 A 
HETATM    7  C9  UNL     1      23.710   1.224  53.056  1.00  0.00     0.223 A 
HETATM    8  O1  UNL     1      22.431   0.640  52.938  1.00  0.00    -0.326 OA
HETATM    9  C10 UNL     1      21.610   0.731  51.836  1.00  0.00     0.183 A 
HETATM   10  C12 UNL     1      21.950   1.395  50.745  1.00  0.00     0.096 A 
ENDROOT
BRANCH   1  11
HETATM   11  N1  UNL     1      26.180   2.494  52.969  1.00  0.00    -0.340 N 
HETATM   12  H3  UNL     1      26.030   3.172  53.769  1.00  0.00     0.167 HD
BRANCH  11  13
HETATM   13  C4  UNL     1      27.231   1.572  53.199  1.00  0.00     0.035 A 
HETATM   14  C3  UNL     1      28.478   1.859  53.699  1.00  0.00     0.032 A 
HETATM   15  C2  UNL     1      29.484   0.956  53.917  1.00  0.00     0.046 A 
HETATM   16  C1  UNL     1      29.264  -0.361  53.621  1.00  0.00     0.138 A 
HETATM   17  F1  UNL     1      30.231  -1.277  53.821  1.00  0.00    -0.204 F 
HETATM   18  C14 UNL     1      28.048  -0.723  53.120  1.00  0.00     0.074 A 
HETATM   19  C13 UNL     1      27.090   0.216  52.926  1.00  0.00     0.056 A 
HETATM   20 CL2  UNL     1      27.760  -2.402  52.741  1.00  0.00    -0.081 Cl
ENDBRANCH  11  13
ENDBRANCH   1  11
BRANCH   9  21
HETATM   21  O2  UNL     1      20.369   0.105  51.851  1.00  0.00    -0.316 OA
BRANCH  21  22
HETATM   22  C11 UNL     1      19.617  -0.134  53.010  1.00  0.00     0.292 C 
HETATM   23 CL1  UNL     1      20.215  -1.533  53.926  1.00  0.00    -0.101 Cl
ENDBRANCH  21  22
ENDBRANCH   9  21
TORSDOF 4
ENDMDL
MODEL 6
REMARK VINA RESULT:      -7.5      3.876      8.166
REMARK  4 active torsions:
REMARK  status: ('A' for Active; 'I' for Inactive)
REMARK    1  A    between atoms: C4_5  and  N1_6 
REMARK    2  A    between atoms: N1_6  and  C5_7 
REMARK    3  A    between atoms: C10_15  and  O2_16 
REMARK    4  A    between atoms: O2_16  and  C11_17 
ROOT
HETATM    1  C5  UNL     1      22.593   1.301  52.677  1.00  0.00     0.140 A 
HETATM    2  N2  UNL     1      22.649   2.286  51.795  1.00  0.00    -0.224 NA
HETATM    3  C6  UNL     1      23.722   2.665  51.085  1.00  0.00     0.235 A 
HETATM    4  N3  UNL     1      24.862   1.978  51.286  1.00  0.00    -0.241 NA
HETATM    5  C7  UNL     1      24.932   0.952  52.161  1.00  0.00     0.075 A 
HETATM    6  C8  UNL     1      23.788   0.632  52.844  1.00  0.00     0.041 A 
HETATM    7  C9  UNL     1      23.844  -0.495  53.811  1.00  0.00     0.223 A 
HETATM    8  O1  UNL     1      25.116  -1.099  53.893  1.00  0.00    -0.326 OA
HETATM    9  C10 UNL     1      26.227  -0.722  53.170  1.00  0.00     0.183 A 
HETATM   10  C12 UNL     1      26.211   0.276  52.303  1.00  0.00     0.096 A 
ENDROOT
BRANCH   1  11
HETATM   11  N1  UNL     1      21.476   0.906  53.417  1.00  0.00    -0.340 N 
HETATM   12  H3  UNL     1      21.511   0.990  54.472  1.00  0.00     0.167 HD
BRANCH  11  13
HETATM   13  C4  UNL     1      20.251   0.385  52.932  1.00  0.00     0.035 A 
HETATM   14  C3  UNL     1      19.506   0.881  51.888  1.00  0.00     0.032 A 
HETATM   15  C2  UNL     1      18.323   0.366  51.431  1.00  0.00     0.046 A 
HETATM   16  C1  UNL     1      17.803  -0.741  52.043  1.00  0.00     0.138 A 
HETATM   17  F1  UNL     1      16.641  -1.274  51.620  1.00  0.00    -0.204 F 
HETATM   18  C14 UNL     1      18.487  -1.290  53.088  1.00  0.00     0.074 A 
HETATM   19  C13 UNL     1      19.655  -0.736  53.497  1.00  0.00     0.056 A 
HETATM   20 CL2  UNL     1      17.831  -2.703  53.874  1.00  0.00    -0.081 Cl
ENDBRANCH  11  13
ENDBRANCH   1  11
BRANCH   9  21
HETATM   21  O2  UNL     1      27.425  -1.404  53.348  1.00  0.00    -0.316 OA
BRANCH  21  22
HETATM   22  C11 UNL     1      28.670  -0.786  53.525  1.00  0.00     0.292 C 
HETATM   23 CL1  UNL     1      28.705   0.266  54.955  1.00  0.00    -0.101 Cl
ENDBRANCH  21  22
ENDBRANCH   9  21
TORSDOF 4
ENDMDL
MODEL 7
REMARK VINA RESULT:      -7.4      5.648      7.522
REMARK  4 active torsions:
REMARK  status: ('A' for Active; 'I' for Inactive)
REMARK    1  A    between atoms: C4_5  and  N1_6 
REMARK    2  A    between atoms: N1_6  and  C5_7 
REMARK    3  A    between atoms: C10_15  and  O2_16 
REMARK    4  A    between atoms: O2_16  and  C11_17 
ROOT
HETATM    1  C5  UNL     1      24.933   3.648  50.740  1.00  0.00     0.140 A 
HETATM    2  N2  UNL     1      23.862   4.262  51.219  1.00  0.00    -0.224 NA
HETATM    3  C6  UNL     1      23.318   4.093  52.433  1.00  0.00     0.235 A 
HETATM    4  N3  UNL     1      23.918   3.210  53.255  1.00  0.00    -0.241 NA
HETATM    5  C7  UNL     1      25.017   2.521  52.881  1.00  0.00     0.075 A 
HETATM    6  C8  UNL     1      25.505   2.756  51.622  1.00  0.00     0.041 A 
HETATM    7  C9  UNL     1      26.715   2.007  51.192  1.00  0.00     0.223 A 
HETATM    8  O1  UNL     1      27.208   1.126  52.178  1.00  0.00    -0.326 OA
HETATM    9  C10 UNL     1      26.661   0.942  53.430  1.00  0.00     0.183 A 
HETATM   10  C12 UNL     1      25.587   1.592  53.843  1.00  0.00     0.096 A 
ENDROOT
BRANCH   1  11
HETATM   11  N1  UNL     1      25.499   3.823  49.476  1.00  0.00    -0.340 N 
HETATM   12  H3  UNL     1      25.332   3.081  48.738  1.00  0.00     0.167 HD
BRANCH  11  13
HETATM   13  C4  UNL     1      26.301   4.900  49.023  1.00  0.00     0.035 A 
HETATM   14  C3  UNL     1      25.901   6.204  48.853  1.00  0.00     0.032 A 
HETATM   15  C2  UNL     1      26.688   7.234  48.414  1.00  0.00     0.046 A 
HETATM   16  C1  UNL     1      27.997   6.981  48.107  1.00  0.00     0.138 A 
HETATM   17  F1  UNL     1      28.800   7.971  47.671  1.00  0.00    -0.204 F 
HETATM   18  C14 UNL     1      28.467   5.709  48.251  1.00  0.00     0.074 A 
HETATM   19  C13 UNL     1      27.639   4.728  48.690  1.00  0.00     0.056 A 
HETATM   20 CL2  UNL     1      30.136   5.379  47.862  1.00  0.00    -0.081 Cl
ENDBRANCH  11  13
ENDBRANCH   1  11
BRANCH   9  21
HETATM   21  O2  UNL     1      27.248   0.040  54.308  1.00  0.00    -0.316 OA
BRANCH  21  22
HETATM   22  C11 UNL     1      28.607   0.038  54.652  1.00  0.00     0.292 C 
HETATM   23 CL1  UNL     1      29.569  -1.020  53.599  1.00  0.00    -0.101 Cl
ENDBRANCH  21  22
ENDBRANCH   9  21
TORSDOF 4
ENDMDL
MODEL 8
REMARK VINA RESULT:      -7.3      4.590      7.210
REMARK  4 active torsions:
REMARK  status: ('A' for Active; 'I' for Inactive)
REMARK    1  A    between atoms: C4_5  and  N1_6 
REMARK    2  A    between atoms: N1_6  and  C5_7 
REMARK    3  A    between atoms: C10_15  and  O2_16 
REMARK    4  A    between atoms: O2_16  and  C11_17 
ROOT
HETATM    1  C5  UNL     1      22.702   1.500  52.649  1.00  0.00     0.140 A 
HETATM    2  N2  UNL     1      21.646   0.896  53.173  1.00  0.00    -0.224 NA
HETATM    3  C6  UNL     1      21.654  -0.185  53.966  1.00  0.00     0.235 A 
HETATM    4  N3  UNL     1      22.855  -0.717  54.263  1.00  0.00    -0.241 NA
HETATM    5  C7  UNL     1      24.005  -0.192  53.789  1.00  0.00     0.075 A 
HETATM    6  C8  UNL     1      23.904   0.913  52.986  1.00  0.00     0.041 A 
HETATM    7  C9  UNL     1      25.159   1.506  52.454  1.00  0.00     0.223 A 
HETATM    8  O1  UNL     1      26.320   0.821  52.867  1.00  0.00    -0.326 OA
HETATM    9  C10 UNL     1      26.345  -0.291  53.681  1.00  0.00     0.183 A 
HETATM   10  C12 UNL     1      25.248  -0.842  54.170  1.00  0.00     0.096 A 
ENDROOT
BRANCH   1  11
HETATM   11  N1  UNL     1      22.695   2.626  51.823  1.00  0.00    -0.340 N 
HETATM   12  H3  UNL     1      22.812   3.581  52.267  1.00  0.00     0.167 HD
BRANCH  11  13
HETATM   13  C4  UNL     1      22.544   2.672  50.415  1.00  0.00     0.035 A 
HETATM   14  C3  UNL     1      22.182   1.630  49.596  1.00  0.00     0.032 A 
HETATM   15  C2  UNL     1      22.040   1.689  48.235  1.00  0.00     0.046 A 
HETATM   16  C1  UNL     1      22.273   2.877  47.599  1.00  0.00     0.138 A 
HETATM   17  F1  UNL     1      22.144   2.972  46.262  1.00  0.00    -0.204 F 
HETATM   18  C14 UNL     1      22.637   3.958  48.347  1.00  0.00     0.074 A 
HETATM   19  C13 UNL     1      22.761   3.838  49.692  1.00  0.00     0.056 A 
HETATM   20 CL2  UNL     1      22.935   5.477  47.542  1.00  0.00    -0.081 Cl
ENDBRANCH  11  13
ENDBRANCH   1  11
BRANCH   9  21
HETATM   21  O2  UNL     1      27.564  -0.871  54.012  1.00  0.00    -0.316 OA
BRANCH  21  22
HETATM   22  C11 UNL     1      28.703  -0.154  54.400  1.00  0.00     0.292 C 
HETATM   23 CL1  UNL     1      30.170  -0.716  53.572  1.00  0.00    -0.101 Cl
ENDBRANCH  21  22
ENDBRANCH   9  21
TORSDOF 4
ENDMDL
MODEL 9
REMARK VINA RESULT:      -7.2      4.401      6.913
REMARK  4 active torsions:
REMARK  status: ('A' for Active; 'I' for Inactive)
REMARK    1  A    between atoms: C4_5  and  N1_6 
REMARK    2  A    between atoms: N1_6  and  C5_7 
REMARK    3  A    between atoms: C10_15  and  O2_16 
REMARK    4  A    between atoms: O2_16  and  C11_17 
ROOT
HETATM    1  C5  UNL     1      22.950   0.629  52.266  1.00  0.00     0.140 A 
HETATM    2  N2  UNL     1      21.907   0.006  52.794  1.00  0.00    -0.224 NA
HETATM    3  C6  UNL     1      21.912  -0.789  53.873  1.00  0.00     0.235 A 
HETATM    4  N3  UNL     1      23.095  -0.978  54.489  1.00  0.00    -0.241 NA
HETATM    5  C7  UNL     1      24.230  -0.397  54.045  1.00  0.00     0.075 A 
HETATM    6  C8  UNL     1      24.134   0.400  52.935  1.00  0.00     0.041 A 
HETATM    7  C9  UNL     1      25.373   1.049  52.432  1.00  0.00     0.223 A 
HETATM    8  O1  UNL     1      26.516   0.741  53.197  1.00  0.00    -0.326 OA
HETATM    9  C10 UNL     1      26.538  -0.074  54.309  1.00  0.00     0.183 A 
HETATM   10  C12 UNL     1      25.455  -0.666  54.782  1.00  0.00     0.096 A 
ENDROOT
BRANCH   1  11
HETATM   11  N1  UNL     1      22.945   1.457  51.142  1.00  0.00    -0.340 N 
HETATM   12  H3  UNL     1      22.975   1.010  50.182  1.00  0.00     0.167 HD
BRANCH  11  13
HETATM   13  C4  UNL     1      22.906   2.873  51.104  1.00  0.00     0.035 A 
HETATM   14  C3  UNL     1      22.185   3.695  51.935  1.00  0.00     0.032 A 
HETATM   15  C2  UNL     1      22.157   5.063  51.886  1.00  0.00     0.046 A 
HETATM   16  C1  UNL     1      22.902   5.705  50.936  1.00  0.00     0.138 A 
HETATM   17  F1  UNL     1      22.898   7.049  50.858  1.00  0.00    -0.204 F 
HETATM   18  C14 UNL     1      23.646   4.955  50.073  1.00  0.00     0.074 A 
HETATM   19  C13 UNL     1      23.633   3.602  50.170  1.00  0.00     0.056 A 
HETATM   20 CL2  UNL     1      24.600   5.767  48.858  1.00  0.00    -0.081 Cl
ENDBRANCH  11  13
ENDBRANCH   1  11
BRANCH   9  21
HETATM   21  O2  UNL     1      27.738  -0.296  54.973  1.00  0.00    -0.316 OA
BRANCH  21  22
HETATM   22  C11 UNL     1      29.002  -0.218  54.373  1.00  0.00     0.292 C 
HETATM   23 CL1  UNL     1      29.362  -1.639  53.370  1.00  0.00    -0.101 Cl
ENDBRANCH  21  22
ENDBRANCH   9  21
TORSDOF 4
ENDMDL
