MODEL 1
REMARK VINA RESULT:      -8.5      0.000      0.000
REMARK  5 active torsions:
REMARK  status: ('A' for Active; 'I' for Inactive)
REMARK    1  A    between atoms: O1_2  and  C2_3 
REMARK    2  A    between atoms: C4_5  and  C5_6 
REMARK    3  A    between atoms: C6_7  and  C7_8 
REMARK    4  A    between atoms: C16_21  and  O4_22 
REMARK    5  A    between atoms: C18_24  and  O5_25 
ROOT
HETATM    1  C5  UNL     1      22.798   0.466  53.098  1.00  0.00     0.058 A 
HETATM    2  C6  UNL     1      23.423  -0.429  53.820  1.00  0.00     0.051 A 
HETATM    3  C13 UNL     1      22.507  -0.936  54.862  1.00  0.00     0.259 A 
HETATM    4  O2  UNL     1      22.769  -1.821  55.751  1.00  0.00    -0.267 OA
HETATM    5  N2  UNL     1      21.263  -0.283  54.728  1.00  0.00    -0.289 N 
HETATM    6  C14 UNL     1      21.419   0.601  53.630  1.00  0.00     0.260 A 
HETATM    7  O3  UNL     1      20.338   1.259  53.408  1.00  0.00    -0.267 OA
HETATM    8  H13 UNL     1      20.489  -0.535  55.404  1.00  0.00     0.172 HD
ENDROOT
BRANCH   1   9
HETATM    9  C4  UNL     1      22.864   1.408  51.988  1.00  0.00    -0.014 A 
HETATM   10  C3  UNL     1      23.571   2.589  52.053  1.00  0.00     0.052 A 
HETATM   11  C2  UNL     1      23.718   3.534  51.066  1.00  0.00     0.104 A 
HETATM   12  C18 UNL     1      23.064   3.221  49.902  1.00  0.00     0.133 A 
HETATM   13  C16 UNL     1      22.321   2.080  49.696  1.00  0.00     0.104 A 
HETATM   14  C15 UNL     1      22.246   1.212  50.747  1.00  0.00     0.052 A 
BRANCH  11  15
HETATM   15  O1  UNL     1      24.441   4.702  51.187  1.00  0.00    -0.353 OA
HETATM   16  C1  UNL     1      23.880   5.944  51.550  1.00  0.00     0.210 C 
ENDBRANCH  11  15
BRANCH  12  17
HETATM   17  O5  UNL     1      23.147   4.115  48.834  1.00  0.00    -0.356 OA
HETATM   18  H18 UNL     1      24.071   4.558  48.736  1.00  0.00     0.218 HD
ENDBRANCH  12  17
BRANCH  13  19
HETATM   19  O4  UNL     1      21.695   1.848  48.482  1.00  0.00    -0.353 OA
HETATM   20  C17 UNL     1      20.383   2.198  48.184  1.00  0.00     0.210 C 
ENDBRANCH  13  19
ENDBRANCH   1   9
BRANCH   2  21
HETATM   21  C7  UNL     1      24.770  -0.813  53.589  1.00  0.00     0.047 C 
HETATM   22  C8  UNL     1      26.037  -0.665  53.753  1.00  0.00     0.028 C 
HETATM   23  C9  UNL     1      26.770   0.328  54.517  1.00  0.00     0.025 C 
HETATM   24  N1  UNL     1      27.024  -1.539  53.198  1.00  0.00    -0.390 N 
HETATM   25  C10 UNL     1      28.062   0.438  54.689  1.00  0.00    -0.023 C 
HETATM   26  C11 UNL     1      29.047  -0.482  54.104  1.00  0.00     0.047 C 
HETATM   27  C12 UNL     1      28.449  -1.501  53.189  1.00  0.00     0.123 C 
HETATM   28  H12 UNL     1      26.725  -2.412  52.667  1.00  0.00     0.159 HD
ENDBRANCH   2  21
TORSDOF 5
ENDMDL
MODEL 2
REMARK VINA RESULT:      -8.5      0.148      2.402
REMARK  5 active torsions:
REMARK  status: ('A' for Active; 'I' for Inactive)
REMARK    1  A    between atoms: O1_2  and  C2_3 
REMARK    2  A    between atoms: C4_5  and  C5_6 
REMARK    3  A    between atoms: C6_7  and  C7_8 
REMARK    4  A    between atoms: C16_21  and  O4_22 
REMARK    5  A    between atoms: C18_24  and  O5_25 
ROOT
HETATM    1  C5  UNL     1      22.924   0.535  53.014  1.00  0.00     0.058 A 
HETATM    2  C6  UNL     1      23.524  -0.371  53.743  1.00  0.00     0.051 A 
HETATM    3  C13 UNL     1      22.580  -0.877  54.761  1.00  0.00     0.259 A 
HETATM    4  O2  UNL     1      22.814  -1.770  55.649  1.00  0.00    -0.267 OA
HETATM    5  N2  UNL     1      21.346  -0.211  54.603  1.00  0.00    -0.289 N 
HETATM    6  C14 UNL     1      21.534   0.679  53.516  1.00  0.00     0.260 A 
HETATM    7  O3  UNL     1      20.465   1.350  53.275  1.00  0.00    -0.267 OA
HETATM    8  H13 UNL     1      20.554  -0.460  55.260  1.00  0.00     0.172 HD
ENDROOT
BRANCH   1   9
HETATM    9  C4  UNL     1      23.023   1.485  51.913  1.00  0.00    -0.014 A 
HETATM   10  C3  UNL     1      22.424   1.274  50.690  1.00  0.00     0.052 A 
HETATM   11  C2  UNL     1      22.435   2.106  49.595  1.00  0.00     0.104 A 
HETATM   12  C18 UNL     1      23.138   3.266  49.794  1.00  0.00     0.133 A 
HETATM   13  C16 UNL     1      23.786   3.609  50.959  1.00  0.00     0.104 A 
HETATM   14  C15 UNL     1      23.706   2.705  51.980  1.00  0.00     0.052 A 
BRANCH  11  15
HETATM   15  O1  UNL     1      21.816   1.843  48.393  1.00  0.00    -0.353 OA
HETATM   16  C1  UNL     1      20.499   2.241  48.078  1.00  0.00     0.210 C 
ENDBRANCH  11  15
BRANCH  12  17
HETATM   17  O5  UNL     1      23.214   4.183  48.744  1.00  0.00    -0.356 OA
HETATM   18  H18 UNL     1      22.926   5.137  49.007  1.00  0.00     0.218 HD
ENDBRANCH  12  17
BRANCH  13  19
HETATM   19  O4  UNL     1      24.473   4.807  51.068  1.00  0.00    -0.353 OA
HETATM   20  C17 UNL     1      23.915   6.010  51.486  1.00  0.00     0.210 C 
ENDBRANCH  13  19
ENDBRANCH   1   9
BRANCH   2  21
HETATM   21  C7  UNL     1      24.873  -0.766  53.540  1.00  0.00     0.047 C 
HETATM   22  C8  UNL     1      26.138  -0.624  53.725  1.00  0.00     0.028 C 
HETATM   23  C9  UNL     1      26.864   0.371  54.492  1.00  0.00     0.025 C 
HETATM   24  N1  UNL     1      27.128  -1.510  53.195  1.00  0.00    -0.390 N 
HETATM   25  C10 UNL     1      28.153   0.474  54.686  1.00  0.00    -0.023 C 
HETATM   26  C11 UNL     1      29.141  -0.458  54.127  1.00  0.00     0.047 C 
HETATM   27  C12 UNL     1      28.553  -1.481  53.211  1.00  0.00     0.123 C 
HETATM   28  H12 UNL     1      26.833  -2.386  52.667  1.00  0.00     0.159 HD
ENDBRANCH   2  21
TORSDOF 5
ENDMDL
MODEL 3
REMARK VINA RESULT:      -8.4      2.719      6.132
REMARK  5 active torsions:
REMARK  status: ('A' for Active; 'I' for Inactive)
REMARK    1  A    between atoms: O1_2  and  C2_3 
REMARK    2  A    between atoms: C4_5  and  C5_6 
REMARK    3  A    between atoms: C6_7  and  C7_8 
REMARK    4  A    between atoms: C16_21  and  O4_22 
REMARK    5  A    between atoms: C18_24  and  O5_25 
ROOT
HETATM    1  C5  UNL     1      24.250  -0.384  54.080  1.00  0.00     0.058 A 
HETATM    2  C6  UNL     1      23.007  -0.585  53.724  1.00  0.00     0.051 A 
HETATM    3  C13 UNL     1      22.331  -1.390  54.763  1.00  0.00     0.259 A 
HETATM    4  O2  UNL     1      21.110  -1.781  54.759  1.00  0.00    -0.267 OA
HETATM    5  N2  UNL     1      23.256  -1.670  55.791  1.00  0.00    -0.289 N 
HETATM    6  C14 UNL     1      24.466  -1.051  55.387  1.00  0.00     0.260 A 
HETATM    7  O3  UNL     1      25.395  -1.240  56.255  1.00  0.00    -0.267 OA
HETATM    8  H13 UNL     1      22.928  -2.243  56.618  1.00  0.00     0.172 HD
ENDROOT
BRANCH   1   9
HETATM    9  C4  UNL     1      25.537   0.212  53.747  1.00  0.00    -0.014 A 
HETATM   10  C3  UNL     1      26.728  -0.246  54.269  1.00  0.00     0.052 A 
HETATM   11  C2  UNL     1      27.994   0.225  54.010  1.00  0.00     0.104 A 
HETATM   12  C18 UNL     1      28.021   1.272  53.125  1.00  0.00     0.133 A 
HETATM   13  C16 UNL     1      26.914   1.832  52.529  1.00  0.00     0.104 A 
HETATM   14  C15 UNL     1      25.709   1.282  52.861  1.00  0.00     0.052 A 
BRANCH  11  15
HETATM   15  O1  UNL     1      29.154  -0.274  54.562  1.00  0.00    -0.353 OA
HETATM   16  C1  UNL     1      29.978  -1.234  53.936  1.00  0.00     0.210 C 
ENDBRANCH  11  15
BRANCH  12  17
HETATM   17  O5  UNL     1      29.258   1.828  52.793  1.00  0.00    -0.356 OA
HETATM   18  H18 UNL     1      29.870   1.989  53.605  1.00  0.00     0.218 HD
ENDBRANCH  12  17
BRANCH  13  19
HETATM   19  O4  UNL     1      27.039   2.892  51.645  1.00  0.00    -0.353 OA
HETATM   20  C17 UNL     1      26.490   2.932  50.368  1.00  0.00     0.210 C 
ENDBRANCH  13  19
ENDBRANCH   1   9
BRANCH   2  21
HETATM   21  C7  UNL     1      22.450  -0.084  52.518  1.00  0.00     0.047 C 
HETATM   22  C8  UNL     1      21.449   0.236  51.776  1.00  0.00     0.028 C 
HETATM   23  C9  UNL     1      20.025   0.144  52.038  1.00  0.00     0.025 C 
HETATM   24  N1  UNL     1      21.571   0.814  50.474  1.00  0.00    -0.390 N 
HETATM   25  C10 UNL     1      19.027   0.504  51.273  1.00  0.00    -0.023 C 
HETATM   26  C11 UNL     1      19.191   1.098  49.940  1.00  0.00     0.047 C 
HETATM   27  C12 UNL     1      20.611   1.153  49.476  1.00  0.00     0.123 C 
HETATM   28  H12 UNL     1      22.531   1.071  50.091  1.00  0.00     0.159 HD
ENDBRANCH   2  21
TORSDOF 5
ENDMDL
MODEL 4
REMARK VINA RESULT:      -8.2      2.584      5.786
REMARK  5 active torsions:
REMARK  status: ('A' for Active; 'I' for Inactive)
REMARK    1  A    between atoms: O1_2  and  C2_3 
REMARK    2  A    between atoms: C4_5  and  C5_6 
REMARK    3  A    between atoms: C6_7  and  C7_8 
REMARK    4  A    between atoms: C16_21  and  O4_22 
REMARK    5  A    between atoms: C18_24  and  O5_25 
ROOT
HETATM    1  C5  UNL     1      24.153   0.077  53.565  1.00  0.00     0.058 A 
HETATM    2  C6  UNL     1      22.976  -0.469  53.742  1.00  0.00     0.051 A 
HETATM    3  C13 UNL     1      23.041  -1.394  54.892  1.00  0.00     0.259 A 
HETATM    4  O2  UNL     1      22.083  -2.105  55.361  1.00  0.00    -0.267 OA
HETATM    5  N2  UNL     1      24.351  -1.377  55.414  1.00  0.00    -0.289 N 
HETATM    6  C14 UNL     1      25.068  -0.463  54.601  1.00  0.00     0.260 A 
HETATM    7  O3  UNL     1      26.291  -0.362  54.984  1.00  0.00    -0.267 OA
HETATM    8  H13 UNL     1      24.567  -1.990  56.249  1.00  0.00     0.172 HD
ENDROOT
BRANCH   1   9
HETATM    9  C4  UNL     1      24.973   0.992  52.782  1.00  0.00    -0.014 A 
HETATM   10  C3  UNL     1      24.498   1.652  51.669  1.00  0.00     0.052 A 
HETATM   11  C2  UNL     1      25.173   2.548  50.874  1.00  0.00     0.104 A 
HETATM   12  C18 UNL     1      26.465   2.776  51.275  1.00  0.00     0.133 A 
HETATM   13  C16 UNL     1      27.070   2.188  52.363  1.00  0.00     0.104 A 
HETATM   14  C15 UNL     1      26.302   1.315  53.080  1.00  0.00     0.052 A 
BRANCH  11  15
HETATM   15  O1  UNL     1      24.647   3.181  49.769  1.00  0.00    -0.353 OA
HETATM   16  C1  UNL     1      23.821   4.323  49.830  1.00  0.00     0.210 C 
ENDBRANCH  11  15
BRANCH  12  17
HETATM   17  O5  UNL     1      27.241   3.669  50.535  1.00  0.00    -0.356 OA
HETATM   18  H18 UNL     1      27.433   4.554  51.026  1.00  0.00     0.218 HD
ENDBRANCH  12  17
BRANCH  13  19
HETATM   19  O4  UNL     1      28.383   2.480  52.693  1.00  0.00    -0.353 OA
HETATM   20  C17 UNL     1      28.987   2.170  53.906  1.00  0.00     0.210 C 
ENDBRANCH  13  19
ENDBRANCH   1   9
BRANCH   2  21
HETATM   21  C7  UNL     1      21.852  -0.178  52.926  1.00  0.00     0.047 C 
HETATM   22  C8  UNL     1      20.597  -0.251  52.653  1.00  0.00     0.028 C 
HETATM   23  C9  UNL     1      19.523  -0.914  53.370  1.00  0.00     0.025 C 
HETATM   24  N1  UNL     1      19.984   0.384  51.529  1.00  0.00    -0.390 N 
HETATM   25  C10 UNL     1      18.247  -0.948  53.084  1.00  0.00    -0.023 C 
HETATM   26  C11 UNL     1      17.652  -0.280  51.919  1.00  0.00     0.047 C 
HETATM   27  C12 UNL     1      18.655   0.355  51.012  1.00  0.00     0.123 C 
HETATM   28  H12 UNL     1      20.558   1.018  50.895  1.00  0.00     0.159 HD
ENDBRANCH   2  21
TORSDOF 5
ENDMDL
MODEL 5
REMARK VINA RESULT:      -8.1      2.431      2.977
REMARK  5 active torsions:
REMARK  status: ('A' for Active; 'I' for Inactive)
REMARK    1  A    between atoms: O1_2  and  C2_3 
REMARK    2  A    between atoms: C4_5  and  C5_6 
REMARK    3  A    between atoms: C6_7  and  C7_8 
REMARK    4  A    between atoms: C16_21  and  O4_22 
REMARK    5  A    between atoms: C18_24  and  O5_25 
ROOT
HETATM    1  C5  UNL     1      21.263   0.121  53.060  1.00  0.00     0.058 A 
HETATM    2  C6  UNL     1      22.301  -0.233  53.774  1.00  0.00     0.051 A 
HETATM    3  C13 UNL     1      21.901  -1.305  54.710  1.00  0.00     0.259 A 
HETATM    4  O2  UNL     1      22.651  -1.899  55.563  1.00  0.00    -0.267 OA
HETATM    5  N2  UNL     1      20.533  -1.587  54.517  1.00  0.00    -0.289 N 
HETATM    6  C14 UNL     1      20.108  -0.707  53.488  1.00  0.00     0.260 A 
HETATM    7  O3  UNL     1      18.862  -0.873  53.222  1.00  0.00    -0.267 OA
HETATM    8  H13 UNL     1      20.085  -2.338  55.113  1.00  0.00     0.172 HD
ENDROOT
BRANCH   1   9
HETATM    9  C4  UNL     1      20.733   0.989  52.016  1.00  0.00    -0.014 A 
HETATM   10  C3  UNL     1      19.845   2.011  52.276  1.00  0.00     0.052 A 
HETATM   11  C2  UNL     1      19.301   2.898  51.377  1.00  0.00     0.104 A 
HETATM   12  C18 UNL     1      19.721   2.701  50.087  1.00  0.00     0.133 A 
HETATM   13  C16 UNL     1      20.601   1.722  49.682  1.00  0.00     0.104 A 
HETATM   14  C15 UNL     1      21.076   0.899  50.662  1.00  0.00     0.052 A 
BRANCH  11  15
HETATM   15  O1  UNL     1      18.415   3.905  51.694  1.00  0.00    -0.353 OA
HETATM   16  C1  UNL     1      17.013   3.751  51.698  1.00  0.00     0.210 C 
ENDBRANCH  11  15
BRANCH  12  17
HETATM   17  O5  UNL     1      19.228   3.547  49.092  1.00  0.00    -0.356 OA
HETATM   18  H18 UNL     1      19.649   3.386  48.166  1.00  0.00     0.218 HD
ENDBRANCH  12  17
BRANCH  13  19
HETATM   19  O4  UNL     1      20.968   1.598  48.352  1.00  0.00    -0.353 OA
HETATM   20  C17 UNL     1      22.194   1.987  47.826  1.00  0.00     0.210 C 
ENDBRANCH  13  19
ENDBRANCH   1   9
BRANCH   2  21
HETATM   21  C7  UNL     1      23.585   0.356  53.628  1.00  0.00     0.047 C 
HETATM   22  C8  UNL     1      24.851   0.281  53.416  1.00  0.00     0.028 C 
HETATM   23  C9  UNL     1      25.689  -0.878  53.168  1.00  0.00     0.025 C 
HETATM   24  N1  UNL     1      25.720   1.414  53.348  1.00  0.00    -0.390 N 
HETATM   25  C10 UNL     1      26.973  -0.922  52.927  1.00  0.00    -0.023 C 
HETATM   26  C11 UNL     1      27.835   0.266  52.862  1.00  0.00     0.047 C 
HETATM   27  C12 UNL     1      27.133   1.538  53.213  1.00  0.00     0.123 C 
HETATM   28  H12 UNL     1      25.318   2.399  53.405  1.00  0.00     0.159 HD
ENDBRANCH   2  21
TORSDOF 5
ENDMDL
MODEL 6
REMARK VINA RESULT:      -8.0      2.417      3.131
REMARK  5 active torsions:
REMARK  status: ('A' for Active; 'I' for Inactive)
REMARK    1  A    between atoms: O1_2  and  C2_3 
REMARK    2  A    between atoms: C4_5  and  C5_6 
REMARK    3  A    between atoms: C6_7  and  C7_8 
REMARK    4  A    between atoms: C16_21  and  O4_22 
REMARK    5  A    between atoms: C18_24  and  O5_25 
ROOT
HETATM    1  C5  UNL     1      21.306   0.155  53.106  1.00  0.00     0.058 A 
HETATM    2  C6  UNL     1      22.337  -0.215  53.821  1.00  0.00     0.051 A 
HETATM    3  C13 UNL     1      21.928  -1.304  54.733  1.00  0.00     0.259 A 
HETATM    4  O2  UNL     1      22.669  -1.917  55.580  1.00  0.00    -0.267 OA
HETATM    5  N2  UNL     1      20.560  -1.578  54.524  1.00  0.00    -0.289 N 
HETATM    6  C14 UNL     1      20.146  -0.677  53.509  1.00  0.00     0.260 A 
HETATM    7  O3  UNL     1      18.902  -0.834  53.230  1.00  0.00    -0.267 OA
HETATM    8  H13 UNL     1      20.106  -2.339  55.102  1.00  0.00     0.172 HD
ENDROOT
BRANCH   1   9
HETATM    9  C4  UNL     1      20.787   1.045  52.076  1.00  0.00    -0.014 A 
HETATM   10  C3  UNL     1      21.118   0.918  50.744  1.00  0.00     0.052 A 
HETATM   11  C2  UNL     1      20.674   1.683  49.691  1.00  0.00     0.104 A 
HETATM   12  C18 UNL     1      19.803   2.675  50.062  1.00  0.00     0.133 A 
HETATM   13  C16 UNL     1      19.385   2.919  51.351  1.00  0.00     0.104 A 
HETATM   14  C15 UNL     1      19.892   2.096  52.314  1.00  0.00     0.052 A 
BRANCH  11  15
HETATM   15  O1  UNL     1      21.040   1.509  48.374  1.00  0.00    -0.353 OA
HETATM   16  C1  UNL     1      22.249   1.981  47.821  1.00  0.00     0.210 C 
ENDBRANCH  11  15
BRANCH  12  17
HETATM   17  O5  UNL     1      19.291   3.512  49.070  1.00  0.00    -0.356 OA
HETATM   18  H18 UNL     1      20.016   4.008  48.532  1.00  0.00     0.218 HD
ENDBRANCH  12  17
BRANCH  13  19
HETATM   19  O4  UNL     1      18.500   3.948  51.630  1.00  0.00    -0.353 OA
HETATM   20  C17 UNL     1      17.117   3.816  51.685  1.00  0.00     0.210 C 
ENDBRANCH  13  19
ENDBRANCH   1   9
BRANCH   2  21
HETATM   21  C7  UNL     1      23.624   0.372  53.697  1.00  0.00     0.047 C 
HETATM   22  C8  UNL     1      24.888   0.300  53.473  1.00  0.00     0.028 C 
HETATM   23  C9  UNL     1      25.718  -0.849  53.162  1.00  0.00     0.025 C 
HETATM   24  N1  UNL     1      25.764   1.431  53.457  1.00  0.00    -0.390 N 
HETATM   25  C10 UNL     1      27.000  -0.889  52.911  1.00  0.00    -0.023 C 
HETATM   26  C11 UNL     1      27.869   0.296  52.900  1.00  0.00     0.047 C 
HETATM   27  C12 UNL     1      27.177   1.553  53.319  1.00  0.00     0.123 C 
HETATM   28  H12 UNL     1      25.369   2.414  53.566  1.00  0.00     0.159 HD
ENDBRANCH   2  21
TORSDOF 5
ENDMDL
MODEL 7
REMARK VINA RESULT:      -8.0      2.318      5.310
REMARK  5 active torsions:
REMARK  status: ('A' for Active; 'I' for Inactive)
REMARK    1  A    between atoms: O1_2  and  C2_3 
REMARK    2  A    between atoms: C4_5  and  C5_6 
REMARK    3  A    between atoms: C6_7  and  C7_8 
REMARK    4  A    between atoms: C16_21  and  O4_22 
REMARK    5  A    between atoms: C18_24  and  O5_25 
ROOT
HETATM    1  C5  UNL     1      23.979   0.277  53.502  1.00  0.00     0.058 A 
HETATM    2  C6  UNL     1      22.763  -0.118  53.782  1.00  0.00     0.051 A 
HETATM    3  C13 UNL     1      22.826  -1.194  54.794  1.00  0.00     0.259 A 
HETATM    4  O2  UNL     1      21.835  -1.822  55.309  1.00  0.00    -0.267 OA
HETATM    5  N2  UNL     1      24.178  -1.432  55.117  1.00  0.00    -0.289 N 
HETATM    6  C14 UNL     1      24.922  -0.523  54.322  1.00  0.00     0.260 A 
HETATM    7  O3  UNL     1      26.183  -0.648  54.532  1.00  0.00    -0.267 OA
HETATM    8  H13 UNL     1      24.399  -2.179  55.834  1.00  0.00     0.172 HD
ENDROOT
BRANCH   1   9
HETATM    9  C4  UNL     1      24.827   1.169  52.722  1.00  0.00    -0.014 A 
HETATM   10  C3  UNL     1      26.128   1.457  53.073  1.00  0.00     0.052 A 
HETATM   11  C2  UNL     1      27.020   2.262  52.404  1.00  0.00     0.104 A 
HETATM   12  C18 UNL     1      26.506   2.820  51.261  1.00  0.00     0.133 A 
HETATM   13  C16 UNL     1      25.228   2.622  50.790  1.00  0.00     0.104 A 
HETATM   14  C15 UNL     1      24.432   1.802  51.537  1.00  0.00     0.052 A 
BRANCH  11  15
HETATM   15  O1  UNL     1      28.314   2.516  52.803  1.00  0.00    -0.353 OA
HETATM   16  C1  UNL     1      28.942   1.885  53.897  1.00  0.00     0.210 C 
ENDBRANCH  11  15
BRANCH  12  17
HETATM   17  O5  UNL     1      27.328   3.657  50.504  1.00  0.00    -0.356 OA
HETATM   18  H18 UNL     1      26.950   3.874  49.571  1.00  0.00     0.218 HD
ENDBRANCH  12  17
BRANCH  13  19
HETATM   19  O4  UNL     1      24.796   3.229  49.622  1.00  0.00    -0.353 OA
HETATM   20  C17 UNL     1      23.471   3.312  49.211  1.00  0.00     0.210 C 
ENDBRANCH  13  19
ENDBRANCH   1   9
BRANCH   2  21
HETATM   21  C7  UNL     1      21.604   0.437  53.178  1.00  0.00     0.047 C 
HETATM   22  C8  UNL     1      20.906   0.763  52.149  1.00  0.00     0.028 C 
HETATM   23  C9  UNL     1      21.199   0.613  50.735  1.00  0.00     0.025 C 
HETATM   24  N1  UNL     1      19.602   1.346  52.218  1.00  0.00    -0.390 N 
HETATM   25  C10 UNL     1      20.455   0.929  49.707  1.00  0.00    -0.023 C 
HETATM   26  C11 UNL     1      19.117   1.525  49.818  1.00  0.00     0.047 C 
HETATM   27  C12 UNL     1      18.718   1.851  51.221  1.00  0.00     0.123 C 
HETATM   28  H12 UNL     1      19.122   1.471  53.161  1.00  0.00     0.159 HD
ENDBRANCH   2  21
TORSDOF 5
ENDMDL
MODEL 8
REMARK VINA RESULT:      -7.9      2.186      4.581
REMARK  5 active torsions:
REMARK  status: ('A' for Active; 'I' for Inactive)
REMARK    1  A    between atoms: O1_2  and  C2_3 
REMARK    2  A    between atoms: C4_5  and  C5_6 
REMARK    3  A    between atoms: C6_7  and  C7_8 
REMARK    4  A    between atoms: C16_21  and  O4_22 
REMARK    5  A    between atoms: C18_24  and  O5_25 
ROOT
HETATM    1  C5  UNL     1      24.107   1.746  51.660  1.00  0.00     0.058 A 
HETATM    2  C6  UNL     1      25.405   1.776  51.493  1.00  0.00     0.051 A 
HETATM    3  C13 UNL     1      25.773   3.019  50.785  1.00  0.00     0.259 A 
HETATM    4  O2  UNL     1      26.953   3.392  50.449  1.00  0.00    -0.267 OA
HETATM    5  N2  UNL     1      24.599   3.758  50.527  1.00  0.00    -0.289 N 
HETATM    6  C14 UNL     1      23.541   2.982  51.066  1.00  0.00     0.260 A 
HETATM    7  O3  UNL     1      22.407   3.560  50.889  1.00  0.00    -0.267 OA
HETATM    8  H13 UNL     1      24.689   4.683  50.023  1.00  0.00     0.172 HD
ENDROOT
BRANCH   1   9
HETATM    9  C4  UNL     1      22.955   1.018  52.176  1.00  0.00    -0.014 A 
HETATM   10  C3  UNL     1      22.956   0.397  53.406  1.00  0.00     0.052 A 
HETATM   11  C2  UNL     1      21.925  -0.295  53.997  1.00  0.00     0.104 A 
HETATM   12  C18 UNL     1      20.787  -0.345  53.233  1.00  0.00     0.133 A 
HETATM   13  C16 UNL     1      20.644   0.227  51.990  1.00  0.00     0.104 A 
HETATM   14  C15 UNL     1      21.734   0.889  51.503  1.00  0.00     0.052 A 
BRANCH  11  15
HETATM   15  O1  UNL     1      21.981  -0.899  55.235  1.00  0.00    -0.353 OA
HETATM   16  C1  UNL     1      23.098  -1.616  55.714  1.00  0.00     0.210 C 
ENDBRANCH  11  15
BRANCH  12  17
HETATM   17  O5  UNL     1      19.678  -1.025  53.740  1.00  0.00    -0.356 OA
HETATM   18  H18 UNL     1      19.013  -0.418  54.239  1.00  0.00     0.218 HD
ENDBRANCH  12  17
BRANCH  13  19
HETATM   19  O4  UNL     1      19.452   0.125  51.290  1.00  0.00    -0.353 OA
HETATM   20  C17 UNL     1      19.028   1.011  50.307  1.00  0.00     0.210 C 
ENDBRANCH  13  19
ENDBRANCH   1   9
BRANCH   2  21
HETATM   21  C7  UNL     1      26.272   0.746  51.943  1.00  0.00     0.047 C 
HETATM   22  C8  UNL     1      27.341   0.337  52.532  1.00  0.00     0.028 C 
HETATM   23  C9  UNL     1      28.410   1.093  53.157  1.00  0.00     0.025 C 
HETATM   24  N1  UNL     1      27.674  -1.041  52.719  1.00  0.00    -0.390 N 
HETATM   25  C10 UNL     1      29.473   0.649  53.775  1.00  0.00    -0.023 C 
HETATM   26  C11 UNL     1      29.782  -0.776  53.950  1.00  0.00     0.047 C 
HETATM   27  C12 UNL     1      28.825  -1.689  53.254  1.00  0.00     0.123 C 
HETATM   28  H12 UNL     1      26.989  -1.801  52.425  1.00  0.00     0.159 HD
ENDBRANCH   2  21
TORSDOF 5
ENDMDL
MODEL 9
REMARK VINA RESULT:      -7.9      1.697      2.171
REMARK  5 active torsions:
REMARK  status: ('A' for Active; 'I' for Inactive)
REMARK    1  A    between atoms: O1_2  and  C2_3 
REMARK    2  A    between atoms: C4_5  and  C5_6 
REMARK    3  A    between atoms: C6_7  and  C7_8 
REMARK    4  A    between atoms: C16_21  and  O4_22 
REMARK    5  A    between atoms: C18_24  and  O5_25 
ROOT
HETATM    1  C5  UNL     1      23.049   0.866  53.113  1.00  0.00     0.058 A 
HETATM    2  C6  UNL     1      23.591  -0.022  53.907  1.00  0.00     0.051 A 
HETATM    3  C13 UNL     1      22.525  -0.863  54.492  1.00  0.00     0.259 A 
HETATM    4  O2  UNL     1      22.677  -1.835  55.313  1.00  0.00    -0.267 OA
HETATM    5  N2  UNL     1      21.280  -0.423  53.995  1.00  0.00    -0.289 N 
HETATM    6  C14 UNL     1      21.580   0.659  53.129  1.00  0.00     0.260 A 
HETATM    7  O3  UNL     1      20.511   1.147  52.610  1.00  0.00    -0.267 OA
HETATM    8  H13 UNL     1      20.406  -0.925  54.318  1.00  0.00     0.172 HD
ENDROOT
BRANCH   1   9
HETATM    9  C4  UNL     1      23.258   1.990  52.210  1.00  0.00    -0.014 A 
HETATM   10  C3  UNL     1      22.526   3.155  52.288  1.00  0.00     0.052 A 
HETATM   11  C2  UNL     1      22.652   4.280  51.507  1.00  0.00     0.104 A 
HETATM   12  C18 UNL     1      23.633   4.180  50.554  1.00  0.00     0.133 A 
HETATM   13  C16 UNL     1      24.439   3.081  50.361  1.00  0.00     0.104 A 
HETATM   14  C15 UNL     1      24.223   2.023  51.196  1.00  0.00     0.052 A 
BRANCH  11  15
HETATM   15  O1  UNL     1      21.889   5.421  51.630  1.00  0.00    -0.353 OA
HETATM   16  C1  UNL     1      20.838   5.767  50.755  1.00  0.00     0.210 C 
ENDBRANCH  11  15
BRANCH  12  17
HETATM   17  O5  UNL     1      23.845   5.267  49.704  1.00  0.00    -0.356 OA
HETATM   18  H18 UNL     1      23.477   5.126  48.753  1.00  0.00     0.218 HD
ENDBRANCH  12  17
BRANCH  13  19
HETATM   19  O4  UNL     1      25.406   3.071  49.370  1.00  0.00    -0.353 OA
HETATM   20  C17 UNL     1      26.716   3.510  49.531  1.00  0.00     0.210 C 
ENDBRANCH  13  19
ENDBRANCH   1   9
BRANCH   2  21
HETATM   21  C7  UNL     1      24.990  -0.117  54.132  1.00  0.00     0.047 C 
HETATM   22  C8  UNL     1      26.180   0.371  54.106  1.00  0.00     0.028 C 
HETATM   23  C9  UNL     1      26.647   1.671  53.662  1.00  0.00     0.025 C 
HETATM   24  N1  UNL     1      27.339  -0.322  54.576  1.00  0.00    -0.390 N 
HETATM   25  C10 UNL     1      27.863   2.152  53.674  1.00  0.00    -0.023 C 
HETATM   26  C11 UNL     1      29.031   1.410  54.168  1.00  0.00     0.047 C 
HETATM   27  C12 UNL     1      28.727  -0.000  54.556  1.00  0.00     0.123 C 
HETATM   28  H12 UNL     1      27.240  -1.273  55.044  1.00  0.00     0.159 HD
ENDBRANCH   2  21
TORSDOF 5
ENDMDL
