MODEL 1
REMARK VINA RESULT:      -8.4      0.000      0.000
REMARK  2 active torsions:
REMARK  status: ('A' for Active; 'I' for Inactive)
REMARK    1  A    between atoms: C3_3  and  C4_4 
REMARK       I    between atoms: C4_4  and  N1_6 
REMARK    2  A    between atoms: N1_6  and  C5_7 
ROOT
HETATM    1  C1  UNL     1      20.981  -1.383  54.430  1.00  0.00     0.112 C 
HETATM    2  C2  UNL     1      22.053  -0.581  53.790  1.00  0.00    -0.101 C 
HETATM    3  C3  UNL     1      22.926   0.092  53.279  1.00  0.00    -0.006 C 
ENDROOT
BRANCH   3   4
HETATM    4  C4  UNL     1      23.931   0.893  52.668  1.00  0.00     0.301 C 
HETATM    5  O1  UNL     1      23.801   2.122  52.385  1.00  0.00    -0.258 OA
HETATM    6  N1  UNL     1      25.210   0.416  52.299  1.00  0.00    -0.307 N 
HETATM    7  H4  UNL     1      25.217  -0.642  52.515  1.00  0.00     0.170 HD
BRANCH   6   8
HETATM    8  C5  UNL     1      26.519   0.363  51.802  1.00  0.00     0.076 C 
HETATM    9  C6  UNL     1      27.343  -0.651  51.961  1.00  0.00     0.062 C 
HETATM   10  C7  UNL     1      26.667  -1.715  52.771  1.00  0.00     0.233 C 
HETATM   11  N2  UNL     1      26.548  -1.121  54.107  1.00  0.00    -0.255 NA
HETATM   12  N5  UNL     1      27.451  -2.921  52.766  1.00  0.00    -0.373 N 
HETATM   13  C8  UNL     1      27.030   0.035  54.346  1.00  0.00     0.208 C 
HETATM   14  N3  UNL     1      27.706   1.205  53.966  1.00  0.00    -0.317 N 
HETATM   15  C9  UNL     1      27.418   2.546  53.551  1.00  0.00     0.155 C 
HETATM   16  C11 UNL     1      29.074   0.744  54.126  1.00  0.00     0.191 C 
HETATM   17  C10 UNL     1      26.792   2.633  52.227  1.00  0.00     0.253 C 
HETATM   18  N4  UNL     1      26.340   1.751  51.336  1.00  0.00    -0.289 NA
HETATM   19  F1  UNL     1      29.750   1.843  54.591  1.00  0.00    -0.186 F 
HETATM   20  C12 UNL     1      29.773  -0.385  53.958  1.00  0.00     0.063 C 
HETATM   21  C13 UNL     1      29.761  -1.807  53.560  1.00  0.00     0.021 C 
HETATM   22  C14 UNL     1      28.639  -2.313  53.184  1.00  0.00     0.085 C 
HETATM   23  H14 UNL     1      26.987  -3.803  52.491  1.00  0.00     0.161 HD
ENDBRANCH   6   8
ENDBRANCH   3   4
TORSDOF 2
ENDMDL
MODEL 2
REMARK VINA RESULT:      -7.4      3.792      6.820
REMARK  2 active torsions:
REMARK  status: ('A' for Active; 'I' for Inactive)
REMARK    1  A    between atoms: C3_3  and  C4_4 
REMARK       I    between atoms: C4_4  and  N1_6 
REMARK    2  A    between atoms: N1_6  and  C5_7 
ROOT
HETATM    1  C1  UNL     1      27.046  -2.063  52.494  1.00  0.00     0.112 C 
HETATM    2  C2  UNL     1      26.264  -0.822  52.728  1.00  0.00    -0.101 C 
HETATM    3  C3  UNL     1      25.643   0.204  52.915  1.00  0.00    -0.006 C 
ENDROOT
BRANCH   3   4
HETATM    4  C4  UNL     1      24.927   1.409  53.157  1.00  0.00     0.301 C 
HETATM    5  O1  UNL     1      25.428   2.459  53.659  1.00  0.00    -0.258 OA
HETATM    6  N1  UNL     1      23.555   1.589  52.864  1.00  0.00    -0.307 N 
HETATM    7  H4  UNL     1      23.192   0.639  52.501  1.00  0.00     0.170 HD
BRANCH   6   8
HETATM    8  C5  UNL     1      22.284   2.166  52.739  1.00  0.00     0.076 C 
HETATM    9  C6  UNL     1      21.157   1.587  53.090  1.00  0.00     0.062 C 
HETATM   10  C7  UNL     1      21.449   0.215  53.617  1.00  0.00     0.233 C 
HETATM   11  N2  UNL     1      21.897  -0.531  52.436  1.00  0.00    -0.255 NA
HETATM   12  N5  UNL     1      20.272  -0.351  54.220  1.00  0.00    -0.373 N 
HETATM   13  C8  UNL     1      21.908   0.024  51.287  1.00  0.00     0.208 C 
HETATM   14  N3  UNL     1      21.691   1.113  50.429  1.00  0.00    -0.317 N 
HETATM   15  C9  UNL     1      22.425   2.173  49.804  1.00  0.00     0.155 C 
HETATM   16  C11 UNL     1      20.270   0.939  50.188  1.00  0.00     0.191 C 
HETATM   17  C10 UNL     1      22.923   3.182  50.746  1.00  0.00     0.253 C 
HETATM   18  N4  UNL     1      22.931   3.313  52.073  1.00  0.00    -0.289 NA
HETATM   19  F1  UNL     1      20.099   1.310  48.879  1.00  0.00    -0.186 F 
HETATM   20  C12 UNL     1      19.186   0.533  50.861  1.00  0.00     0.063 C 
HETATM   21  C13 UNL     1      18.627   0.029  52.132  1.00  0.00     0.021 C 
HETATM   22  C14 UNL     1      19.441  -0.143  53.115  1.00  0.00     0.085 C 
HETATM   23  H14 UNL     1      20.345  -0.715  55.185  1.00  0.00     0.161 HD
ENDBRANCH   6   8
ENDBRANCH   3   4
TORSDOF 2
ENDMDL
MODEL 3
REMARK VINA RESULT:      -7.1      4.000      6.597
REMARK  2 active torsions:
REMARK  status: ('A' for Active; 'I' for Inactive)
REMARK    1  A    between atoms: C3_3  and  C4_4 
REMARK       I    between atoms: C4_4  and  N1_6 
REMARK    2  A    between atoms: N1_6  and  C5_7 
ROOT
HETATM    1  C1  UNL     1      27.845   5.778  48.218  1.00  0.00     0.112 C 
HETATM    2  C2  UNL     1      26.660   5.871  49.108  1.00  0.00    -0.101 C 
HETATM    3  C3  UNL     1      25.704   5.954  49.851  1.00  0.00    -0.006 C 
ENDROOT
BRANCH   3   4
HETATM    4  C4  UNL     1      24.591   6.031  50.735  1.00  0.00     0.301 C 
HETATM    5  O1  UNL     1      23.871   7.061  50.900  1.00  0.00    -0.258 OA
HETATM    6  N1  UNL     1      24.145   4.961  51.544  1.00  0.00    -0.307 N 
HETATM    7  H4  UNL     1      24.842   4.150  51.391  1.00  0.00     0.170 HD
BRANCH   6   8
HETATM    8  C5  UNL     1      23.406   4.205  52.464  1.00  0.00     0.076 C 
HETATM    9  C6  UNL     1      23.850   3.134  53.086  1.00  0.00     0.062 C 
HETATM   10  C7  UNL     1      25.251   2.846  52.636  1.00  0.00     0.233 C 
HETATM   11  N2  UNL     1      25.095   2.425  51.240  1.00  0.00    -0.255 NA
HETATM   12  N5  UNL     1      25.842   1.828  53.462  1.00  0.00    -0.373 N 
HETATM   13  C8  UNL     1      23.934   2.330  50.719  1.00  0.00     0.208 C 
HETATM   14  N3  UNL     1      22.535   2.423  50.771  1.00  0.00    -0.317 N 
HETATM   15  C9  UNL     1      21.487   3.334  50.416  1.00  0.00     0.155 C 
HETATM   16  C11 UNL     1      22.239   1.126  51.354  1.00  0.00     0.191 C 
HETATM   17  C10 UNL     1      21.470   4.557  51.225  1.00  0.00     0.253 C 
HETATM   18  N4  UNL     1      22.253   5.076  52.171  1.00  0.00    -0.289 NA
HETATM   19  F1  UNL     1      21.071   0.739  50.746  1.00  0.00    -0.186 F 
HETATM   20  C12 UNL     1      22.777   0.287  52.248  1.00  0.00     0.063 C 
HETATM   21  C13 UNL     1      23.880   0.015  53.192  1.00  0.00     0.021 C 
HETATM   22  C14 UNL     1      24.806   0.903  53.300  1.00  0.00     0.085 C 
HETATM   23  H14 UNL     1      26.758   2.025  53.899  1.00  0.00     0.161 HD
ENDBRANCH   6   8
ENDBRANCH   3   4
TORSDOF 2
ENDMDL
MODEL 4
REMARK VINA RESULT:      -7.1      8.943     11.420
REMARK  2 active torsions:
REMARK  status: ('A' for Active; 'I' for Inactive)
REMARK    1  A    between atoms: C3_3  and  C4_4 
REMARK       I    between atoms: C4_4  and  N1_6 
REMARK    2  A    between atoms: N1_6  and  C5_7 
ROOT
HETATM    1  C1  UNL     1      26.119   4.742  49.049  1.00  0.00     0.112 C 
HETATM    2  C2  UNL     1      27.524   5.041  48.677  1.00  0.00    -0.101 C 
HETATM    3  C3  UNL     1      28.670   5.307  48.377  1.00  0.00    -0.006 C 
ENDROOT
BRANCH   3   4
HETATM    4  C4  UNL     1      30.005   5.630  48.005  1.00  0.00     0.301 C 
HETATM    5  O1  UNL     1      30.929   4.781  47.824  1.00  0.00    -0.258 OA
HETATM    6  N1  UNL     1      30.472   6.946  47.786  1.00  0.00    -0.307 N 
HETATM    7  H4  UNL     1      29.649   7.606  48.018  1.00  0.00     0.170 HD
BRANCH   6   8
HETATM    8  C5  UNL     1      31.308   8.031  47.489  1.00  0.00     0.076 C 
HETATM    9  C6  UNL     1      31.387   9.136  48.198  1.00  0.00     0.062 C 
HETATM   10  C7  UNL     1      30.431   9.055  49.349  1.00  0.00     0.233 C 
HETATM   11  N2  UNL     1      29.109   9.115  48.715  1.00  0.00    -0.255 NA
HETATM   12  N5  UNL     1      30.659  10.139  50.267  1.00  0.00    -0.373 N 
HETATM   13  C8  UNL     1      29.003   9.266  47.453  1.00  0.00     0.208 C 
HETATM   14  N3  UNL     1      29.546   9.428  46.169  1.00  0.00    -0.317 N 
HETATM   15  C9  UNL     1      29.857   8.647  45.009  1.00  0.00     0.155 C 
HETATM   16  C11 UNL     1      29.769  10.863  46.192  1.00  0.00     0.191 C 
HETATM   17  C10 UNL     1      30.959   7.699  45.214  1.00  0.00     0.253 C 
HETATM   18  N4  UNL     1      31.699   7.321  46.256  1.00  0.00    -0.289 NA
HETATM   19  F1  UNL     1      29.498  11.269  44.909  1.00  0.00    -0.186 F 
HETATM   20  C12 UNL     1      30.129  11.804  47.074  1.00  0.00     0.063 C 
HETATM   21  C13 UNL     1      30.519  12.123  48.462  1.00  0.00     0.021 C 
HETATM   22  C14 UNL     1      30.578  11.151  49.304  1.00  0.00     0.085 C 
HETATM   23  H14 UNL     1      30.803   9.911  51.264  1.00  0.00     0.161 HD
ENDBRANCH   6   8
ENDBRANCH   3   4
TORSDOF 2
ENDMDL
MODEL 5
REMARK VINA RESULT:      -7.0      4.784      7.279
REMARK  2 active torsions:
REMARK  status: ('A' for Active; 'I' for Inactive)
REMARK    1  A    between atoms: C3_3  and  C4_4 
REMARK       I    between atoms: C4_4  and  N1_6 
REMARK    2  A    between atoms: N1_6  and  C5_7 
ROOT
HETATM    1  C1  UNL     1      22.228  -1.276  54.868  1.00  0.00     0.112 C 
HETATM    2  C2  UNL     1      22.912  -0.432  53.856  1.00  0.00    -0.101 C 
HETATM    3  C3  UNL     1      23.452   0.270  53.026  1.00  0.00    -0.006 C 
ENDROOT
BRANCH   3   4
HETATM    4  C4  UNL     1      24.073   1.080  52.034  1.00  0.00     0.301 C 
HETATM    5  O1  UNL     1      25.324   1.157  51.845  1.00  0.00    -0.258 OA
HETATM    6  N1  UNL     1      23.369   1.905  51.128  1.00  0.00    -0.307 N 
HETATM    7  H4  UNL     1      22.324   1.830  51.393  1.00  0.00     0.170 HD
BRANCH   6   8
HETATM    8  C5  UNL     1      23.081   2.810  50.097  1.00  0.00     0.076 C 
HETATM    9  C6  UNL     1      23.365   4.095  50.123  1.00  0.00     0.062 C 
HETATM   10  C7  UNL     1      24.015   4.431  51.431  1.00  0.00     0.233 C 
HETATM   11  N2  UNL     1      22.939   4.269  52.414  1.00  0.00    -0.255 NA
HETATM   12  N5  UNL     1      24.543   5.769  51.397  1.00  0.00    -0.373 N 
HETATM   13  C8  UNL     1      21.760   3.963  52.036  1.00  0.00     0.208 C 
HETATM   14  N3  UNL     1      20.808   3.657  51.052  1.00  0.00    -0.317 N 
HETATM   15  C9  UNL     1      20.180   2.514  50.458  1.00  0.00     0.155 C 
HETATM   16  C11 UNL     1      20.446   5.005  50.652  1.00  0.00     0.191 C 
HETATM   17  C10 UNL     1      21.091   1.695  49.649  1.00  0.00     0.253 C 
HETATM   18  N4  UNL     1      22.399   1.707  49.394  1.00  0.00    -0.289 NA
HETATM   19  F1  UNL     1      19.103   4.932  50.383  1.00  0.00    -0.186 F 
HETATM   20  C12 UNL     1      21.041   6.196  50.504  1.00  0.00     0.063 C 
HETATM   21  C13 UNL     1      22.286   6.985  50.598  1.00  0.00     0.021 C 
HETATM   22  C14 UNL     1      23.352   6.374  50.984  1.00  0.00     0.085 C 
HETATM   23  H14 UNL     1      25.534   5.909  51.655  1.00  0.00     0.161 HD
ENDBRANCH   6   8
ENDBRANCH   3   4
TORSDOF 2
ENDMDL
MODEL 6
REMARK VINA RESULT:      -7.0      4.398      6.391
REMARK  2 active torsions:
REMARK  status: ('A' for Active; 'I' for Inactive)
REMARK    1  A    between atoms: C3_3  and  C4_4 
REMARK       I    between atoms: C4_4  and  N1_6 
REMARK    2  A    between atoms: N1_6  and  C5_7 
ROOT
HETATM    1  C1  UNL     1      21.919   4.149  45.868  1.00  0.00     0.112 C 
HETATM    2  C2  UNL     1      22.198   4.558  47.268  1.00  0.00    -0.101 C 
HETATM    3  C3  UNL     1      22.412   4.878  48.419  1.00  0.00    -0.006 C 
ENDROOT
BRANCH   3   4
HETATM    4  C4  UNL     1      22.640   5.266  49.769  1.00  0.00     0.301 C 
HETATM    5  O1  UNL     1      22.905   6.447  50.146  1.00  0.00    -0.258 OA
HETATM    6  N1  UNL     1      22.599   4.377  50.868  1.00  0.00    -0.307 N 
HETATM    7  H4  UNL     1      22.431   3.392  50.459  1.00  0.00     0.170 HD
BRANCH   6   8
HETATM    8  C5  UNL     1      22.654   3.869  52.173  1.00  0.00     0.076 C 
HETATM    9  C6  UNL     1      23.693   3.257  52.699  1.00  0.00     0.062 C 
HETATM   10  C7  UNL     1      24.786   3.173  51.678  1.00  0.00     0.233 C 
HETATM   11  N2  UNL     1      24.268   2.231  50.680  1.00  0.00    -0.255 NA
HETATM   12  N5  UNL     1      26.008   2.721  52.288  1.00  0.00    -0.373 N 
HETATM   13  C8  UNL     1      23.138   1.665  50.852  1.00  0.00     0.208 C 
HETATM   14  N3  UNL     1      21.964   1.425  51.582  1.00  0.00    -0.317 N 
HETATM   15  C9  UNL     1      20.595   1.846  51.618  1.00  0.00     0.155 C 
HETATM   16  C11 UNL     1      22.464   0.415  52.498  1.00  0.00     0.191 C 
HETATM   17  C10 UNL     1      20.419   3.240  52.040  1.00  0.00     0.253 C 
HETATM   18  N4  UNL     1      21.238   4.253  52.323  1.00  0.00    -0.289 NA
HETATM   19  F1  UNL     1      21.410  -0.447  52.663  1.00  0.00    -0.186 F 
HETATM   20  C12 UNL     1      23.598   0.135  53.154  1.00  0.00     0.063 C 
HETATM   21  C13 UNL     1      24.994   0.520  53.444  1.00  0.00     0.021 C 
HETATM   22  C14 UNL     1      25.452   1.580  52.876  1.00  0.00     0.085 C 
HETATM   23  H14 UNL     1      26.861   3.287  52.149  1.00  0.00     0.161 HD
ENDBRANCH   6   8
ENDBRANCH   3   4
TORSDOF 2
ENDMDL
MODEL 7
REMARK VINA RESULT:      -6.9     10.415     12.395
REMARK  2 active torsions:
REMARK  status: ('A' for Active; 'I' for Inactive)
REMARK    1  A    between atoms: C3_3  and  C4_4 
REMARK       I    between atoms: C4_4  and  N1_6 
REMARK    2  A    between atoms: N1_6  and  C5_7 
ROOT
HETATM    1  C1  UNL     1      33.371   4.729  42.995  1.00  0.00     0.112 C 
HETATM    2  C2  UNL     1      33.222   4.913  44.461  1.00  0.00    -0.101 C 
HETATM    3  C3  UNL     1      33.092   5.083  45.656  1.00  0.00    -0.006 C 
ENDROOT
BRANCH   3   4
HETATM    4  C4  UNL     1      32.960   5.297  47.057  1.00  0.00     0.301 C 
HETATM    5  O1  UNL     1      32.768   4.382  47.912  1.00  0.00    -0.258 OA
HETATM    6  N1  UNL     1      33.028   6.567  47.675  1.00  0.00    -0.307 N 
HETATM    7  H4  UNL     1      33.130   7.290  46.880  1.00  0.00     0.170 HD
BRANCH   6   8
HETATM    8  C5  UNL     1      33.029   7.577  48.646  1.00  0.00     0.076 C 
HETATM    9  C6  UNL     1      31.951   8.157  49.129  1.00  0.00     0.062 C 
HETATM   10  C7  UNL     1      30.739   7.584  48.460  1.00  0.00     0.233 C 
HETATM   11  N2  UNL     1      30.834   8.069  47.079  1.00  0.00    -0.255 NA
HETATM   12  N5  UNL     1      29.543   8.027  49.125  1.00  0.00    -0.373 N 
HETATM   13  C8  UNL     1      31.782   8.848  46.731  1.00  0.00     0.208 C 
HETATM   14  N3  UNL     1      32.941   9.594  46.996  1.00  0.00    -0.317 N 
HETATM   15  C9  UNL     1      34.363   9.487  46.856  1.00  0.00     0.155 C 
HETATM   16  C11 UNL     1      32.326  10.793  47.536  1.00  0.00     0.191 C 
HETATM   17  C10 UNL     1      34.968   8.478  47.733  1.00  0.00     0.253 C 
HETATM   18  N4  UNL     1      34.502   7.562  48.581  1.00  0.00    -0.289 NA
HETATM   19  F1  UNL     1      33.122  11.816  47.085  1.00  0.00    -0.186 F 
HETATM   20  C12 UNL     1      31.267  11.121  48.286  1.00  0.00     0.063 C 
HETATM   21  C13 UNL     1      30.083  10.656  49.038  1.00  0.00     0.021 C 
HETATM   22  C14 UNL     1      29.851   9.391  49.061  1.00  0.00     0.085 C 
HETATM   23  H14 UNL     1      28.863   7.313  49.432  1.00  0.00     0.161 HD
ENDBRANCH   6   8
ENDBRANCH   3   4
TORSDOF 2
ENDMDL
MODEL 8
REMARK VINA RESULT:      -6.6      8.900     11.151
REMARK  2 active torsions:
REMARK  status: ('A' for Active; 'I' for Inactive)
REMARK    1  A    between atoms: C3_3  and  C4_4 
REMARK       I    between atoms: C4_4  and  N1_6 
REMARK    2  A    between atoms: N1_6  and  C5_7 
ROOT
HETATM    1  C1  UNL     1      26.519  12.673  44.557  1.00  0.00     0.112 C 
HETATM    2  C2  UNL     1      26.996  12.324  45.918  1.00  0.00    -0.101 C 
HETATM    3  C3  UNL     1      27.405  12.050  47.028  1.00  0.00    -0.006 C 
ENDROOT
BRANCH   3   4
HETATM    4  C4  UNL     1      27.900  11.714  48.320  1.00  0.00     0.301 C 
HETATM    5  O1  UNL     1      28.073  12.541  49.264  1.00  0.00    -0.258 OA
HETATM    6  N1  UNL     1      28.263  10.406  48.714  1.00  0.00    -0.307 N 
HETATM    7  H4  UNL     1      28.145   9.779  47.843  1.00  0.00     0.170 HD
BRANCH   6   8
HETATM    8  C5  UNL     1      28.712   9.322  49.481  1.00  0.00     0.076 C 
HETATM    9  C6  UNL     1      29.743   8.562  49.178  1.00  0.00     0.062 C 
HETATM   10  C7  UNL     1      30.335   9.026  47.882  1.00  0.00     0.233 C 
HETATM   11  N2  UNL     1      29.316   8.683  46.884  1.00  0.00    -0.255 NA
HETATM   12  N5  UNL     1      31.592   8.369  47.642  1.00  0.00    -0.373 N 
HETATM   13  C8  UNL     1      28.252   8.072  47.231  1.00  0.00     0.208 C 
HETATM   14  N3  UNL     1      27.418   7.467  48.184  1.00  0.00    -0.317 N 
HETATM   15  C9  UNL     1      26.266   7.774  48.979  1.00  0.00     0.155 C 
HETATM   16  C11 UNL     1      28.034   6.152  48.230  1.00  0.00     0.191 C 
HETATM   17  C10 UNL     1      26.519   8.773  50.023  1.00  0.00     0.253 C 
HETATM   18  N4  UNL     1      27.553   9.540  50.367  1.00  0.00    -0.289 NA
HETATM   19  F1  UNL     1      26.981   5.290  48.405  1.00  0.00    -0.186 F 
HETATM   20  C12 UNL     1      29.259   5.621  48.141  1.00  0.00     0.063 C 
HETATM   21  C13 UNL     1      30.706   5.854  47.962  1.00  0.00     0.021 C 
HETATM   22  C14 UNL     1      31.101   7.070  47.811  1.00  0.00     0.085 C 
HETATM   23  H14 UNL     1      32.417   8.956  47.436  1.00  0.00     0.161 HD
ENDBRANCH   6   8
ENDBRANCH   3   4
TORSDOF 2
ENDMDL
MODEL 9
REMARK VINA RESULT:      -6.4      4.763      6.474
REMARK  2 active torsions:
REMARK  status: ('A' for Active; 'I' for Inactive)
REMARK    1  A    between atoms: C3_3  and  C4_4 
REMARK       I    between atoms: C4_4  and  N1_6 
REMARK    2  A    between atoms: N1_6  and  C5_7 
ROOT
HETATM    1  C1  UNL     1      15.826   4.111  52.166  1.00  0.00     0.112 C 
HETATM    2  C2  UNL     1      16.638   3.018  51.573  1.00  0.00    -0.101 C 
HETATM    3  C3  UNL     1      17.317   2.129  51.103  1.00  0.00    -0.006 C 
ENDROOT
BRANCH   3   4
HETATM    4  C4  UNL     1      18.129   1.104  50.541  1.00  0.00     0.301 C 
HETATM    5  O1  UNL     1      17.685   0.040  50.013  1.00  0.00    -0.258 OA
HETATM    6  N1  UNL     1      19.542   1.143  50.499  1.00  0.00    -0.307 N 
HETATM    7  H4  UNL     1      19.839   2.042  51.018  1.00  0.00     0.170 HD
BRANCH   6   8
HETATM    8  C5  UNL     1      20.877   0.793  50.260  1.00  0.00     0.076 C 
HETATM    9  C6  UNL     1      21.677   0.232  51.142  1.00  0.00     0.062 C 
HETATM   10  C7  UNL     1      20.940   0.053  52.434  1.00  0.00     0.233 C 
HETATM   11  N2  UNL     1      20.749   1.422  52.926  1.00  0.00    -0.255 NA
HETATM   12  N5  UNL     1      21.706  -0.762  53.339  1.00  0.00    -0.373 N 
HETATM   13  C8  UNL     1      21.231   2.412  52.283  1.00  0.00     0.208 C 
HETATM   14  N3  UNL     1      21.944   2.973  51.212  1.00  0.00    -0.317 N 
HETATM   15  C9  UNL     1      21.700   3.596  49.945  1.00  0.00     0.155 C 
HETATM   16  C11 UNL     1      23.294   2.815  51.725  1.00  0.00     0.191 C 
HETATM   17  C10 UNL     1      21.154   2.683  48.934  1.00  0.00     0.253 C 
HETATM   18  N4  UNL     1      20.745   1.415  48.929  1.00  0.00    -0.289 NA
HETATM   19  F1  UNL     1      23.956   3.935  51.290  1.00  0.00    -0.186 F 
HETATM   20  C12 UNL     1      23.986   1.934  52.457  1.00  0.00     0.063 C 
HETATM   21  C13 UNL     1      23.980   0.660  53.204  1.00  0.00     0.021 C 
HETATM   22  C14 UNL     1      22.875   0.001  53.251  1.00  0.00     0.085 C 
HETATM   23  H14 UNL     1      21.248  -1.587  53.759  1.00  0.00     0.161 HD
ENDBRANCH   6   8
ENDBRANCH   3   4
TORSDOF 2
ENDMDL
