MODEL 1
REMARK VINA RESULT:      -8.4      0.000      0.000
REMARK  6 active torsions:
REMARK  status: ('A' for Active; 'I' for Inactive)
REMARK    1  A    between atoms: C1_2  and  C2_3 
REMARK       I    between atoms: C1_2  and  N2_12 
REMARK    2  A    between atoms: C3_4  and  C4_5 
REMARK    3  A    between atoms: C4_5  and  N1_6 
REMARK    4  A    between atoms: N2_12  and  C9_13 
REMARK    5  A    between atoms: C11_16  and  N3_17 
REMARK    6  A    between atoms: N3_17  and  C12_18 
ROOT
HETATM    1  C9  UNL     1      23.731   3.613  49.796  1.00  0.00     0.265 A 
HETATM    2  S1  UNL     1      22.713   2.735  48.872  1.00  0.00     0.082 SA
HETATM    3  C10 UNL     1      21.360   2.274  49.635  1.00  0.00     0.092 C 
HETATM    4  C11 UNL     1      21.133   3.006  50.684  1.00  0.00     0.149 C 
HETATM    5  N4  UNL     1      21.338   4.304  50.912  1.00  0.00    -0.223 NA
HETATM    6  C18 UNL     1      22.038   5.113  51.535  1.00  0.00     0.234 C 
HETATM    7  N5  UNL     1      21.380   6.299  51.034  1.00  0.00    -0.256 NA
HETATM    8  C19 UNL     1      21.550   6.667  49.806  1.00  0.00     0.130 C 
HETATM    9  C20 UNL     1      22.450   5.544  49.495  1.00  0.00     0.680 C 
HETATM   10  N6  UNL     1      23.233   4.649  49.045  1.00  0.00    -0.008 NA
ENDROOT
BRANCH   1  11
HETATM   11  N2  UNL     1      24.597   3.169  50.821  1.00  0.00    -0.289 N 
HETATM   12  C1  UNL     1      25.972   3.083  50.469  1.00  0.00     0.302 C 
HETATM   13  O1  UNL     1      26.363   3.388  49.312  1.00  0.00    -0.258 OA
HETATM   14  H11 UNL     1      24.113   2.958  51.718  1.00  0.00     0.171 HD
BRANCH  12  15
HETATM   15  C2  UNL     1      26.835   2.630  51.527  1.00  0.00    -0.004 C 
HETATM   16  C3  UNL     1      27.571   2.243  52.402  1.00  0.00    -0.066 C 
BRANCH  16  17
HETATM   17  C4  UNL     1      28.492   1.773  53.461  1.00  0.00     0.366 C 
BRANCH  17  18
HETATM   18  N1  UNL     1      28.325   0.352  53.540  1.00  0.00     0.103 N 
HETATM   19  C5  UNL     1      27.963   0.020  54.906  1.00  0.00     0.299 C 
HETATM   20  C6  UNL     1      26.448   0.109  54.985  1.00  0.00     0.198 C 
HETATM   21  O2  UNL     1      25.891  -1.011  54.372  1.00  0.00    -0.388 OA
HETATM   22  C7  UNL     1      26.510  -1.251  53.150  1.00  0.00     0.198 C 
HETATM   23  C8  UNL     1      27.267  -0.036  52.648  1.00  0.00     0.299 C 
ENDBRANCH  17  18
ENDBRANCH  16  17
ENDBRANCH  12  15
ENDBRANCH   1  11
BRANCH   4  24
HETATM   24  N3  UNL     1      20.600   2.787  51.991  1.00  0.00    -0.340 N 
HETATM   25  H12 UNL     1      20.016   3.449  52.585  1.00  0.00     0.167 HD
BRANCH  24  26
HETATM   26  C12 UNL     1      20.873   1.533  52.599  1.00  0.00     0.035 A 
HETATM   27  C13 UNL     1      22.108   1.126  53.013  1.00  0.00     0.032 A 
HETATM   28  C14 UNL     1      22.402  -0.077  53.603  1.00  0.00     0.046 A 
HETATM   29  C15 UNL     1      21.390  -0.973  53.810  1.00  0.00     0.138 A 
HETATM   30  F1  UNL     1      21.595  -2.174  54.381  1.00  0.00    -0.204 F 
HETATM   31  C16 UNL     1      20.109  -0.640  53.420  1.00  0.00     0.074 A 
HETATM   32 CL1  UNL     1      18.766  -1.768  53.666  1.00  0.00    -0.081 Cl
HETATM   33  C17 UNL     1      19.883   0.586  52.832  1.00  0.00     0.056 A 
ENDBRANCH  24  26
ENDBRANCH   4  24
TORSDOF 6
ENDMDL
MODEL 2
REMARK VINA RESULT:      -8.2      7.547      9.743
REMARK  6 active torsions:
REMARK  status: ('A' for Active; 'I' for Inactive)
REMARK    1  A    between atoms: C1_2  and  C2_3 
REMARK       I    between atoms: C1_2  and  N2_12 
REMARK    2  A    between atoms: C3_4  and  C4_5 
REMARK    3  A    between atoms: C4_5  and  N1_6 
REMARK    4  A    between atoms: N2_12  and  C9_13 
REMARK    5  A    between atoms: C11_16  and  N3_17 
REMARK    6  A    between atoms: N3_17  and  C12_18 
ROOT
HETATM    1  C9  UNL     1      26.094   7.104  49.289  1.00  0.00     0.265 A 
HETATM    2  S1  UNL     1      25.970   8.575  49.983  1.00  0.00     0.082 SA
HETATM    3  C10 UNL     1      27.390   9.327  50.194  1.00  0.00     0.092 C 
HETATM    4  C11 UNL     1      28.310   8.829  49.426  1.00  0.00     0.149 C 
HETATM    5  N4  UNL     1      28.255   8.352  48.182  1.00  0.00    -0.223 NA
HETATM    6  C18 UNL     1      28.308   7.318  47.503  1.00  0.00     0.234 C 
HETATM    7  N5  UNL     1      28.127   7.969  46.224  1.00  0.00    -0.256 NA
HETATM    8  C19 UNL     1      26.975   8.458  45.901  1.00  0.00     0.130 C 
HETATM    9  C20 UNL     1      26.341   8.050  47.166  1.00  0.00     0.680 C 
HETATM   10  N6  UNL     1      25.634   7.783  48.187  1.00  0.00    -0.008 NA
ENDROOT
BRANCH   1  11
HETATM   11  N2  UNL     1      26.521   5.888  49.868  1.00  0.00    -0.289 N 
HETATM   12  C1  UNL     1      25.547   4.853  49.912  1.00  0.00     0.302 C 
HETATM   13  O1  UNL     1      24.388   5.037  49.458  1.00  0.00    -0.258 OA
HETATM   14  H11 UNL     1      27.510   5.903  50.195  1.00  0.00     0.171 HD
BRANCH  12  15
HETATM   15  C2  UNL     1      26.004   3.625  50.506  1.00  0.00    -0.004 C 
HETATM   16  C3  UNL     1      26.374   2.585  50.993  1.00  0.00    -0.066 C 
BRANCH  16  17
HETATM   17  C4  UNL     1      26.824   1.298  51.570  1.00  0.00     0.366 C 
BRANCH  17  18
HETATM   18  N1  UNL     1      27.284   1.589  52.897  1.00  0.00     0.103 N 
HETATM   19  C5  UNL     1      26.148   1.491  53.795  1.00  0.00     0.299 C 
HETATM   20  C6  UNL     1      26.072   0.040  54.239  1.00  0.00     0.198 C 
HETATM   21  O2  UNL     1      27.071  -0.203  55.181  1.00  0.00    -0.388 OA
HETATM   22  C7  UNL     1      28.281   0.330  54.750  1.00  0.00     0.198 C 
HETATM   23  C8  UNL     1      28.277   0.617  53.261  1.00  0.00     0.299 C 
ENDBRANCH  17  18
ENDBRANCH  16  17
ENDBRANCH  12  15
ENDBRANCH   1  11
BRANCH   4  24
HETATM   24  N3  UNL     1      29.711   8.573  49.538  1.00  0.00    -0.340 N 
HETATM   25  H12 UNL     1      30.200   7.794  50.075  1.00  0.00     0.167 HD
BRANCH  24  26
HETATM   26  C12 UNL     1      30.587   9.459  48.856  1.00  0.00     0.035 A 
HETATM   27  C13 UNL     1      30.509  10.820  48.912  1.00  0.00     0.032 A 
HETATM   28  C14 UNL     1      31.339  11.700  48.267  1.00  0.00     0.046 A 
HETATM   29  C15 UNL     1      32.346  11.203  47.488  1.00  0.00     0.138 A 
HETATM   30  F1  UNL     1      33.202  11.999  46.821  1.00  0.00    -0.204 F 
HETATM   31  C16 UNL     1      32.496   9.836  47.375  1.00  0.00     0.074 A 
HETATM   32 CL1  UNL     1      33.785   9.146  46.377  1.00  0.00    -0.081 Cl
HETATM   33  C17 UNL     1      31.626   9.007  48.051  1.00  0.00     0.056 A 
ENDBRANCH  24  26
ENDBRANCH   4  24
TORSDOF 6
ENDMDL
MODEL 3
REMARK VINA RESULT:      -8.0      3.653      5.755
REMARK  6 active torsions:
REMARK  status: ('A' for Active; 'I' for Inactive)
REMARK    1  A    between atoms: C1_2  and  C2_3 
REMARK       I    between atoms: C1_2  and  N2_12 
REMARK    2  A    between atoms: C3_4  and  C4_5 
REMARK    3  A    between atoms: C4_5  and  N1_6 
REMARK    4  A    between atoms: N2_12  and  C9_13 
REMARK    5  A    between atoms: C11_16  and  N3_17 
REMARK    6  A    between atoms: N3_17  and  C12_18 
ROOT
HETATM    1  C9  UNL     1      21.502   3.216  49.270  1.00  0.00     0.265 A 
HETATM    2  S1  UNL     1      21.283   1.648  48.879  1.00  0.00     0.082 SA
HETATM    3  C10 UNL     1      21.497   0.622  50.116  1.00  0.00     0.092 C 
HETATM    4  C11 UNL     1      21.401   1.230  51.259  1.00  0.00     0.149 C 
HETATM    5  N4  UNL     1      20.618   2.233  51.659  1.00  0.00    -0.223 NA
HETATM    6  C18 UNL     1      20.608   3.432  51.971  1.00  0.00     0.234 C 
HETATM    7  N5  UNL     1      19.190   3.503  52.245  1.00  0.00    -0.256 NA
HETATM    8  C19 UNL     1      18.338   3.458  51.273  1.00  0.00     0.130 C 
HETATM    9  C20 UNL     1      19.379   3.343  50.239  1.00  0.00     0.680 C 
HETATM   10  N6  UNL     1      20.130   3.235  49.219  1.00  0.00    -0.008 NA
ENDROOT
BRANCH   1  11
HETATM   11  N2  UNL     1      22.714   3.910  49.487  1.00  0.00    -0.289 N 
HETATM   12  C1  UNL     1      23.160   4.718  48.406  1.00  0.00     0.302 C 
HETATM   13  O1  UNL     1      22.499   4.791  47.338  1.00  0.00    -0.258 OA
HETATM   14  H11 UNL     1      23.134   3.740  50.425  1.00  0.00     0.171 HD
BRANCH  12  15
HETATM   15  C2  UNL     1      24.395   5.416  48.648  1.00  0.00    -0.004 C 
HETATM   16  C3  UNL     1      25.424   6.016  48.842  1.00  0.00    -0.066 C 
BRANCH  16  17
HETATM   17  C4  UNL     1      26.674   6.772  49.080  1.00  0.00     0.366 C 
BRANCH  17  18
HETATM   18  N1  UNL     1      27.571   6.413  48.020  1.00  0.00     0.103 N 
HETATM   19  C5  UNL     1      28.277   7.613  47.608  1.00  0.00     0.299 C 
HETATM   20  C6  UNL     1      29.510   7.714  48.492  1.00  0.00     0.198 C 
HETATM   21  O2  UNL     1      30.458   6.787  48.062  1.00  0.00    -0.388 OA
HETATM   22  C7  UNL     1      29.860   5.551  47.842  1.00  0.00     0.198 C 
HETATM   23  C8  UNL     1      28.507   5.445  48.521  1.00  0.00     0.299 C 
ENDBRANCH  17  18
ENDBRANCH  16  17
ENDBRANCH  12  15
ENDBRANCH   1  11
BRANCH   4  24
HETATM   24  N3  UNL     1      22.039   1.125  52.533  1.00  0.00    -0.340 N 
HETATM   25  H12 UNL     1      21.598   1.187  53.499  1.00  0.00     0.167 HD
BRANCH  24  26
HETATM   26  C12 UNL     1      23.443   0.913  52.538  1.00  0.00     0.035 A 
HETATM   27  C13 UNL     1      24.067  -0.128  53.162  1.00  0.00     0.032 A 
HETATM   28  C14 UNL     1      25.418  -0.359  53.184  1.00  0.00     0.046 A 
HETATM   29  C15 UNL     1      26.245   0.513  52.532  1.00  0.00     0.138 A 
HETATM   30  F1  UNL     1      27.582   0.358  52.507  1.00  0.00    -0.204 F 
HETATM   31  C16 UNL     1      25.696   1.595  51.875  1.00  0.00     0.074 A 
HETATM   32 CL1  UNL     1      26.727   2.752  51.017  1.00  0.00    -0.081 Cl
HETATM   33  C17 UNL     1      24.329   1.768  51.892  1.00  0.00     0.056 A 
ENDBRANCH  24  26
ENDBRANCH   4  24
TORSDOF 6
ENDMDL
MODEL 4
REMARK VINA RESULT:      -7.9      1.471      1.880
REMARK  6 active torsions:
REMARK  status: ('A' for Active; 'I' for Inactive)
REMARK    1  A    between atoms: C1_2  and  C2_3 
REMARK       I    between atoms: C1_2  and  N2_12 
REMARK    2  A    between atoms: C3_4  and  C4_5 
REMARK    3  A    between atoms: C4_5  and  N1_6 
REMARK    4  A    between atoms: N2_12  and  C9_13 
REMARK    5  A    between atoms: C11_16  and  N3_17 
REMARK    6  A    between atoms: N3_17  and  C12_18 
ROOT
HETATM    1  C9  UNL     1      22.382   3.378  48.771  1.00  0.00     0.265 A 
HETATM    2  S1  UNL     1      21.085   2.655  48.096  1.00  0.00     0.082 SA
HETATM    3  C10 UNL     1      19.840   2.448  49.114  1.00  0.00     0.092 C 
HETATM    4  C11 UNL     1      19.930   3.238  50.140  1.00  0.00     0.149 C 
HETATM    5  N4  UNL     1      20.375   4.490  50.251  1.00  0.00    -0.223 NA
HETATM    6  C18 UNL     1      21.297   5.190  50.690  1.00  0.00     0.234 C 
HETATM    7  N5  UNL     1      20.754   6.453  50.244  1.00  0.00    -0.256 NA
HETATM    8  C19 UNL     1      20.750   6.751  48.986  1.00  0.00     0.130 C 
HETATM    9  C20 UNL     1      21.388   5.485  48.587  1.00  0.00     0.680 C 
HETATM   10  N6  UNL     1      21.923   4.460  48.060  1.00  0.00    -0.008 NA
ENDROOT
BRANCH   1  11
HETATM   11  N2  UNL     1      23.341   2.828  49.651  1.00  0.00    -0.289 N 
HETATM   12  C1  UNL     1      24.588   3.508  49.702  1.00  0.00     0.302 C 
HETATM   13  O1  UNL     1      24.796   4.531  48.998  1.00  0.00    -0.258 OA
HETATM   14  H11 UNL     1      23.009   1.981  50.158  1.00  0.00     0.171 HD
BRANCH  12  15
HETATM   15  C2  UNL     1      25.550   2.931  50.604  1.00  0.00    -0.004 C 
HETATM   16  C3  UNL     1      26.354   2.462  51.371  1.00  0.00    -0.066 C 
BRANCH  16  17
HETATM   17  C4  UNL     1      27.329   1.897  52.331  1.00  0.00     0.366 C 
BRANCH  17  18
HETATM   18  N1  UNL     1      26.864   0.578  52.649  1.00  0.00     0.103 N 
HETATM   19  C5  UNL     1      27.914  -0.099  53.387  1.00  0.00     0.299 C 
HETATM   20  C6  UNL     1      27.693   0.231  54.854  1.00  0.00     0.198 C 
HETATM   21  O2  UNL     1      26.620  -0.517  55.336  1.00  0.00    -0.388 OA
HETATM   22  C7  UNL     1      25.555  -0.463  54.443  1.00  0.00     0.198 C 
HETATM   23  C8  UNL     1      25.689   0.692  53.468  1.00  0.00     0.299 C 
ENDBRANCH  17  18
ENDBRANCH  16  17
ENDBRANCH  12  15
ENDBRANCH   1  11
BRANCH   4  24
HETATM   24  N3  UNL     1      19.620   3.150  51.532  1.00  0.00    -0.340 N 
HETATM   25  H12 UNL     1      19.412   3.940  52.214  1.00  0.00     0.167 HD
BRANCH  24  26
HETATM   26  C12 UNL     1      19.580   1.851  52.105  1.00  0.00     0.035 A 
HETATM   27  C13 UNL     1      18.609   0.925  51.858  1.00  0.00     0.032 A 
HETATM   28  C14 UNL     1      18.544  -0.335  52.395  1.00  0.00     0.046 A 
HETATM   29  C15 UNL     1      19.525  -0.732  53.261  1.00  0.00     0.138 A 
HETATM   30  F1  UNL     1      19.534  -1.951  53.832  1.00  0.00    -0.204 F 
HETATM   31  C16 UNL     1      20.546   0.144  53.566  1.00  0.00     0.074 A 
HETATM   32 CL1  UNL     1      21.839  -0.325  54.682  1.00  0.00    -0.081 Cl
HETATM   33  C17 UNL     1      20.551   1.397  52.991  1.00  0.00     0.056 A 
ENDBRANCH  24  26
ENDBRANCH   4  24
TORSDOF 6
ENDMDL
MODEL 5
REMARK VINA RESULT:      -7.7      4.111      7.337
REMARK  6 active torsions:
REMARK  status: ('A' for Active; 'I' for Inactive)
REMARK    1  A    between atoms: C1_2  and  C2_3 
REMARK       I    between atoms: C1_2  and  N2_12 
REMARK    2  A    between atoms: C3_4  and  C4_5 
REMARK    3  A    between atoms: C4_5  and  N1_6 
REMARK    4  A    between atoms: N2_12  and  C9_13 
REMARK    5  A    between atoms: C11_16  and  N3_17 
REMARK    6  A    between atoms: N3_17  and  C12_18 
ROOT
HETATM    1  C9  UNL     1      22.204   4.555  52.031  1.00  0.00     0.265 A 
HETATM    2  S1  UNL     1      23.410   4.654  53.124  1.00  0.00     0.082 SA
HETATM    3  C10 UNL     1      24.320   3.317  53.227  1.00  0.00     0.092 C 
HETATM    4  C11 UNL     1      24.196   2.575  52.168  1.00  0.00     0.149 C 
HETATM    5  N4  UNL     1      24.043   2.896  50.883  1.00  0.00    -0.223 NA
HETATM    6  C18 UNL     1      23.237   2.907  49.943  1.00  0.00     0.234 C 
HETATM    7  N5  UNL     1      24.144   3.478  48.973  1.00  0.00    -0.256 NA
HETATM    8  C19 UNL     1      24.491   4.721  49.061  1.00  0.00     0.130 C 
HETATM    9  C20 UNL     1      23.678   4.962  50.263  1.00  0.00     0.680 C 
HETATM   10  N6  UNL     1      23.046   5.352  51.295  1.00  0.00    -0.008 NA
ENDROOT
BRANCH   1  11
HETATM   11  N2  UNL     1      20.974   3.865  52.133  1.00  0.00    -0.289 N 
HETATM   12  C1  UNL     1      19.951   4.298  51.246  1.00  0.00     0.302 C 
HETATM   13  O1  UNL     1      20.156   5.237  50.433  1.00  0.00    -0.258 OA
HETATM   14  H11 UNL     1      20.972   3.116  52.856  1.00  0.00     0.171 HD
BRANCH  12  15
HETATM   15  C2  UNL     1      18.709   3.582  51.368  1.00  0.00    -0.004 C 
HETATM   16  C3  UNL     1      17.669   2.983  51.489  1.00  0.00    -0.066 C 
BRANCH  16  17
HETATM   17  C4  UNL     1      16.389   2.259  51.657  1.00  0.00     0.366 C 
BRANCH  17  18
HETATM   18  N1  UNL     1      15.361   3.259  51.691  1.00  0.00     0.103 N 
HETATM   19  C5  UNL     1      14.086   2.595  51.493  1.00  0.00     0.299 C 
HETATM   20  C6  UNL     1      13.597   2.178  52.870  1.00  0.00     0.198 C 
HETATM   21  O2  UNL     1      13.116   3.300  53.544  1.00  0.00    -0.388 OA
HETATM   22  C7  UNL     1      14.007   4.360  53.414  1.00  0.00     0.198 C 
HETATM   23  C8  UNL     1      15.384   3.895  52.979  1.00  0.00     0.299 C 
ENDBRANCH  17  18
ENDBRANCH  16  17
ENDBRANCH  12  15
ENDBRANCH   1  11
BRANCH   4  24
HETATM   24  N3  UNL     1      24.167   1.174  51.896  1.00  0.00    -0.340 N 
HETATM   25  H12 UNL     1      24.770   0.620  51.216  1.00  0.00     0.167 HD
BRANCH  24  26
HETATM   26  C12 UNL     1      23.217   0.396  52.610  1.00  0.00     0.035 A 
HETATM   27  C13 UNL     1      23.516  -0.411  53.670  1.00  0.00     0.032 A 
HETATM   28  C14 UNL     1      22.622  -1.172  54.378  1.00  0.00     0.046 A 
HETATM   29  C15 UNL     1      21.304  -1.145  54.017  1.00  0.00     0.138 A 
HETATM   30  F1  UNL     1      20.364  -1.863  54.660  1.00  0.00    -0.204 F 
HETATM   31  C16 UNL     1      20.915  -0.355  52.954  1.00  0.00     0.074 A 
HETATM   32 CL1  UNL     1      19.219  -0.288  52.449  1.00  0.00    -0.081 Cl
HETATM   33  C17 UNL     1      21.866   0.386  52.285  1.00  0.00     0.056 A 
ENDBRANCH  24  26
ENDBRANCH   4  24
TORSDOF 6
ENDMDL
MODEL 6
REMARK VINA RESULT:      -7.6      7.967     10.290
REMARK  6 active torsions:
REMARK  status: ('A' for Active; 'I' for Inactive)
REMARK    1  A    between atoms: C1_2  and  C2_3 
REMARK       I    between atoms: C1_2  and  N2_12 
REMARK    2  A    between atoms: C3_4  and  C4_5 
REMARK    3  A    between atoms: C4_5  and  N1_6 
REMARK    4  A    between atoms: N2_12  and  C9_13 
REMARK    5  A    between atoms: C11_16  and  N3_17 
REMARK    6  A    between atoms: N3_17  and  C12_18 
ROOT
HETATM    1  C9  UNL     1      26.394   6.775  48.790  1.00  0.00     0.265 A 
HETATM    2  S1  UNL     1      25.740   7.439  50.129  1.00  0.00     0.082 SA
HETATM    3  C10 UNL     1      25.533   9.044  50.036  1.00  0.00     0.092 C 
HETATM    4  C11 UNL     1      25.536   9.453  48.804  1.00  0.00     0.149 C 
HETATM    5  N4  UNL     1      25.066   8.891  47.690  1.00  0.00    -0.223 NA
HETATM    6  C18 UNL     1      25.395   8.346  46.628  1.00  0.00     0.234 C 
HETATM    7  N5  UNL     1      24.049   8.120  46.151  1.00  0.00    -0.256 NA
HETATM    8  C19 UNL     1      23.303   7.223  46.709  1.00  0.00     0.130 C 
HETATM    9  C20 UNL     1      24.340   6.828  47.677  1.00  0.00     0.680 C 
HETATM   10  N6  UNL     1      25.101   6.362  48.581  1.00  0.00    -0.008 NA
ENDROOT
BRANCH   1  11
HETATM   11  N2  UNL     1      27.738   6.808  48.354  1.00  0.00    -0.289 N 
HETATM   12  C1  UNL     1      28.430   5.567  48.404  1.00  0.00     0.302 C 
HETATM   13  O1  UNL     1      27.857   4.524  48.814  1.00  0.00    -0.258 OA
HETATM   14  H11 UNL     1      28.057   7.751  48.048  1.00  0.00     0.171 HD
BRANCH  12  15
HETATM   15  C2  UNL     1      29.796   5.624  47.956  1.00  0.00    -0.004 C 
HETATM   16  C3  UNL     1      30.945   5.687  47.592  1.00  0.00    -0.066 C 
BRANCH  16  17
HETATM   17  C4  UNL     1      32.360   5.771  47.166  1.00  0.00     0.366 C 
BRANCH  17  18
HETATM   18  N1  UNL     1      32.846   4.423  47.111  1.00  0.00     0.103 N 
HETATM   19  C5  UNL     1      32.829   4.000  45.723  1.00  0.00     0.299 C 
HETATM   20  C6  UNL     1      34.168   4.408  45.130  1.00  0.00     0.198 C 
HETATM   21  O2  UNL     1      35.154   3.530  45.577  1.00  0.00    -0.388 OA
HETATM   22  C7  UNL     1      35.034   3.327  46.947  1.00  0.00     0.198 C 
HETATM   23  C8  UNL     1      34.193   4.402  47.610  1.00  0.00     0.299 C 
ENDBRANCH  17  18
ENDBRANCH  16  17
ENDBRANCH  12  15
ENDBRANCH   1  11
BRANCH   4  24
HETATM   24  N3  UNL     1      26.008  10.607  48.109  1.00  0.00    -0.340 N 
HETATM   25  H12 UNL     1      25.488  11.213  47.404  1.00  0.00     0.167 HD
BRANCH  24  26
HETATM   26  C12 UNL     1      27.341  11.021  48.371  1.00  0.00     0.035 A 
HETATM   27  C13 UNL     1      27.724  12.314  48.577  1.00  0.00     0.032 A 
HETATM   28  C14 UNL     1      29.001  12.744  48.832  1.00  0.00     0.046 A 
HETATM   29  C15 UNL     1      30.006  11.819  48.892  1.00  0.00     0.138 A 
HETATM   30  F1  UNL     1      31.286  12.158  49.136  1.00  0.00    -0.204 F 
HETATM   31  C16 UNL     1      29.705  10.487  48.693  1.00  0.00     0.074 A 
HETATM   32 CL1  UNL     1      30.974   9.253  48.761  1.00  0.00    -0.081 Cl
HETATM   33  C17 UNL     1      28.400  10.123  48.441  1.00  0.00     0.056 A 
ENDBRANCH  24  26
ENDBRANCH   4  24
TORSDOF 6
ENDMDL
MODEL 7
REMARK VINA RESULT:      -7.5      8.098     10.764
REMARK  6 active torsions:
REMARK  status: ('A' for Active; 'I' for Inactive)
REMARK    1  A    between atoms: C1_2  and  C2_3 
REMARK       I    between atoms: C1_2  and  N2_12 
REMARK    2  A    between atoms: C3_4  and  C4_5 
REMARK    3  A    between atoms: C4_5  and  N1_6 
REMARK    4  A    between atoms: N2_12  and  C9_13 
REMARK    5  A    between atoms: C11_16  and  N3_17 
REMARK    6  A    between atoms: N3_17  and  C12_18 
ROOT
HETATM    1  C9  UNL     1      29.372   8.829  48.972  1.00  0.00     0.265 A 
HETATM    2  S1  UNL     1      30.906   8.746  49.519  1.00  0.00     0.082 SA
HETATM    3  C10 UNL     1      31.731   7.460  48.978  1.00  0.00     0.092 C 
HETATM    4  C11 UNL     1      31.184   6.958  47.913  1.00  0.00     0.149 C 
HETATM    5  N4  UNL     1      30.568   7.541  46.883  1.00  0.00    -0.223 NA
HETATM    6  C18 UNL     1      29.466   7.718  46.346  1.00  0.00     0.234 C 
HETATM    7  N5  UNL     1      29.960   8.524  45.252  1.00  0.00    -0.256 NA
HETATM    8  C19 UNL     1      30.365   9.733  45.468  1.00  0.00     0.130 C 
HETATM    9  C20 UNL     1      30.080   9.673  46.910  1.00  0.00     0.680 C 
HETATM   10  N6  UNL     1      29.903   9.803  48.162  1.00  0.00    -0.008 NA
ENDROOT
BRANCH   1  11
HETATM   11  N2  UNL     1      28.247   8.079  49.382  1.00  0.00    -0.289 N 
HETATM   12  C1  UNL     1      27.154   8.837  49.885  1.00  0.00     0.302 C 
HETATM   13  O1  UNL     1      27.213  10.093  49.949  1.00  0.00    -0.258 OA
HETATM   14  H11 UNL     1      28.361   7.051  49.263  1.00  0.00     0.171 HD
BRANCH  12  15
HETATM   15  C2  UNL     1      26.019   8.053  50.296  1.00  0.00    -0.004 C 
HETATM   16  C3  UNL     1      25.063   7.410  50.654  1.00  0.00    -0.066 C 
BRANCH  16  17
HETATM   17  C4  UNL     1      23.879   6.640  51.096  1.00  0.00     0.366 C 
BRANCH  17  18
HETATM   18  N1  UNL     1      24.272   5.262  51.104  1.00  0.00     0.103 N 
HETATM   19  C5  UNL     1      23.586   4.608  52.203  1.00  0.00     0.299 C 
HETATM   20  C6  UNL     1      22.252   4.128  51.655  1.00  0.00     0.198 C 
HETATM   21  O2  UNL     1      22.460   2.995  50.870  1.00  0.00    -0.388 OA
HETATM   22  C7  UNL     1      23.534   3.195  50.010  1.00  0.00     0.198 C 
HETATM   23  C8  UNL     1      23.875   4.665  49.858  1.00  0.00     0.299 C 
ENDBRANCH  17  18
ENDBRANCH  16  17
ENDBRANCH  12  15
ENDBRANCH   1  11
BRANCH   4  24
HETATM   24  N3  UNL     1      30.996   5.648  47.376  1.00  0.00    -0.340 N 
HETATM   25  H12 UNL     1      30.083   5.122  47.222  1.00  0.00     0.167 HD
BRANCH  24  26
HETATM   26  C12 UNL     1      32.162   4.931  46.995  1.00  0.00     0.035 A 
HETATM   27  C13 UNL     1      32.731   3.933  47.731  1.00  0.00     0.032 A 
HETATM   28  C14 UNL     1      33.854   3.224  47.389  1.00  0.00     0.046 A 
HETATM   29  C15 UNL     1      34.485   3.518  46.213  1.00  0.00     0.138 A 
HETATM   30  F1  UNL     1      35.593   2.870  45.806  1.00  0.00    -0.204 F 
HETATM   31  C16 UNL     1      33.975   4.516  45.408  1.00  0.00     0.074 A 
HETATM   32 CL1  UNL     1      34.758   4.933  43.876  1.00  0.00    -0.081 Cl
HETATM   33  C17 UNL     1      32.842   5.190  45.812  1.00  0.00     0.056 A 
ENDBRANCH  24  26
ENDBRANCH   4  24
TORSDOF 6
ENDMDL
MODEL 8
REMARK VINA RESULT:      -7.3      5.248      8.528
REMARK  6 active torsions:
REMARK  status: ('A' for Active; 'I' for Inactive)
REMARK    1  A    between atoms: C1_2  and  C2_3 
REMARK       I    between atoms: C1_2  and  N2_12 
REMARK    2  A    between atoms: C3_4  and  C4_5 
REMARK    3  A    between atoms: C4_5  and  N1_6 
REMARK    4  A    between atoms: N2_12  and  C9_13 
REMARK    5  A    between atoms: C11_16  and  N3_17 
REMARK    6  A    between atoms: N3_17  and  C12_18 
ROOT
HETATM    1  C9  UNL     1      20.755   4.543  51.051  1.00  0.00     0.265 A 
HETATM    2  S1  UNL     1      22.043   5.145  51.851  1.00  0.00     0.082 SA
HETATM    3  C10 UNL     1      23.054   4.013  52.420  1.00  0.00     0.092 C 
HETATM    4  C11 UNL     1      22.892   2.880  51.807  1.00  0.00     0.149 C 
HETATM    5  N4  UNL     1      22.602   2.600  50.535  1.00  0.00    -0.223 NA
HETATM    6  C18 UNL     1      21.717   2.177  49.780  1.00  0.00     0.234 C 
HETATM    7  N5  UNL     1      22.490   2.290  48.564  1.00  0.00    -0.256 NA
HETATM    8  C19 UNL     1      22.752   3.454  48.066  1.00  0.00     0.130 C 
HETATM    9  C20 UNL     1      22.032   4.175  49.129  1.00  0.00     0.680 C 
HETATM   10  N6  UNL     1      21.467   4.960  49.954  1.00  0.00    -0.008 NA
ENDROOT
BRANCH   1  11
HETATM   11  N2  UNL     1      19.594   3.935  51.579  1.00  0.00    -0.289 N 
HETATM   12  C1  UNL     1      18.380   4.238  50.903  1.00  0.00     0.302 C 
HETATM   13  O1  UNL     1      18.372   5.001  49.902  1.00  0.00    -0.258 OA
HETATM   14  H11 UNL     1      19.775   3.334  52.409  1.00  0.00     0.171 HD
BRANCH  12  15
HETATM   15  C2  UNL     1      17.211   3.608  51.457  1.00  0.00    -0.004 C 
HETATM   16  C3  UNL     1      16.237   3.063  51.915  1.00  0.00    -0.066 C 
BRANCH  16  17
HETATM   17  C4  UNL     1      15.056   2.375  52.482  1.00  0.00     0.366 C 
BRANCH  17  18
HETATM   18  N1  UNL     1      13.950   3.274  52.322  1.00  0.00     0.103 N 
HETATM   19  C5  UNL     1      12.737   2.480  52.244  1.00  0.00     0.299 C 
HETATM   20  C6  UNL     1      12.254   2.287  53.671  1.00  0.00     0.198 C 
HETATM   21  O2  UNL     1      11.669   3.470  54.121  1.00  0.00    -0.388 OA
HETATM   22  C7  UNL     1      12.473   4.558  53.800  1.00  0.00     0.198 C 
HETATM   23  C8  UNL     1      13.893   4.138  53.469  1.00  0.00     0.299 C 
ENDBRANCH  17  18
ENDBRANCH  16  17
ENDBRANCH  12  15
ENDBRANCH   1  11
BRANCH   4  24
HETATM   24  N3  UNL     1      22.942   1.500  52.173  1.00  0.00    -0.340 N 
HETATM   25  H12 UNL     1      22.226   0.737  51.974  1.00  0.00     0.167 HD
BRANCH  24  26
HETATM   26  C12 UNL     1      24.082   1.064  52.900  1.00  0.00     0.035 A 
HETATM   27  C13 UNL     1      24.135  -0.078  53.644  1.00  0.00     0.032 A 
HETATM   28  C14 UNL     1      25.219  -0.525  54.355  1.00  0.00     0.046 A 
HETATM   29  C15 UNL     1      26.367   0.218  54.340  1.00  0.00     0.138 A 
HETATM   30  F1  UNL     1      27.474  -0.149  55.012  1.00  0.00    -0.204 F 
HETATM   31  C16 UNL     1      26.398   1.391  53.613  1.00  0.00     0.074 A 
HETATM   32 CL1  UNL     1      27.861   2.387  53.564  1.00  0.00    -0.081 Cl
HETATM   33  C17 UNL     1      25.272   1.782  52.920  1.00  0.00     0.056 A 
ENDBRANCH  24  26
ENDBRANCH   4  24
TORSDOF 6
ENDMDL
MODEL 9
REMARK VINA RESULT:      -7.2      6.284      8.497
REMARK  6 active torsions:
REMARK  status: ('A' for Active; 'I' for Inactive)
REMARK    1  A    between atoms: C1_2  and  C2_3 
REMARK       I    between atoms: C1_2  and  N2_12 
REMARK    2  A    between atoms: C3_4  and  C4_5 
REMARK    3  A    between atoms: C4_5  and  N1_6 
REMARK    4  A    between atoms: N2_12  and  C9_13 
REMARK    5  A    between atoms: C11_16  and  N3_17 
REMARK    6  A    between atoms: N3_17  and  C12_18 
ROOT
HETATM    1  C9  UNL     1      26.139   8.310  49.640  1.00  0.00     0.265 A 
HETATM    2  S1  UNL     1      27.066   9.645  49.774  1.00  0.00     0.082 SA
HETATM    3  C10 UNL     1      28.135   9.830  48.569  1.00  0.00     0.092 C 
HETATM    4  C11 UNL     1      27.800   9.133  47.526  1.00  0.00     0.149 C 
HETATM    5  N4  UNL     1      26.606   8.847  47.005  1.00  0.00    -0.223 NA
HETATM    6  C18 UNL     1      25.779   7.942  46.834  1.00  0.00     0.234 C 
HETATM    7  N5  UNL     1      24.811   8.753  46.131  1.00  0.00    -0.256 NA
HETATM    8  C19 UNL     1      24.125   9.645  46.768  1.00  0.00     0.130 C 
HETATM    9  C20 UNL     1      24.757   9.343  48.063  1.00  0.00     0.680 C 
HETATM   10  N6  UNL     1      25.191   9.225  49.252  1.00  0.00    -0.008 NA
ENDROOT
BRANCH   1  11
HETATM   11  N2  UNL     1      26.487   6.965  49.896  1.00  0.00    -0.289 N 
HETATM   12  C1  UNL     1      25.401   6.048  49.942  1.00  0.00     0.302 C 
HETATM   13  O1  UNL     1      24.218   6.438  49.763  1.00  0.00    -0.258 OA
HETATM   14  H11 UNL     1      27.509   6.812  50.022  1.00  0.00     0.171 HD
BRANCH  12  15
HETATM   15  C2  UNL     1      25.778   4.684  50.204  1.00  0.00    -0.004 C 
HETATM   16  C3  UNL     1      26.076   3.536  50.424  1.00  0.00    -0.066 C 
BRANCH  16  17
HETATM   17  C4  UNL     1      26.422   2.120  50.682  1.00  0.00     0.366 C 
BRANCH  17  18
HETATM   18  N1  UNL     1      26.245   1.910  52.089  1.00  0.00     0.103 N 
HETATM   19  C5  UNL     1      25.702   0.577  52.277  1.00  0.00     0.299 C 
HETATM   20  C6  UNL     1      26.891  -0.363  52.380  1.00  0.00     0.198 C 
HETATM   21  O2  UNL     1      27.476  -0.226  53.638  1.00  0.00    -0.388 OA
HETATM   22  C7  UNL     1      27.625   1.120  53.956  1.00  0.00     0.198 C 
HETATM   23  C8  UNL     1      27.528   2.008  52.731  1.00  0.00     0.299 C 
ENDBRANCH  17  18
ENDBRANCH  16  17
ENDBRANCH  12  15
ENDBRANCH   1  11
BRANCH   4  24
HETATM   24  N3  UNL     1      28.495   8.396  46.519  1.00  0.00    -0.340 N 
HETATM   25  H12 UNL     1      28.421   8.490  45.462  1.00  0.00     0.167 HD
BRANCH  24  26
HETATM   26  C12 UNL     1      29.408   7.401  46.960  1.00  0.00     0.035 A 
HETATM   27  C13 UNL     1      29.074   6.338  47.748  1.00  0.00     0.032 A 
HETATM   28  C14 UNL     1      29.931   5.363  48.188  1.00  0.00     0.046 A 
HETATM   29  C15 UNL     1      31.247   5.430  47.824  1.00  0.00     0.138 A 
HETATM   30  F1  UNL     1      32.152   4.514  48.215  1.00  0.00    -0.204 F 
HETATM   31  C16 UNL     1      31.670   6.475  47.028  1.00  0.00     0.074 A 
HETATM   32 CL1  UNL     1      33.365   6.605  46.530  1.00  0.00    -0.081 Cl
HETATM   33  C17 UNL     1      30.755   7.422  46.620  1.00  0.00     0.056 A 
ENDBRANCH  24  26
ENDBRANCH   4  24
TORSDOF 6
ENDMDL
