MODEL 1
REMARK VINA RESULT:      -7.6      0.000      0.000
REMARK  5 active torsions:
REMARK  status: ('A' for Active; 'I' for Inactive)
REMARK    1  A    between atoms: C2_2  and  O1_3 
REMARK    2  A    between atoms: O1_3  and  C3_4 
REMARK       I    between atoms: C3_4  and  N1_6 
REMARK    3  A    between atoms: N1_6  and  C4_7 
REMARK    4  A    between atoms: C7_10  and  O3_11 
REMARK    5  A    between atoms: O3_11  and  C8_12 
ROOT
HETATM    1  C4  UNL     1      24.266  -0.408  53.929  1.00  0.00     0.037 A 
HETATM    2  C5  UNL     1      23.174  -0.911  54.605  1.00  0.00     0.032 A 
HETATM    3  C6  UNL     1      21.918  -0.392  54.372  1.00  0.00     0.039 A 
HETATM    4  C7  UNL     1      21.797   0.646  53.440  1.00  0.00     0.078 A 
HETATM    5  C15 UNL     1      22.880   1.182  52.734  1.00  0.00     0.039 A 
HETATM    6  C16 UNL     1      24.114   0.622  53.009  1.00  0.00     0.032 A 
ENDROOT
BRANCH   4   7
HETATM    7  O3  UNL     1      20.565   1.176  53.192  1.00  0.00    -0.291 OA
BRANCH   7   8
HETATM    8  C8  UNL     1      19.652   0.844  52.242  1.00  0.00     0.183 A 
HETATM    9  N2  UNL     1      19.831   1.580  51.107  1.00  0.00    -0.217 NA
HETATM   10  C9  UNL     1      19.019   1.396  50.043  1.00  0.00     0.236 A 
HETATM   11  N3  UNL     1      18.022   0.496  50.065  1.00  0.00    -0.241 NA
HETATM   12  C10 UNL     1      17.796  -0.257  51.152  1.00  0.00     0.069 A 
HETATM   13  C11 UNL     1      18.621  -0.073  52.238  1.00  0.00     0.042 A 
HETATM   14  C14 UNL     1      16.932  -1.183  51.458  1.00  0.00     0.010 A 
HETATM   15  C12 UNL     1      18.318  -0.860  53.256  1.00  0.00    -0.005 A 
HETATM   16  C13 UNL     1      17.155  -1.693  52.853  1.00  0.00     0.057 A 
ENDBRANCH   7   8
ENDBRANCH   4   7
BRANCH   1  17
HETATM   17  N1  UNL     1      25.607  -0.858  54.082  1.00  0.00    -0.303 N 
HETATM   18  C3  UNL     1      26.639  -0.083  54.704  1.00  0.00     0.365 C 
HETATM   19  O2  UNL     1      26.732   1.035  55.231  1.00  0.00    -0.238 OA
HETATM   20  H6  UNL     1      25.912  -1.796  53.741  1.00  0.00     0.171 HD
BRANCH  18  21
HETATM   21  O1  UNL     1      27.936  -0.584  54.823  1.00  0.00    -0.304 OA
BRANCH  21  22
HETATM   22  C2  UNL     1      29.035   0.068  54.204  1.00  0.00     0.176 C 
HETATM   23  C1  UNL     1      29.883  -0.921  53.461  1.00  0.00     0.034 C 
ENDBRANCH  21  22
ENDBRANCH  18  21
ENDBRANCH   1  17
TORSDOF 5
ENDMDL
MODEL 2
REMARK VINA RESULT:      -7.6      1.184      1.882
REMARK  5 active torsions:
REMARK  status: ('A' for Active; 'I' for Inactive)
REMARK    1  A    between atoms: C2_2  and  O1_3 
REMARK    2  A    between atoms: O1_3  and  C3_4 
REMARK       I    between atoms: C3_4  and  N1_6 
REMARK    3  A    between atoms: N1_6  and  C4_7 
REMARK    4  A    between atoms: C7_10  and  O3_11 
REMARK    5  A    between atoms: O3_11  and  C8_12 
ROOT
HETATM    1  C4  UNL     1      24.251  -0.460  54.038  1.00  0.00     0.037 A 
HETATM    2  C5  UNL     1      23.897   0.373  52.998  1.00  0.00     0.032 A 
HETATM    3  C6  UNL     1      22.574   0.701  52.795  1.00  0.00     0.039 A 
HETATM    4  C7  UNL     1      21.620   0.166  53.669  1.00  0.00     0.078 A 
HETATM    5  C15 UNL     1      21.940  -0.683  54.736  1.00  0.00     0.039 A 
HETATM    6  C16 UNL     1      23.282  -0.976  54.890  1.00  0.00     0.032 A 
ENDROOT
BRANCH   4   7
HETATM    7  O3  UNL     1      20.305   0.475  53.488  1.00  0.00    -0.291 OA
BRANCH   7   8
HETATM    8  C8  UNL     1      19.722   1.279  52.561  1.00  0.00     0.183 A 
HETATM    9  N2  UNL     1      20.132   2.573  52.701  1.00  0.00    -0.217 NA
HETATM   10  C9  UNL     1      19.663   3.528  51.870  1.00  0.00     0.236 A 
HETATM   11  N3  UNL     1      18.788   3.244  50.891  1.00  0.00    -0.241 NA
HETATM   12  C10 UNL     1      18.347   1.990  50.703  1.00  0.00     0.069 A 
HETATM   13  C11 UNL     1      18.823   1.014  51.549  1.00  0.00     0.042 A 
HETATM   14  C14 UNL     1      17.524   1.427  49.864  1.00  0.00     0.010 A 
HETATM   15  C12 UNL     1      18.330  -0.184  51.283  1.00  0.00    -0.005 A 
HETATM   16  C13 UNL     1      17.407  -0.047  50.127  1.00  0.00     0.057 A 
ENDBRANCH   7   8
ENDBRANCH   4   7
BRANCH   1  17
HETATM   17  N1  UNL     1      25.577  -0.870  54.349  1.00  0.00    -0.303 N 
HETATM   18  C3  UNL     1      26.615   0.033  54.749  1.00  0.00     0.365 C 
HETATM   19  O2  UNL     1      26.723   1.254  54.936  1.00  0.00    -0.238 OA
HETATM   20  H6  UNL     1      25.867  -1.871  54.300  1.00  0.00     0.171 HD
BRANCH  18  21
HETATM   21  O1  UNL     1      27.897  -0.434  55.041  1.00  0.00    -0.304 OA
BRANCH  21  22
HETATM   22  C2  UNL     1      29.032   0.043  54.333  1.00  0.00     0.176 C 
HETATM   23  C1  UNL     1      29.686  -1.072  53.574  1.00  0.00     0.034 C 
ENDBRANCH  21  22
ENDBRANCH  18  21
ENDBRANCH   1  17
TORSDOF 5
ENDMDL
MODEL 3
REMARK VINA RESULT:      -7.4      2.202      2.868
REMARK  5 active torsions:
REMARK  status: ('A' for Active; 'I' for Inactive)
REMARK    1  A    between atoms: C2_2  and  O1_3 
REMARK    2  A    between atoms: O1_3  and  C3_4 
REMARK       I    between atoms: C3_4  and  N1_6 
REMARK    3  A    between atoms: N1_6  and  C4_7 
REMARK    4  A    between atoms: C7_10  and  O3_11 
REMARK    5  A    between atoms: O3_11  and  C8_12 
ROOT
HETATM    1  C4  UNL     1      24.741  -0.059  53.931  1.00  0.00     0.037 A 
HETATM    2  C5  UNL     1      24.558   1.133  53.262  1.00  0.00     0.032 A 
HETATM    3  C6  UNL     1      23.287   1.556  52.938  1.00  0.00     0.039 A 
HETATM    4  C7  UNL     1      22.208   0.742  53.307  1.00  0.00     0.078 A 
HETATM    5  C15 UNL     1      22.353  -0.473  53.986  1.00  0.00     0.039 A 
HETATM    6  C16 UNL     1      23.651  -0.845  54.284  1.00  0.00     0.032 A 
ENDROOT
BRANCH   4   7
HETATM    7  O3  UNL     1      20.941   1.139  52.997  1.00  0.00    -0.291 OA
BRANCH   7   8
HETATM    8  C8  UNL     1      20.496   1.888  51.954  1.00  0.00     0.183 A 
HETATM    9  N2  UNL     1      19.706   2.914  52.384  1.00  0.00    -0.217 NA
HETATM   10  C9  UNL     1      19.166   3.774  51.494  1.00  0.00     0.236 A 
HETATM   11  N3  UNL     1      19.382   3.651  50.174  1.00  0.00    -0.241 NA
HETATM   12  C10 UNL     1      20.148   2.662  49.690  1.00  0.00     0.069 A 
HETATM   13  C11 UNL     1      20.702   1.784  50.594  1.00  0.00     0.042 A 
HETATM   14  C14 UNL     1      20.526   2.300  48.497  1.00  0.00     0.010 A 
HETATM   15  C12 UNL     1      21.438   0.847  50.020  1.00  0.00    -0.005 A 
HETATM   16  C13 UNL     1      21.407   1.084  48.553  1.00  0.00     0.057 A 
ENDBRANCH   7   8
ENDBRANCH   4   7
BRANCH   1  17
HETATM   17  N1  UNL     1      25.998  -0.600  54.319  1.00  0.00    -0.303 N 
HETATM   18  C3  UNL     1      27.151   0.199  54.612  1.00  0.00     0.365 C 
HETATM   19  O2  UNL     1      27.427   1.407  54.633  1.00  0.00    -0.238 OA
HETATM   20  H6  UNL     1      26.147  -1.629  54.411  1.00  0.00     0.171 HD
BRANCH  18  21
HETATM   21  O1  UNL     1      28.356  -0.394  54.988  1.00  0.00    -0.304 OA
BRANCH  21  22
HETATM   22  C2  UNL     1      29.458  -0.452  54.094  1.00  0.00     0.176 C 
HETATM   23  C1  UNL     1      29.433  -1.730  53.309  1.00  0.00     0.034 C 
ENDBRANCH  21  22
ENDBRANCH  18  21
ENDBRANCH   1  17
TORSDOF 5
ENDMDL
MODEL 4
REMARK VINA RESULT:      -7.3      1.191      2.362
REMARK  5 active torsions:
REMARK  status: ('A' for Active; 'I' for Inactive)
REMARK    1  A    between atoms: C2_2  and  O1_3 
REMARK    2  A    between atoms: O1_3  and  C3_4 
REMARK       I    between atoms: C3_4  and  N1_6 
REMARK    3  A    between atoms: N1_6  and  C4_7 
REMARK    4  A    between atoms: C7_10  and  O3_11 
REMARK    5  A    between atoms: O3_11  and  C8_12 
ROOT
HETATM    1  C4  UNL     1      24.217  -0.553  54.208  1.00  0.00     0.037 A 
HETATM    2  C5  UNL     1      23.188  -1.067  54.970  1.00  0.00     0.032 A 
HETATM    3  C6  UNL     1      21.896  -0.631  54.769  1.00  0.00     0.039 A 
HETATM    4  C7  UNL     1      21.672   0.336  53.781  1.00  0.00     0.078 A 
HETATM    5  C15 UNL     1      22.690   0.881  52.988  1.00  0.00     0.039 A 
HETATM    6  C16 UNL     1      23.964   0.405  53.235  1.00  0.00     0.032 A 
ENDROOT
BRANCH   4   7
HETATM    7  O3  UNL     1      20.403   0.783  53.564  1.00  0.00    -0.291 OA
BRANCH   7   8
HETATM    8  C8  UNL     1      19.766   1.054  52.395  1.00  0.00     0.183 A 
HETATM    9  N2  UNL     1      19.131  -0.052  51.910  1.00  0.00    -0.217 NA
HETATM   10  C9  UNL     1      18.439   0.014  50.752  1.00  0.00     0.236 A 
HETATM   11  N3  UNL     1      18.353   1.155  50.047  1.00  0.00    -0.241 NA
HETATM   12  C10 UNL     1      18.956   2.275  50.472  1.00  0.00     0.069 A 
HETATM   13  C11 UNL     1      19.662   2.211  51.652  1.00  0.00     0.042 A 
HETATM   14  C14 UNL     1      19.047   3.493  50.016  1.00  0.00     0.010 A 
HETATM   15  C12 UNL     1      20.218   3.364  51.984  1.00  0.00    -0.005 A 
HETATM   16  C13 UNL     1      19.871   4.353  50.931  1.00  0.00     0.057 A 
ENDBRANCH   7   8
ENDBRANCH   4   7
BRANCH   1  17
HETATM   17  N1  UNL     1      25.587  -0.921  54.321  1.00  0.00    -0.303 N 
HETATM   18  C3  UNL     1      26.615  -0.031  54.773  1.00  0.00     0.365 C 
HETATM   19  O2  UNL     1      26.682   1.146  55.156  1.00  0.00    -0.238 OA
HETATM   20  H6  UNL     1      25.918  -1.879  54.074  1.00  0.00     0.171 HD
BRANCH  18  21
HETATM   21  O1  UNL     1      27.940  -0.456  54.861  1.00  0.00    -0.304 OA
BRANCH  21  22
HETATM   22  C2  UNL     1      28.929   0.030  53.964  1.00  0.00     0.176 C 
HETATM   23  C1  UNL     1      29.754  -1.101  53.427  1.00  0.00     0.034 C 
ENDBRANCH  21  22
ENDBRANCH  18  21
ENDBRANCH   1  17
TORSDOF 5
ENDMDL
MODEL 5
REMARK VINA RESULT:      -7.0      1.295      2.029
REMARK  5 active torsions:
REMARK  status: ('A' for Active; 'I' for Inactive)
REMARK    1  A    between atoms: C2_2  and  O1_3 
REMARK    2  A    between atoms: O1_3  and  C3_4 
REMARK       I    between atoms: C3_4  and  N1_6 
REMARK    3  A    between atoms: N1_6  and  C4_7 
REMARK    4  A    between atoms: C7_10  and  O3_11 
REMARK    5  A    between atoms: O3_11  and  C8_12 
ROOT
HETATM    1  C4  UNL     1      24.413   0.254  53.088  1.00  0.00     0.037 A 
HETATM    2  C5  UNL     1      23.745  -0.653  53.885  1.00  0.00     0.032 A 
HETATM    3  C6  UNL     1      22.385  -0.531  54.080  1.00  0.00     0.039 A 
HETATM    4  C7  UNL     1      21.721   0.529  53.450  1.00  0.00     0.078 A 
HETATM    5  C15 UNL     1      22.364   1.469  52.635  1.00  0.00     0.039 A 
HETATM    6  C16 UNL     1      23.727   1.296  52.476  1.00  0.00     0.032 A 
ENDROOT
BRANCH   4   7
HETATM    7  O3  UNL     1      20.377   0.671  53.628  1.00  0.00    -0.291 OA
BRANCH   7   8
HETATM    8  C8  UNL     1      19.347   0.092  52.957  1.00  0.00     0.183 A 
HETATM    9  N2  UNL     1      18.829  -0.958  53.659  1.00  0.00    -0.217 NA
HETATM   10  C9  UNL     1      17.793  -1.665  53.157  1.00  0.00     0.236 A 
HETATM   11  N3  UNL     1      17.246  -1.366  51.967  1.00  0.00    -0.241 NA
HETATM   12  C10 UNL     1      17.713  -0.346  51.231  1.00  0.00     0.069 A 
HETATM   13  C11 UNL     1      18.767   0.377  51.739  1.00  0.00     0.042 A 
HETATM   14  C14 UNL     1      17.395   0.166  50.075  1.00  0.00     0.010 A 
HETATM   15  C12 UNL     1      19.153   1.358  50.940  1.00  0.00    -0.005 A 
HETATM   16  C13 UNL     1      18.281   1.331  49.738  1.00  0.00     0.057 A 
ENDBRANCH   7   8
ENDBRANCH   4   7
BRANCH   1  17
HETATM   17  N1  UNL     1      25.808   0.234  52.812  1.00  0.00    -0.303 N 
HETATM   18  C3  UNL     1      26.815   0.555  53.780  1.00  0.00     0.365 C 
HETATM   19  O2  UNL     1      26.841   0.898  54.971  1.00  0.00    -0.238 OA
HETATM   20  H6  UNL     1      26.176  -0.020  51.869  1.00  0.00     0.171 HD
BRANCH  18  21
HETATM   21  O1  UNL     1      28.168   0.517  53.444  1.00  0.00    -0.304 OA
BRANCH  21  22
HETATM   22  C2  UNL     1      29.133  -0.019  54.338  1.00  0.00     0.176 C 
HETATM   23  C1  UNL     1      29.966  -1.060  53.651  1.00  0.00     0.034 C 
ENDBRANCH  21  22
ENDBRANCH  18  21
ENDBRANCH   1  17
TORSDOF 5
ENDMDL
MODEL 6
REMARK VINA RESULT:      -7.0      5.366      9.088
REMARK  5 active torsions:
REMARK  status: ('A' for Active; 'I' for Inactive)
REMARK    1  A    between atoms: C2_2  and  O1_3 
REMARK    2  A    between atoms: O1_3  and  C3_4 
REMARK       I    between atoms: C3_4  and  N1_6 
REMARK    3  A    between atoms: N1_6  and  C4_7 
REMARK    4  A    between atoms: C7_10  and  O3_11 
REMARK    5  A    between atoms: O3_11  and  C8_12 
ROOT
HETATM    1  C4  UNL     1      24.793   5.399  49.377  1.00  0.00     0.037 A 
HETATM    2  C5  UNL     1      26.121   5.233  49.041  1.00  0.00     0.032 A 
HETATM    3  C6  UNL     1      26.823   4.145  49.514  1.00  0.00     0.039 A 
HETATM    4  C7  UNL     1      26.149   3.231  50.333  1.00  0.00     0.078 A 
HETATM    5  C15 UNL     1      24.802   3.364  50.695  1.00  0.00     0.039 A 
HETATM    6  C16 UNL     1      24.150   4.474  50.191  1.00  0.00     0.032 A 
ENDROOT
BRANCH   4   7
HETATM    7  O3  UNL     1      26.821   2.147  50.813  1.00  0.00    -0.291 OA
BRANCH   7   8
HETATM    8  C8  UNL     1      27.122   1.809  52.094  1.00  0.00     0.183 A 
HETATM    9  N2  UNL     1      28.245   2.453  52.524  1.00  0.00    -0.217 NA
HETATM   10  C9  UNL     1      28.708   2.249  53.776  1.00  0.00     0.236 A 
HETATM   11  N3  UNL     1      28.090   1.415  54.629  1.00  0.00    -0.241 NA
HETATM   12  C10 UNL     1      26.981   0.753  54.265  1.00  0.00     0.069 A 
HETATM   13  C11 UNL     1      26.506   0.959  52.990  1.00  0.00     0.042 A 
HETATM   14  C14 UNL     1      26.188  -0.095  54.856  1.00  0.00     0.010 A 
HETATM   15  C12 UNL     1      25.413   0.263  52.727  1.00  0.00    -0.005 A 
HETATM   16  C13 UNL     1      25.074  -0.521  53.943  1.00  0.00     0.057 A 
ENDBRANCH   7   8
ENDBRANCH   4   7
BRANCH   1  17
HETATM   17  N1  UNL     1      23.966   6.475  48.953  1.00  0.00    -0.303 N 
HETATM   18  C3  UNL     1      23.744   7.660  49.728  1.00  0.00     0.365 C 
HETATM   19  O2  UNL     1      24.113   8.098  50.828  1.00  0.00    -0.238 OA
HETATM   20  H6  UNL     1      23.468   6.456  48.036  1.00  0.00     0.171 HD
BRANCH  18  21
HETATM   21  O1  UNL     1      22.920   8.681  49.255  1.00  0.00    -0.304 OA
BRANCH  21  22
HETATM   22  C2  UNL     1      21.518   8.655  49.474  1.00  0.00     0.176 C 
HETATM   23  C1  UNL     1      20.825   9.626  48.566  1.00  0.00     0.034 C 
ENDBRANCH  21  22
ENDBRANCH  18  21
ENDBRANCH   1  17
TORSDOF 5
ENDMDL
MODEL 7
REMARK VINA RESULT:      -7.0      7.337      9.215
REMARK  5 active torsions:
REMARK  status: ('A' for Active; 'I' for Inactive)
REMARK    1  A    between atoms: C2_2  and  O1_3 
REMARK    2  A    between atoms: O1_3  and  C3_4 
REMARK       I    between atoms: C3_4  and  N1_6 
REMARK    3  A    between atoms: N1_6  and  C4_7 
REMARK    4  A    between atoms: C7_10  and  O3_11 
REMARK    5  A    between atoms: O3_11  and  C8_12 
ROOT
HETATM    1  C4  UNL     1      27.123   7.134  48.727  1.00  0.00     0.037 A 
HETATM    2  C5  UNL     1      28.015   6.155  48.343  1.00  0.00     0.032 A 
HETATM    3  C6  UNL     1      27.758   4.833  48.637  1.00  0.00     0.039 A 
HETATM    4  C7  UNL     1      26.578   4.528  49.327  1.00  0.00     0.078 A 
HETATM    5  C15 UNL     1      25.648   5.494  49.733  1.00  0.00     0.039 A 
HETATM    6  C16 UNL     1      25.960   6.802  49.410  1.00  0.00     0.032 A 
ENDROOT
BRANCH   4   7
HETATM    7  O3  UNL     1      26.302   3.228  49.629  1.00  0.00    -0.291 OA
BRANCH   7   8
HETATM    8  C8  UNL     1      26.109   2.640  50.839  1.00  0.00     0.183 A 
HETATM    9  N2  UNL     1      27.271   2.582  51.551  1.00  0.00    -0.217 NA
HETATM   10  C9  UNL     1      27.286   2.031  52.784  1.00  0.00     0.236 A 
HETATM   11  N3  UNL     1      26.174   1.526  53.344  1.00  0.00    -0.241 NA
HETATM   12  C10 UNL     1      25.001   1.552  52.692  1.00  0.00     0.069 A 
HETATM   13  C11 UNL     1      24.982   2.114  51.436  1.00  0.00     0.042 A 
HETATM   14  C14 UNL     1      23.792   1.152  52.970  1.00  0.00     0.010 A 
HETATM   15  C12 UNL     1      23.783   2.091  50.878  1.00  0.00    -0.005 A 
HETATM   16  C13 UNL     1      22.850   1.447  51.839  1.00  0.00     0.057 A 
ENDBRANCH   7   8
ENDBRANCH   4   7
BRANCH   1  17
HETATM   17  N1  UNL     1      27.276   8.527  48.483  1.00  0.00    -0.303 N 
HETATM   18  C3  UNL     1      27.390   9.509  49.521  1.00  0.00     0.365 C 
HETATM   19  O2  UNL     1      27.397   9.511  50.760  1.00  0.00    -0.238 OA
HETATM   20  H6  UNL     1      27.314   8.913  47.514  1.00  0.00     0.171 HD
BRANCH  18  21
HETATM   21  O1  UNL     1      27.538  10.861  49.214  1.00  0.00    -0.304 OA
BRANCH  21  22
HETATM   22  C2  UNL     1      28.739  11.358  48.642  1.00  0.00     0.176 C 
HETATM   23  C1  UNL     1      28.461  12.565  47.798  1.00  0.00     0.034 C 
ENDBRANCH  21  22
ENDBRANCH  18  21
ENDBRANCH   1  17
TORSDOF 5
ENDMDL
MODEL 8
REMARK VINA RESULT:      -7.0      4.165      8.681
REMARK  5 active torsions:
REMARK  status: ('A' for Active; 'I' for Inactive)
REMARK    1  A    between atoms: C2_2  and  O1_3 
REMARK    2  A    between atoms: O1_3  and  C3_4 
REMARK       I    between atoms: C3_4  and  N1_6 
REMARK    3  A    between atoms: N1_6  and  C4_7 
REMARK    4  A    between atoms: C7_10  and  O3_11 
REMARK    5  A    between atoms: O3_11  and  C8_12 
ROOT
HETATM    1  C4  UNL     1      23.555   3.059  50.296  1.00  0.00     0.037 A 
HETATM    2  C5  UNL     1      24.931   2.985  50.231  1.00  0.00     0.032 A 
HETATM    3  C6  UNL     1      25.648   2.501  51.304  1.00  0.00     0.039 A 
HETATM    4  C7  UNL     1      24.939   2.096  52.442  1.00  0.00     0.078 A 
HETATM    5  C15 UNL     1      23.544   2.156  52.546  1.00  0.00     0.039 A 
HETATM    6  C16 UNL     1      22.879   2.649  51.438  1.00  0.00     0.032 A 
ENDROOT
BRANCH   4   7
HETATM    7  O3  UNL     1      25.627   1.615  53.517  1.00  0.00    -0.291 OA
BRANCH   7   8
HETATM    8  C8  UNL     1      26.883   1.102  53.584  1.00  0.00     0.183 A 
HETATM    9  N2  UNL     1      27.778   2.042  54.004  1.00  0.00    -0.217 NA
HETATM   10  C9  UNL     1      29.084   1.726  54.136  1.00  0.00     0.236 A 
HETATM   11  N3  UNL     1      29.542   0.493  53.862  1.00  0.00    -0.241 NA
HETATM   12  C10 UNL     1      28.711  -0.475  53.446  1.00  0.00     0.069 A 
HETATM   13  C11 UNL     1      27.379  -0.156  53.310  1.00  0.00     0.042 A 
HETATM   14  C14 UNL     1      28.859  -1.726  53.114  1.00  0.00     0.010 A 
HETATM   15  C12 UNL     1      26.644  -1.173  52.894  1.00  0.00    -0.005 A 
HETATM   16  C13 UNL     1      27.547  -2.340  52.716  1.00  0.00     0.057 A 
ENDBRANCH   7   8
ENDBRANCH   4   7
BRANCH   1  17
HETATM   17  N1  UNL     1      22.708   3.537  49.258  1.00  0.00    -0.303 N 
HETATM   18  C3  UNL     1      22.158   2.702  48.232  1.00  0.00     0.365 C 
HETATM   19  O2  UNL     1      22.205   1.501  47.928  1.00  0.00    -0.238 OA
HETATM   20  H6  UNL     1      22.438   4.543  49.191  1.00  0.00     0.171 HD
BRANCH  18  21
HETATM   21  O1  UNL     1      21.333   3.234  47.242  1.00  0.00    -0.304 OA
BRANCH  21  22
HETATM   22  C2  UNL     1      21.857   3.636  45.985  1.00  0.00     0.176 C 
HETATM   23  C1  UNL     1      21.997   5.128  45.926  1.00  0.00     0.034 C 
ENDBRANCH  21  22
ENDBRANCH  18  21
ENDBRANCH   1  17
TORSDOF 5
ENDMDL
MODEL 9
REMARK VINA RESULT:      -6.8      4.093      7.720
REMARK  5 active torsions:
REMARK  status: ('A' for Active; 'I' for Inactive)
REMARK    1  A    between atoms: C2_2  and  O1_3 
REMARK    2  A    between atoms: O1_3  and  C3_4 
REMARK       I    between atoms: C3_4  and  N1_6 
REMARK    3  A    between atoms: N1_6  and  C4_7 
REMARK    4  A    between atoms: C7_10  and  O3_11 
REMARK    5  A    between atoms: O3_11  and  C8_12 
ROOT
HETATM    1  C4  UNL     1      22.594   4.676  51.189  1.00  0.00     0.037 A 
HETATM    2  C5  UNL     1      23.177   4.469  52.422  1.00  0.00     0.032 A 
HETATM    3  C6  UNL     1      23.859   3.299  52.676  1.00  0.00     0.039 A 
HETATM    4  C7  UNL     1      23.937   2.346  51.653  1.00  0.00     0.078 A 
HETATM    5  C15 UNL     1      23.360   2.520  50.389  1.00  0.00     0.039 A 
HETATM    6  C16 UNL     1      22.689   3.712  50.193  1.00  0.00     0.032 A 
ENDROOT
BRANCH   4   7
HETATM    7  O3  UNL     1      24.607   1.180  51.880  1.00  0.00    -0.291 OA
BRANCH   7   8
HETATM    8  C8  UNL     1      24.742   0.466  53.028  1.00  0.00     0.183 A 
HETATM    9  N2  UNL     1      26.027   0.505  53.485  1.00  0.00    -0.217 NA
HETATM   10  C9  UNL     1      26.366  -0.146  54.619  1.00  0.00     0.236 A 
HETATM   11  N3  UNL     1      25.462  -0.846  55.326  1.00  0.00    -0.241 NA
HETATM   12  C10 UNL     1      24.183  -0.921  54.928  1.00  0.00     0.069 A 
HETATM   13  C11 UNL     1      23.835  -0.258  53.773  1.00  0.00     0.042 A 
HETATM   14  C14 UNL     1      23.115  -1.505  55.392  1.00  0.00     0.010 A 
HETATM   15  C12 UNL     1      22.556  -0.394  53.465  1.00  0.00    -0.005 A 
HETATM   16  C13 UNL     1      21.927  -1.241  54.512  1.00  0.00     0.057 A 
ENDBRANCH   7   8
ENDBRANCH   4   7
BRANCH   1  17
HETATM   17  N1  UNL     1      21.867   5.838  50.808  1.00  0.00    -0.303 N 
HETATM   18  C3  UNL     1      22.455   7.138  50.680  1.00  0.00     0.365 C 
HETATM   19  O2  UNL     1      23.582   7.634  50.823  1.00  0.00    -0.238 OA
HETATM   20  H6  UNL     1      20.845   5.800  50.598  1.00  0.00     0.171 HD
BRANCH  18  21
HETATM   21  O1  UNL     1      21.685   8.238  50.302  1.00  0.00    -0.304 OA
BRANCH  21  22
HETATM   22  C2  UNL     1      20.349   8.079  49.849  1.00  0.00     0.176 C 
HETATM   23  C1  UNL     1      19.620   9.388  49.889  1.00  0.00     0.034 C 
ENDBRANCH  21  22
ENDBRANCH  18  21
ENDBRANCH   1  17
TORSDOF 5
ENDMDL
