MODEL 1
REMARK VINA RESULT:      -7.7      0.000      0.000
REMARK  6 active torsions:
REMARK  status: ('A' for Active; 'I' for Inactive)
REMARK    1  A    between atoms: C2_2  and  N1_10 
REMARK    2  A    between atoms: C3_3  and  C4_4 
REMARK    3  A    between atoms: C4_4  and  C5_5 
REMARK    4  A    between atoms: N1_10  and  C9_11 
REMARK    5  A    between atoms: C12_14  and  C13_15 
REMARK    6  A    between atoms: N2_17  and  O2_18 
ROOT
HETATM    1  C9  UNL     1      25.234   2.229  51.213  1.00  0.00     0.081 C 
HETATM    2  C10 UNL     1      26.296   2.819  52.045  1.00  0.00     0.027 C 
HETATM    3  C11 UNL     1      27.612   2.204  52.349  1.00  0.00     0.031 C 
HETATM    4  C12 UNL     1      27.719   1.376  53.571  1.00  0.00     0.148 C 
HETATM    5  N2  UNL     1      27.539  -0.012  53.666  1.00  0.00    -0.180 NA
HETATM    6  C14 UNL     1      26.151  -0.531  53.464  1.00  0.00     0.032 C 
HETATM    7  C15 UNL     1      25.418  -0.666  54.756  1.00  0.00     0.034 C 
HETATM    8  C16 UNL     1      26.349  -1.929  52.871  1.00  0.00     0.034 C 
HETATM    9  C17 UNL     1      25.622   0.413  52.555  1.00  0.00     0.029 C 
HETATM   10  C18 UNL     1      24.553   0.954  51.807  1.00  0.00     0.027 C 
ENDROOT
BRANCH   1  11
HETATM   11  N1  UNL     1      24.227   3.220  51.020  1.00  0.00    -0.389 N 
HETATM   12  H9  UNL     1      23.828   3.898  51.712  1.00  0.00     0.159 HD
BRANCH  11  13
HETATM   13  C2  UNL     1      23.643   3.360  49.731  1.00  0.00    -0.003 C 
HETATM   14  C1  UNL     1      22.711   2.486  48.937  1.00  0.00     0.067 C 
HETATM   15  C3  UNL     1      23.983   4.486  49.094  1.00  0.00     0.002 C 
BRANCH  15  16
HETATM   16  C4  UNL     1      24.879   5.538  49.618  1.00  0.00     0.067 C 
BRANCH  16  17
HETATM   17  C5  UNL     1      26.288   5.320  49.136  1.00  0.00    -0.051 A 
HETATM   18  C6  UNL     1      27.283   4.449  48.919  1.00  0.00     0.031 A 
HETATM   19  C7  UNL     1      28.085   5.565  48.431  1.00  0.00     0.035 A 
HETATM   20 CL1  UNL     1      29.737   5.338  47.860  1.00  0.00    -0.084 Cl
HETATM   21  C8  UNL     1      27.105   6.430  48.644  1.00  0.00     0.031 A 
ENDBRANCH  16  17
ENDBRANCH  15  16
ENDBRANCH  11  13
ENDBRANCH   1  11
BRANCH   4  22
HETATM   22  C13 UNL     1      29.174   1.478  54.039  1.00  0.00     0.253 C 
HETATM   23  O1  UNL     1      29.304   2.291  54.965  1.00  0.00    -0.305 OA
ENDBRANCH   4  22
BRANCH   5  24
HETATM   24  O2  UNL     1      27.821  -0.328  54.953  1.00  0.00    -0.312 OA
HETATM   25  H17 UNL     1      27.042  -0.567  55.486  1.00  0.00     0.237 HD
ENDBRANCH   5  24
TORSDOF 6
ENDMDL
MODEL 2
REMARK VINA RESULT:      -7.5      3.867      6.238
REMARK  6 active torsions:
REMARK  status: ('A' for Active; 'I' for Inactive)
REMARK    1  A    between atoms: C2_2  and  N1_10 
REMARK    2  A    between atoms: C3_3  and  C4_4 
REMARK    3  A    between atoms: C4_4  and  C5_5 
REMARK    4  A    between atoms: N1_10  and  C9_11 
REMARK    5  A    between atoms: C12_14  and  C13_15 
REMARK    6  A    between atoms: N2_17  and  O2_18 
ROOT
HETATM    1  C9  UNL     1      24.177   1.704  51.801  1.00  0.00     0.081 C 
HETATM    2  C10 UNL     1      23.949   0.965  53.053  1.00  0.00     0.027 C 
HETATM    3  C11 UNL     1      23.174  -0.293  53.198  1.00  0.00     0.031 C 
HETATM    4  C12 UNL     1      21.732  -0.180  53.513  1.00  0.00     0.148 C 
HETATM    5  N2  UNL     1      20.671  -0.145  52.596  1.00  0.00    -0.180 NA
HETATM    6  C14 UNL     1      20.555   1.075  51.740  1.00  0.00     0.032 C 
HETATM    7  C15 UNL     1      19.648   2.093  52.347  1.00  0.00     0.034 C 
HETATM    8  C16 UNL     1      19.917   0.572  50.442  1.00  0.00     0.034 C 
HETATM    9  C17 UNL     1      21.907   1.462  51.608  1.00  0.00     0.029 C 
HETATM   10  C18 UNL     1      22.906   2.361  51.172  1.00  0.00     0.027 C 
ENDROOT
BRANCH   1  11
HETATM   11  N1  UNL     1      25.124   2.737  52.068  1.00  0.00    -0.389 N 
HETATM   12  H9  UNL     1      25.101   3.476  52.811  1.00  0.00     0.159 HD
BRANCH  11  13
HETATM   13  C2  UNL     1      26.282   2.833  51.248  1.00  0.00    -0.003 C 
HETATM   14  C1  UNL     1      26.479   3.228  49.810  1.00  0.00     0.067 C 
HETATM   15  C3  UNL     1      27.422   2.512  51.869  1.00  0.00     0.002 C 
BRANCH  15  16
HETATM   16  C4  UNL     1      27.547   2.087  53.280  1.00  0.00     0.067 C 
BRANCH  16  17
HETATM   17  C5  UNL     1      28.103   0.691  53.363  1.00  0.00    -0.051 A 
HETATM   18  C6  UNL     1      29.086  -0.107  53.801  1.00  0.00     0.031 A 
HETATM   19  C7  UNL     1      28.379  -1.228  53.192  1.00  0.00     0.035 A 
HETATM   20 CL1  UNL     1      29.007  -2.872  53.275  1.00  0.00    -0.084 Cl
HETATM   21  C8  UNL     1      27.405  -0.444  52.757  1.00  0.00     0.031 A 
ENDBRANCH  16  17
ENDBRANCH  15  16
ENDBRANCH  11  13
ENDBRANCH   1  11
BRANCH   4  22
HETATM   22  C13 UNL     1      21.358  -1.446  54.289  1.00  0.00     0.253 C 
HETATM   23  O1  UNL     1      22.088  -1.615  55.276  1.00  0.00    -0.305 OA
ENDBRANCH   4  22
BRANCH   5  24
HETATM   24  O2  UNL     1      19.543  -0.125  53.347  1.00  0.00    -0.312 OA
HETATM   25  H17 UNL     1      19.171   0.765  53.486  1.00  0.00     0.237 HD
ENDBRANCH   5  24
TORSDOF 6
ENDMDL
MODEL 3
REMARK VINA RESULT:      -7.3      1.956      3.203
REMARK  6 active torsions:
REMARK  status: ('A' for Active; 'I' for Inactive)
REMARK    1  A    between atoms: C2_2  and  N1_10 
REMARK    2  A    between atoms: C3_3  and  C4_4 
REMARK    3  A    between atoms: C4_4  and  C5_5 
REMARK    4  A    between atoms: N1_10  and  C9_11 
REMARK    5  A    between atoms: C12_14  and  C13_15 
REMARK    6  A    between atoms: N2_17  and  O2_18 
ROOT
HETATM    1  C9  UNL     1      25.138   2.665  51.308  1.00  0.00     0.081 C 
HETATM    2  C10 UNL     1      23.991   1.780  51.568  1.00  0.00     0.027 C 
HETATM    3  C11 UNL     1      23.567   1.265  52.894  1.00  0.00     0.031 C 
HETATM    4  C12 UNL     1      24.115  -0.038  53.334  1.00  0.00     0.148 C 
HETATM    5  N2  UNL     1      25.266  -0.248  54.108  1.00  0.00    -0.180 NA
HETATM    6  C14 UNL     1      26.580   0.060  53.465  1.00  0.00     0.032 C 
HETATM    7  C15 UNL     1      27.177  -1.145  52.819  1.00  0.00     0.034 C 
HETATM    8  C16 UNL     1      27.483   0.484  54.627  1.00  0.00     0.034 C 
HETATM    9  C17 UNL     1      26.231   1.114  52.591  1.00  0.00     0.029 C 
HETATM   10  C18 UNL     1      26.543   2.031  51.562  1.00  0.00     0.027 C 
ENDROOT
BRANCH   1  11
HETATM   11  N1  UNL     1      25.076   3.072  49.942  1.00  0.00    -0.389 N 
HETATM   12  H9  UNL     1      25.150   2.487  49.076  1.00  0.00     0.159 HD
BRANCH  11  13
HETATM   13  C2  UNL     1      24.890   4.450  49.646  1.00  0.00    -0.003 C 
HETATM   14  C1  UNL     1      23.701   5.364  49.763  1.00  0.00     0.067 C 
HETATM   15  C3  UNL     1      25.980   5.060  49.169  1.00  0.00     0.002 C 
BRANCH  15  16
HETATM   16  C4  UNL     1      27.297   4.426  48.944  1.00  0.00     0.067 C 
BRANCH  16  17
HETATM   17  C5  UNL     1      28.276   5.424  48.388  1.00  0.00    -0.051 A 
HETATM   18  C6  UNL     1      29.542   5.687  48.037  1.00  0.00     0.031 A 
HETATM   19  C7  UNL     1      29.104   7.022  47.647  1.00  0.00     0.035 A 
HETATM   20 CL1  UNL     1      30.229   8.210  46.993  1.00  0.00    -0.084 Cl
HETATM   21  C8  UNL     1      27.851   6.768  47.992  1.00  0.00     0.031 A 
ENDBRANCH  16  17
ENDBRANCH  15  16
ENDBRANCH  11  13
ENDBRANCH   1  11
BRANCH   4  22
HETATM   22  C13 UNL     1      23.066  -0.658  54.262  1.00  0.00     0.253 C 
HETATM   23  O1  UNL     1      22.299  -1.415  53.650  1.00  0.00    -0.305 OA
ENDBRANCH   4  22
BRANCH   5  24
HETATM   24  O2  UNL     1      25.316  -1.585  54.327  1.00  0.00    -0.312 OA
HETATM   25  H17 UNL     1      25.840  -2.078  53.670  1.00  0.00     0.237 HD
ENDBRANCH   5  24
TORSDOF 6
ENDMDL
MODEL 4
REMARK VINA RESULT:      -6.9      3.569      5.130
REMARK  6 active torsions:
REMARK  status: ('A' for Active; 'I' for Inactive)
REMARK    1  A    between atoms: C2_2  and  N1_10 
REMARK    2  A    between atoms: C3_3  and  C4_4 
REMARK    3  A    between atoms: C4_4  and  C5_5 
REMARK    4  A    between atoms: N1_10  and  C9_11 
REMARK    5  A    between atoms: C12_14  and  C13_15 
REMARK    6  A    between atoms: N2_17  and  O2_18 
ROOT
HETATM    1  C9  UNL     1      24.222   1.983  51.557  1.00  0.00     0.081 C 
HETATM    2  C10 UNL     1      25.292   2.785  52.173  1.00  0.00     0.027 C 
HETATM    3  C11 UNL     1      26.741   2.461  52.170  1.00  0.00     0.031 C 
HETATM    4  C12 UNL     1      27.273   1.676  53.306  1.00  0.00     0.148 C 
HETATM    5  N2  UNL     1      27.406   0.280  53.376  1.00  0.00    -0.180 NA
HETATM    6  C14 UNL     1      26.144  -0.518  53.446  1.00  0.00     0.032 C 
HETATM    7  C15 UNL     1      25.746  -0.802  54.856  1.00  0.00     0.034 C 
HETATM    8  C16 UNL     1      26.495  -1.844  52.766  1.00  0.00     0.034 C 
HETATM    9  C17 UNL     1      25.252   0.292  52.709  1.00  0.00     0.029 C 
HETATM   10  C18 UNL     1      23.960   0.595  52.224  1.00  0.00     0.027 C 
ENDROOT
BRANCH   1  11
HETATM   11  N1  UNL     1      23.015   2.741  51.620  1.00  0.00    -0.389 N 
HETATM   12  H9  UNL     1      22.680   3.384  52.377  1.00  0.00     0.159 HD
BRANCH  11  13
HETATM   13  C2  UNL     1      22.096   2.656  50.539  1.00  0.00    -0.003 C 
HETATM   14  C1  UNL     1      22.284   2.552  49.050  1.00  0.00     0.067 C 
HETATM   15  C3  UNL     1      20.811   2.671  50.909  1.00  0.00     0.002 C 
BRANCH  15  16
HETATM   16  C4  UNL     1      20.313   2.764  52.298  1.00  0.00     0.067 C 
BRANCH  16  17
HETATM   17  C5  UNL     1      20.490   1.451  53.012  1.00  0.00    -0.051 A 
HETATM   18  C6  UNL     1      20.868   0.818  54.131  1.00  0.00     0.031 A 
HETATM   19  C7  UNL     1      20.530  -0.439  53.473  1.00  0.00     0.035 A 
HETATM   20 CL1  UNL     1      20.728  -1.991  54.285  1.00  0.00    -0.084 Cl
HETATM   21  C8  UNL     1      20.156   0.182  52.365  1.00  0.00     0.031 A 
ENDBRANCH  16  17
ENDBRANCH  15  16
ENDBRANCH  11  13
ENDBRANCH   1  11
BRANCH   4  22
HETATM   22  C13 UNL     1      28.741   2.081  53.464  1.00  0.00     0.253 C 
HETATM   23  O1  UNL     1      28.968   2.567  54.581  1.00  0.00    -0.305 OA
ENDBRANCH   4  22
BRANCH   5  24
HETATM   24  O2  UNL     1      28.014   0.034  54.562  1.00  0.00    -0.312 OA
HETATM   25  H17 UNL     1      27.598  -0.674  55.085  1.00  0.00     0.237 HD
ENDBRANCH   5  24
TORSDOF 6
ENDMDL
MODEL 5
REMARK VINA RESULT:      -6.8      2.005      3.203
REMARK  6 active torsions:
REMARK  status: ('A' for Active; 'I' for Inactive)
REMARK    1  A    between atoms: C2_2  and  N1_10 
REMARK    2  A    between atoms: C3_3  and  C4_4 
REMARK    3  A    between atoms: C4_4  and  C5_5 
REMARK    4  A    between atoms: N1_10  and  C9_11 
REMARK    5  A    between atoms: C12_14  and  C13_15 
REMARK    6  A    between atoms: N2_17  and  O2_18 
ROOT
HETATM    1  C9  UNL     1      23.172   3.432  51.992  1.00  0.00     0.081 C 
HETATM    2  C10 UNL     1      22.379   2.192  51.987  1.00  0.00     0.027 C 
HETATM    3  C11 UNL     1      22.318   1.188  53.080  1.00  0.00     0.031 C 
HETATM    4  C12 UNL     1      23.275   0.060  53.032  1.00  0.00     0.148 C 
HETATM    5  N2  UNL     1      24.538   0.002  53.640  1.00  0.00    -0.180 NA
HETATM    6  C14 UNL     1      25.600   0.895  53.084  1.00  0.00     0.032 C 
HETATM    7  C15 UNL     1      26.417   0.203  52.046  1.00  0.00     0.034 C 
HETATM    8  C16 UNL     1      26.502   1.207  54.281  1.00  0.00     0.034 C 
HETATM    9  C17 UNL     1      24.839   1.996  52.631  1.00  0.00     0.029 C 
HETATM   10  C18 UNL     1      24.722   3.233  51.959  1.00  0.00     0.027 C 
ENDROOT
BRANCH   1  11
HETATM   11  N1  UNL     1      22.798   4.196  50.847  1.00  0.00    -0.389 N 
HETATM   12  H9  UNL     1      22.382   5.157  50.803  1.00  0.00     0.159 HD
BRANCH  11  13
HETATM   13  C2  UNL     1      22.988   3.631  49.556  1.00  0.00    -0.003 C 
HETATM   14  C1  UNL     1      22.396   2.428  48.875  1.00  0.00     0.067 C 
HETATM   15  C3  UNL     1      23.863   4.293  48.792  1.00  0.00     0.002 C 
BRANCH  15  16
HETATM   16  C4  UNL     1      24.605   5.511  49.184  1.00  0.00     0.067 C 
BRANCH  16  17
HETATM   17  C5  UNL     1      26.078   5.337  48.929  1.00  0.00    -0.051 A 
HETATM   18  C6  UNL     1      27.141   4.523  48.974  1.00  0.00     0.031 A 
HETATM   19  C7  UNL     1      27.939   5.621  48.439  1.00  0.00     0.035 A 
HETATM   20 CL1  UNL     1      29.666   5.444  48.131  1.00  0.00    -0.084 Cl
HETATM   21  C8  UNL     1      26.892   6.429  48.394  1.00  0.00     0.031 A 
ENDBRANCH  16  17
ENDBRANCH  15  16
ENDBRANCH  11  13
ENDBRANCH   1  11
BRANCH   4  22
HETATM   22  C13 UNL     1      22.595  -1.115  53.740  1.00  0.00     0.253 C 
HETATM   23  O1  UNL     1      22.556  -0.953  54.968  1.00  0.00    -0.305 OA
ENDBRANCH   4  22
BRANCH   5  24
HETATM   24  O2  UNL     1      25.001  -1.248  53.394  1.00  0.00    -0.312 OA
HETATM   25  H17 UNL     1      24.312  -1.887  53.140  1.00  0.00     0.237 HD
ENDBRANCH   5  24
TORSDOF 6
ENDMDL
MODEL 6
REMARK VINA RESULT:      -6.8      5.567      8.599
REMARK  6 active torsions:
REMARK  status: ('A' for Active; 'I' for Inactive)
REMARK    1  A    between atoms: C2_2  and  N1_10 
REMARK    2  A    between atoms: C3_3  and  C4_4 
REMARK    3  A    between atoms: C4_4  and  C5_5 
REMARK    4  A    between atoms: N1_10  and  C9_11 
REMARK    5  A    between atoms: C12_14  and  C13_15 
REMARK    6  A    between atoms: N2_17  and  O2_18 
ROOT
HETATM    1  C9  UNL     1      30.541   7.519  48.297  1.00  0.00     0.081 C 
HETATM    2  C10 UNL     1      31.712   7.264  49.151  1.00  0.00     0.027 C 
HETATM    3  C11 UNL     1      33.122   7.593  48.823  1.00  0.00     0.031 C 
HETATM    4  C12 UNL     1      33.933   6.554  48.150  1.00  0.00     0.148 C 
HETATM    5  N2  UNL     1      34.108   6.386  46.768  1.00  0.00    -0.180 NA
HETATM    6  C14 UNL     1      32.919   5.932  45.984  1.00  0.00     0.032 C 
HETATM    7  C15 UNL     1      32.885   4.448  45.840  1.00  0.00     0.034 C 
HETATM    8  C16 UNL     1      33.118   6.549  44.597  1.00  0.00     0.034 C 
HETATM    9  C17 UNL     1      31.856   6.500  46.722  1.00  0.00     0.029 C 
HETATM   10  C18 UNL     1      30.479   6.678  46.981  1.00  0.00     0.027 C 
ENDROOT
BRANCH   1  11
HETATM   11  N1  UNL     1      29.371   7.232  49.062  1.00  0.00    -0.389 N 
HETATM   12  H9  UNL     1      29.297   6.881  50.046  1.00  0.00     0.159 HD
BRANCH  11  13
HETATM   13  C2  UNL     1      28.096   7.428  48.463  1.00  0.00    -0.003 C 
HETATM   14  C1  UNL     1      27.372   8.660  47.995  1.00  0.00     0.067 C 
HETATM   15  C3  UNL     1      27.400   6.302  48.275  1.00  0.00     0.002 C 
BRANCH  15  16
HETATM   16  C4  UNL     1      27.848   4.939  48.632  1.00  0.00     0.067 C 
BRANCH  16  17
HETATM   17  C5  UNL     1      26.720   4.156  49.247  1.00  0.00    -0.051 A 
HETATM   18  C6  UNL     1      26.342   3.054  49.907  1.00  0.00     0.031 A 
HETATM   19  C7  UNL     1      24.975   3.561  49.868  1.00  0.00     0.035 A 
HETATM   20 CL1  UNL     1      23.635   2.665  50.581  1.00  0.00    -0.084 Cl
HETATM   21  C8  UNL     1      25.344   4.652  49.215  1.00  0.00     0.031 A 
ENDBRANCH  16  17
ENDBRANCH  15  16
ENDBRANCH  11  13
ENDBRANCH   1  11
BRANCH   4  22
HETATM   22  C13 UNL     1      35.386   6.802  48.564  1.00  0.00     0.253 C 
HETATM   23  O1  UNL     1      35.821   5.894  49.288  1.00  0.00    -0.305 OA
ENDBRANCH   4  22
BRANCH   5  24
HETATM   24  O2  UNL     1      34.994   5.369  46.635  1.00  0.00    -0.312 OA
HETATM   25  H17 UNL     1      34.585   4.486  46.595  1.00  0.00     0.237 HD
ENDBRANCH   5  24
TORSDOF 6
ENDMDL
MODEL 7
REMARK VINA RESULT:      -6.8      3.307      4.976
REMARK  6 active torsions:
REMARK  status: ('A' for Active; 'I' for Inactive)
REMARK    1  A    between atoms: C2_2  and  N1_10 
REMARK    2  A    between atoms: C3_3  and  C4_4 
REMARK    3  A    between atoms: C4_4  and  C5_5 
REMARK    4  A    between atoms: N1_10  and  C9_11 
REMARK    5  A    between atoms: C12_14  and  C13_15 
REMARK    6  A    between atoms: N2_17  and  O2_18 
ROOT
HETATM    1  C9  UNL     1      25.078   2.764  51.172  1.00  0.00     0.081 C 
HETATM    2  C10 UNL     1      23.995   1.833  51.529  1.00  0.00     0.027 C 
HETATM    3  C11 UNL     1      23.690   1.326  52.891  1.00  0.00     0.031 C 
HETATM    4  C12 UNL     1      24.326   0.058  53.312  1.00  0.00     0.148 C 
HETATM    5  N2  UNL     1      25.539  -0.086  54.004  1.00  0.00    -0.180 NA
HETATM    6  C14 UNL     1      26.788   0.268  53.263  1.00  0.00     0.032 C 
HETATM    7  C15 UNL     1      27.392  -0.922  52.596  1.00  0.00     0.034 C 
HETATM    8  C16 UNL     1      27.751   0.755  54.350  1.00  0.00     0.034 C 
HETATM    9  C17 UNL     1      26.329   1.287  52.399  1.00  0.00     0.029 C 
HETATM   10  C18 UNL     1      26.525   2.197  51.336  1.00  0.00     0.027 C 
ENDROOT
BRANCH   1  11
HETATM   11  N1  UNL     1      24.900   3.140  49.808  1.00  0.00    -0.389 N 
HETATM   12  H9  UNL     1      25.301   2.700  48.945  1.00  0.00     0.159 HD
BRANCH  11  13
HETATM   13  C2  UNL     1      24.078   4.261  49.509  1.00  0.00    -0.003 C 
HETATM   14  C1  UNL     1      24.094   5.689  49.980  1.00  0.00     0.067 C 
HETATM   15  C3  UNL     1      23.096   4.003  48.638  1.00  0.00     0.002 C 
BRANCH  15  16
HETATM   16  C4  UNL     1      22.827   2.696  48.001  1.00  0.00     0.067 C 
BRANCH  16  17
HETATM   17  C5  UNL     1      21.785   1.936  48.775  1.00  0.00    -0.051 A 
HETATM   18  C6  UNL     1      21.327   0.743  49.178  1.00  0.00     0.031 A 
HETATM   19  C7  UNL     1      20.253   1.446  49.870  1.00  0.00     0.035 A 
HETATM   20 CL1  UNL     1      19.020   0.580  50.784  1.00  0.00    -0.084 Cl
HETATM   21  C8  UNL     1      20.701   2.627  49.474  1.00  0.00     0.031 A 
ENDBRANCH  16  17
ENDBRANCH  15  16
ENDBRANCH  11  13
ENDBRANCH   1  11
BRANCH   4  22
HETATM   22  C13 UNL     1      23.376  -0.590  54.323  1.00  0.00     0.253 C 
HETATM   23  O1  UNL     1      22.494  -1.257  53.764  1.00  0.00    -0.305 OA
ENDBRANCH   4  22
BRANCH   5  24
HETATM   24  O2  UNL     1      25.665  -1.414  54.241  1.00  0.00    -0.312 OA
HETATM   25  H17 UNL     1      25.386  -1.981  53.500  1.00  0.00     0.237 HD
ENDBRANCH   5  24
TORSDOF 6
ENDMDL
MODEL 8
REMARK VINA RESULT:      -6.8      5.536      7.513
REMARK  6 active torsions:
REMARK  status: ('A' for Active; 'I' for Inactive)
REMARK    1  A    between atoms: C2_2  and  N1_10 
REMARK    2  A    between atoms: C3_3  and  C4_4 
REMARK    3  A    between atoms: C4_4  and  C5_5 
REMARK    4  A    between atoms: N1_10  and  C9_11 
REMARK    5  A    between atoms: C12_14  and  C13_15 
REMARK    6  A    between atoms: N2_17  and  O2_18 
ROOT
HETATM    1  C9  UNL     1      22.437   1.566  51.583  1.00  0.00     0.081 C 
HETATM    2  C10 UNL     1      23.005   2.832  51.091  1.00  0.00     0.027 C 
HETATM    3  C11 UNL     1      24.221   2.977  50.253  1.00  0.00     0.031 C 
HETATM    4  C12 UNL     1      25.515   3.172  50.945  1.00  0.00     0.148 C 
HETATM    5  N2  UNL     1      26.426   2.173  51.323  1.00  0.00    -0.180 NA
HETATM    6  C14 UNL     1      26.003   1.252  52.422  1.00  0.00     0.032 C 
HETATM    7  C15 UNL     1      26.463   1.734  53.756  1.00  0.00     0.034 C 
HETATM    8  C16 UNL     1      26.719  -0.066  52.110  1.00  0.00     0.034 C 
HETATM    9  C17 UNL     1      24.603   1.207  52.235  1.00  0.00     0.029 C 
HETATM   10  C18 UNL     1      23.308   0.807  52.635  1.00  0.00     0.027 C 
ENDROOT
BRANCH   1  11
HETATM   11  N1  UNL     1      21.174   1.855  52.179  1.00  0.00    -0.389 N 
HETATM   12  H9  UNL     1      20.965   2.198  53.147  1.00  0.00     0.159 HD
BRANCH  11  13
HETATM   13  C2  UNL     1      19.994   1.673  51.406  1.00  0.00    -0.003 C 
HETATM   14  C1  UNL     1      19.460   2.372  50.186  1.00  0.00     0.067 C 
HETATM   15  C3  UNL     1      19.199   0.690  51.842  1.00  0.00     0.002 C 
BRANCH  15  16
HETATM   16  C4  UNL     1      19.456  -0.173  53.015  1.00  0.00     0.067 C 
BRANCH  16  17
HETATM   17  C5  UNL     1      18.408  -1.248  53.119  1.00  0.00    -0.051 A 
HETATM   18  C6  UNL     1      18.036  -2.410  53.672  1.00  0.00     0.031 A 
HETATM   19  C7  UNL     1      16.800  -2.322  52.903  1.00  0.00     0.035 A 
HETATM   20 CL1  UNL     1      15.555  -3.565  53.007  1.00  0.00    -0.084 Cl
HETATM   21  C8  UNL     1      17.162  -1.173  52.354  1.00  0.00     0.031 A 
ENDBRANCH  16  17
ENDBRANCH  15  16
ENDBRANCH  11  13
ENDBRANCH   1  11
BRANCH   4  22
HETATM   22  C13 UNL     1      26.401   3.978  49.991  1.00  0.00     0.253 C 
HETATM   23  O1  UNL     1      27.000   3.247  49.190  1.00  0.00    -0.305 OA
ENDBRANCH   4  22
BRANCH   5  24
HETATM   24  O2  UNL     1      27.491   2.832  51.841  1.00  0.00    -0.312 OA
HETATM   25  H17 UNL     1      27.273   3.423  52.584  1.00  0.00     0.237 HD
ENDBRANCH   5  24
TORSDOF 6
ENDMDL
MODEL 9
REMARK VINA RESULT:      -6.8      2.558      4.056
REMARK  6 active torsions:
REMARK  status: ('A' for Active; 'I' for Inactive)
REMARK    1  A    between atoms: C2_2  and  N1_10 
REMARK    2  A    between atoms: C3_3  and  C4_4 
REMARK    3  A    between atoms: C4_4  and  C5_5 
REMARK    4  A    between atoms: N1_10  and  C9_11 
REMARK    5  A    between atoms: C12_14  and  C13_15 
REMARK    6  A    between atoms: N2_17  and  O2_18 
ROOT
HETATM    1  C9  UNL     1      22.463   1.429  51.400  1.00  0.00     0.081 C 
HETATM    2  C10 UNL     1      22.058   0.236  52.161  1.00  0.00     0.027 C 
HETATM    3  C11 UNL     1      22.290   0.001  53.608  1.00  0.00     0.031 C 
HETATM    4  C12 UNL     1      23.530  -0.705  54.001  1.00  0.00     0.148 C 
HETATM    5  N2  UNL     1      24.759  -0.121  54.344  1.00  0.00    -0.180 NA
HETATM    6  C14 UNL     1      25.519   0.553  53.248  1.00  0.00     0.032 C 
HETATM    7  C15 UNL     1      26.497  -0.369  52.603  1.00  0.00     0.034 C 
HETATM    8  C16 UNL     1      26.297   1.668  53.953  1.00  0.00     0.034 C 
HETATM    9  C17 UNL     1      24.473   1.015  52.417  1.00  0.00     0.029 C 
HETATM   10  C18 UNL     1      24.005   1.622  51.231  1.00  0.00     0.027 C 
ENDROOT
BRANCH   1  11
HETATM   11  N1  UNL     1      21.882   1.337  50.100  1.00  0.00    -0.389 N 
HETATM   12  H9  UNL     1      22.058   0.628  49.349  1.00  0.00     0.159 HD
BRANCH  11  13
HETATM   13  C2  UNL     1      20.926   2.314  49.707  1.00  0.00    -0.003 C 
HETATM   14  C1  UNL     1      19.495   2.553  50.102  1.00  0.00     0.067 C 
HETATM   15  C3  UNL     1      21.381   3.195  48.809  1.00  0.00     0.002 C 
BRANCH  15  16
HETATM   16  C4  UNL     1      22.742   3.218  48.233  1.00  0.00     0.067 C 
BRANCH  16  17
HETATM   17  C5  UNL     1      23.575   4.287  48.886  1.00  0.00    -0.051 A 
HETATM   18  C6  UNL     1      24.799   4.787  49.104  1.00  0.00     0.031 A 
HETATM   19  C7  UNL     1      24.172   5.839  49.897  1.00  0.00     0.035 A 
HETATM   20 CL1  UNL     1      25.124   7.103  50.673  1.00  0.00    -0.084 Cl
HETATM   21  C8  UNL     1      22.961   5.349  49.684  1.00  0.00     0.031 A 
ENDBRANCH  16  17
ENDBRANCH  15  16
ENDBRANCH  11  13
ENDBRANCH   1  11
BRANCH   4  22
HETATM   22  C13 UNL     1      23.218  -1.434  55.311  1.00  0.00     0.253 C 
HETATM   23  O1  UNL     1      22.062  -1.880  55.326  1.00  0.00    -0.305 OA
ENDBRANCH   4  22
BRANCH   5  24
HETATM   24  O2  UNL     1      25.560  -1.151  54.710  1.00  0.00    -0.312 OA
HETATM   25  H17 UNL     1      26.209  -0.927  55.401  1.00  0.00     0.237 HD
ENDBRANCH   5  24
TORSDOF 6
ENDMDL
