MODEL 1
REMARK VINA RESULT:      -8.7      0.000      0.000
REMARK  7 active torsions:
REMARK  status: ('A' for Active; 'I' for Inactive)
REMARK    1  A    between atoms: O1_2  and  C2_3 
REMARK    2  A    between atoms: C6_9  and  N3_10 
REMARK    3  A    between atoms: N3_10  and  C7_11 
REMARK    4  A    between atoms: C15_21  and  O2_22 
REMARK    5  A    between atoms: O2_22  and  C16_23 
REMARK    6  A    between atoms: C16_23  and  C17_24 
REMARK    7  A    between atoms: C17_24  and  C18_25 
ROOT
HETATM    1  C2  UNL     1      22.461  -0.013  52.851  1.00  0.00     0.103 A 
HETATM    2  C3  UNL     1      21.404   0.535  52.129  1.00  0.00     0.072 A 
HETATM    3  C4  UNL     1      21.589   1.802  51.632  1.00  0.00     0.075 A 
HETATM    4  N1  UNL     1      20.565   2.327  50.939  1.00  0.00    -0.241 NA
HETATM    5  C5  UNL     1      20.599   3.559  50.394  1.00  0.00     0.236 A 
HETATM    6  N2  UNL     1      21.728   4.229  50.592  1.00  0.00    -0.224 NA
HETATM    7  C6  UNL     1      22.818   3.839  51.254  1.00  0.00     0.142 A 
HETATM    8  C13 UNL     1      22.721   2.576  51.785  1.00  0.00     0.042 A 
HETATM    9  C14 UNL     1      23.708   1.942  52.514  1.00  0.00     0.057 A 
HETATM   10  C15 UNL     1      23.641   0.676  53.062  1.00  0.00     0.103 A 
ENDROOT
BRANCH   7  11
HETATM   11  N3  UNL     1      24.003   4.581  51.454  1.00  0.00    -0.340 N 
HETATM   12  H6  UNL     1      24.186   5.091  52.316  1.00  0.00     0.167 HD
BRANCH  11  13
HETATM   13  C7  UNL     1      25.080   4.737  50.554  1.00  0.00     0.035 A 
HETATM   14  C8  UNL     1      25.903   3.701  50.196  1.00  0.00     0.032 A 
HETATM   15  C9  UNL     1      26.968   3.819  49.321  1.00  0.00     0.046 A 
HETATM   16  C10 UNL     1      27.258   5.043  48.749  1.00  0.00     0.138 A 
HETATM   17  F1  UNL     1      28.282   5.236  47.888  1.00  0.00    -0.204 F 
HETATM   18  C11 UNL     1      26.461   6.105  49.081  1.00  0.00     0.074 A 
HETATM   19 CL1  UNL     1      26.783   7.665  48.381  1.00  0.00    -0.081 Cl
HETATM   20  C12 UNL     1      25.423   5.923  49.951  1.00  0.00     0.056 A 
ENDBRANCH  11  13
ENDBRANCH   7  11
BRANCH  10  21
HETATM   21  O2  UNL     1      24.591   0.126  53.739  1.00  0.00    -0.348 OA
BRANCH  21  22
HETATM   22  C16 UNL     1      25.246  -0.526  54.673  1.00  0.00     0.178 C 
BRANCH  22  23
HETATM   23  C17 UNL     1      26.571   0.196  54.918  1.00  0.00     0.064 C 
BRANCH  23  24
HETATM   24  C18 UNL     1      27.671  -0.209  54.000  1.00  0.00     0.246 C 
HETATM   25  C19 UNL     1      29.011   0.283  54.555  1.00  0.00     0.203 C 
HETATM   26  O3  UNL     1      28.784   1.622  54.906  1.00  0.00    -0.387 OA
HETATM   27  C20 UNL     1      28.664   2.384  53.762  1.00  0.00     0.197 C 
HETATM   28  C21 UNL     1      27.499   1.949  52.947  1.00  0.00     0.296 C 
HETATM   29  N4  UNL     1      27.397   0.520  52.745  1.00  0.00     0.092 N 
HETATM   30  H22 UNL     1      26.385   0.318  52.546  1.00  0.00     0.316 HD
ENDBRANCH  23  24
ENDBRANCH  22  23
ENDBRANCH  21  22
ENDBRANCH  10  21
BRANCH   1  31
HETATM   31  O1  UNL     1      22.296  -1.298  53.365  1.00  0.00    -0.353 OA
HETATM   32  C1  UNL     1      21.468  -1.523  54.509  1.00  0.00     0.210 C 
ENDBRANCH   1  31
TORSDOF 7
ENDMDL
MODEL 2
REMARK VINA RESULT:      -8.3      3.343      6.165
REMARK  7 active torsions:
REMARK  status: ('A' for Active; 'I' for Inactive)
REMARK    1  A    between atoms: O1_2  and  C2_3 
REMARK    2  A    between atoms: C6_9  and  N3_10 
REMARK    3  A    between atoms: N3_10  and  C7_11 
REMARK    4  A    between atoms: C15_21  and  O2_22 
REMARK    5  A    between atoms: O2_22  and  C16_23 
REMARK    6  A    between atoms: C16_23  and  C17_24 
REMARK    7  A    between atoms: C17_24  and  C18_25 
ROOT
HETATM    1  C2  UNL     1      20.061  -0.178  52.449  1.00  0.00     0.103 A 
HETATM    2  C3  UNL     1      20.351  -0.763  53.680  1.00  0.00     0.072 A 
HETATM    3  C4  UNL     1      21.676  -0.816  54.039  1.00  0.00     0.075 A 
HETATM    4  N1  UNL     1      21.952  -1.383  55.225  1.00  0.00    -0.241 NA
HETATM    5  C5  UNL     1      23.203  -1.508  55.709  1.00  0.00     0.236 A 
HETATM    6  N2  UNL     1      24.159  -1.027  54.923  1.00  0.00    -0.224 NA
HETATM    7  C6  UNL     1      24.036  -0.443  53.730  1.00  0.00     0.142 A 
HETATM    8  C13 UNL     1      22.738  -0.346  53.293  1.00  0.00     0.042 A 
HETATM    9  C14 UNL     1      22.343   0.214  52.093  1.00  0.00     0.057 A 
HETATM   10  C15 UNL     1      21.049   0.325  51.624  1.00  0.00     0.103 A 
ENDROOT
BRANCH   7  11
HETATM   11  N3  UNL     1      25.077   0.051  52.914  1.00  0.00    -0.340 N 
HETATM   12  H6  UNL     1      24.897   0.576  52.060  1.00  0.00     0.167 HD
BRANCH  11  13
HETATM   13  C7  UNL     1      26.468  -0.084  53.122  1.00  0.00     0.035 A 
HETATM   14  C8  UNL     1      27.146  -1.247  52.868  1.00  0.00     0.032 A 
HETATM   15  C9  UNL     1      28.505  -1.415  53.064  1.00  0.00     0.046 A 
HETATM   16  C10 UNL     1      29.267  -0.367  53.546  1.00  0.00     0.138 A 
HETATM   17  F1  UNL     1      30.598  -0.455  53.764  1.00  0.00    -0.204 F 
HETATM   18  C11 UNL     1      28.627   0.813  53.814  1.00  0.00     0.074 A 
HETATM   19 CL1  UNL     1      29.545   2.163  54.417  1.00  0.00    -0.081 Cl
HETATM   20  C12 UNL     1      27.282   0.915  53.598  1.00  0.00     0.056 A 
ENDBRANCH  11  13
ENDBRANCH   7  11
BRANCH  10  21
HETATM   21  O2  UNL     1      20.729   0.856  50.494  1.00  0.00    -0.348 OA
BRANCH  21  22
HETATM   22  C16 UNL     1      20.800   1.339  49.274  1.00  0.00     0.178 C 
BRANCH  22  23
HETATM   23  C17 UNL     1      22.123   2.094  49.135  1.00  0.00     0.064 C 
BRANCH  23  24
HETATM   24  C18 UNL     1      21.981   3.573  49.055  1.00  0.00     0.246 C 
HETATM   25  C19 UNL     1      23.324   4.198  48.664  1.00  0.00     0.203 C 
HETATM   26  O3  UNL     1      24.264   3.581  49.503  1.00  0.00    -0.387 OA
HETATM   27  C20 UNL     1      24.108   4.048  50.792  1.00  0.00     0.197 C 
HETATM   28  C21 UNL     1      22.764   3.707  51.327  1.00  0.00     0.296 C 
HETATM   29  N4  UNL     1      21.662   3.993  50.434  1.00  0.00     0.092 N 
HETATM   30  H22 UNL     1      20.873   3.360  50.720  1.00  0.00     0.316 HD
ENDBRANCH  23  24
ENDBRANCH  22  23
ENDBRANCH  21  22
ENDBRANCH  10  21
BRANCH   1  31
HETATM   31  O1  UNL     1      18.722  -0.114  52.064  1.00  0.00    -0.353 OA
HETATM   32  C1  UNL     1      17.733  -0.897  52.737  1.00  0.00     0.210 C 
ENDBRANCH   1  31
TORSDOF 7
ENDMDL
MODEL 3
REMARK VINA RESULT:      -8.3      3.474      5.927
REMARK  7 active torsions:
REMARK  status: ('A' for Active; 'I' for Inactive)
REMARK    1  A    between atoms: O1_2  and  C2_3 
REMARK    2  A    between atoms: C6_9  and  N3_10 
REMARK    3  A    between atoms: N3_10  and  C7_11 
REMARK    4  A    between atoms: C15_21  and  O2_22 
REMARK    5  A    between atoms: O2_22  and  C16_23 
REMARK    6  A    between atoms: C16_23  and  C17_24 
REMARK    7  A    between atoms: C17_24  and  C18_25 
ROOT
HETATM    1  C2  UNL     1      20.561   2.662  52.324  1.00  0.00     0.103 A 
HETATM    2  C3  UNL     1      20.456   1.637  53.262  1.00  0.00     0.072 A 
HETATM    3  C4  UNL     1      21.573   0.861  53.454  1.00  0.00     0.075 A 
HETATM    4  N1  UNL     1      21.467  -0.127  54.357  1.00  0.00    -0.241 NA
HETATM    5  C5  UNL     1      22.476  -0.970  54.650  1.00  0.00     0.236 A 
HETATM    6  N2  UNL     1      23.599  -0.756  53.976  1.00  0.00    -0.224 NA
HETATM    7  C6  UNL     1      23.850   0.179  53.057  1.00  0.00     0.142 A 
HETATM    8  C13 UNL     1      22.782   1.004  52.803  1.00  0.00     0.042 A 
HETATM    9  C14 UNL     1      22.782   2.047  51.896  1.00  0.00     0.057 A 
HETATM   10  C15 UNL     1      21.727   2.893  51.617  1.00  0.00     0.103 A 
ENDROOT
BRANCH   7  11
HETATM   11  N3  UNL     1      25.056   0.374  52.350  1.00  0.00    -0.340 N 
HETATM   12  H6  UNL     1      25.081   0.794  51.422  1.00  0.00     0.167 HD
BRANCH  11  13
HETATM   13  C7  UNL     1      26.363   0.047  52.775  1.00  0.00     0.035 A 
HETATM   14  C8  UNL     1      26.890  -1.211  52.647  1.00  0.00     0.032 A 
HETATM   15  C9  UNL     1      28.163  -1.566  53.057  1.00  0.00     0.046 A 
HETATM   16  C10 UNL     1      28.990  -0.623  53.637  1.00  0.00     0.138 A 
HETATM   17  F1  UNL     1      30.244  -0.895  54.062  1.00  0.00    -0.204 F 
HETATM   18  C11 UNL     1      28.501   0.647  53.783  1.00  0.00     0.074 A 
HETATM   19 CL1  UNL     1      29.507   1.871  54.503  1.00  0.00    -0.081 Cl
HETATM   20  C12 UNL     1      27.234   0.935  53.358  1.00  0.00     0.056 A 
ENDBRANCH  11  13
ENDBRANCH   7  11
BRANCH  10  21
HETATM   21  O2  UNL     1      21.774   3.854  50.758  1.00  0.00    -0.348 OA
BRANCH  21  22
HETATM   22  C16 UNL     1      22.187   4.883  50.054  1.00  0.00     0.178 C 
BRANCH  22  23
HETATM   23  C17 UNL     1      23.648   4.643  49.670  1.00  0.00     0.064 C 
BRANCH  23  24
HETATM   24  C18 UNL     1      24.636   5.149  50.662  1.00  0.00     0.246 C 
HETATM   25  C19 UNL     1      25.483   6.256  50.024  1.00  0.00     0.203 C 
HETATM   26  O3  UNL     1      25.870   5.739  48.779  1.00  0.00    -0.387 OA
HETATM   27  C20 UNL     1      26.810   4.746  48.965  1.00  0.00     0.197 C 
HETATM   28  C21 UNL     1      26.246   3.613  49.745  1.00  0.00     0.296 C 
HETATM   29  N4  UNL     1      25.516   3.995  50.934  1.00  0.00     0.092 N 
HETATM   30  H22 UNL     1      24.852   3.208  51.143  1.00  0.00     0.316 HD
ENDBRANCH  23  24
ENDBRANCH  22  23
ENDBRANCH  21  22
ENDBRANCH  10  21
BRANCH   1  31
HETATM   31  O1  UNL     1      19.440   3.462  52.113  1.00  0.00    -0.353 OA
HETATM   32  C1  UNL     1      18.317   2.963  51.382  1.00  0.00     0.210 C 
ENDBRANCH   1  31
TORSDOF 7
ENDMDL
MODEL 4
REMARK VINA RESULT:      -8.2      1.329      1.845
REMARK  7 active torsions:
REMARK  status: ('A' for Active; 'I' for Inactive)
REMARK    1  A    between atoms: O1_2  and  C2_3 
REMARK    2  A    between atoms: C6_9  and  N3_10 
REMARK    3  A    between atoms: N3_10  and  C7_11 
REMARK    4  A    between atoms: C15_21  and  O2_22 
REMARK    5  A    between atoms: O2_22  and  C16_23 
REMARK    6  A    between atoms: C16_23  and  C17_24 
REMARK    7  A    between atoms: C17_24  and  C18_25 
ROOT
HETATM    1  C2  UNL     1      22.109   0.056  52.874  1.00  0.00     0.103 A 
HETATM    2  C3  UNL     1      20.936   0.722  52.524  1.00  0.00     0.072 A 
HETATM    3  C4  UNL     1      21.056   2.052  52.203  1.00  0.00     0.075 A 
HETATM    4  N1  UNL     1      19.922   2.691  51.870  1.00  0.00    -0.241 NA
HETATM    5  C5  UNL     1      19.882   3.994  51.534  1.00  0.00     0.236 A 
HETATM    6  N2  UNL     1      21.055   4.615  51.555  1.00  0.00    -0.224 NA
HETATM    7  C6  UNL     1      22.253   4.115  51.864  1.00  0.00     0.142 A 
HETATM    8  C13 UNL     1      22.226   2.783  52.198  1.00  0.00     0.042 A 
HETATM    9  C14 UNL     1      23.328   2.032  52.557  1.00  0.00     0.057 A 
HETATM   10  C15 UNL     1      23.335   0.694  52.899  1.00  0.00     0.103 A 
ENDROOT
BRANCH   7  11
HETATM   11  N3  UNL     1      23.483   4.807  51.886  1.00  0.00    -0.340 N 
HETATM   12  H6  UNL     1      24.011   4.952  52.745  1.00  0.00     0.167 HD
BRANCH  11  13
HETATM   13  C7  UNL     1      24.164   5.382  50.790  1.00  0.00     0.035 A 
HETATM   14  C8  UNL     1      23.708   6.499  50.138  1.00  0.00     0.032 A 
HETATM   15  C9  UNL     1      24.347   7.085  49.061  1.00  0.00     0.046 A 
HETATM   16  C10 UNL     1      25.523   6.544  48.577  1.00  0.00     0.138 A 
HETATM   17  F1  UNL     1      26.202   7.060  47.528  1.00  0.00    -0.204 F 
HETATM   18  C11 UNL     1      26.012   5.427  49.200  1.00  0.00     0.074 A 
HETATM   19 CL1  UNL     1      27.493   4.712  48.630  1.00  0.00    -0.081 Cl
HETATM   20  C12 UNL     1      25.334   4.895  50.260  1.00  0.00     0.056 A 
ENDBRANCH  11  13
ENDBRANCH   7  11
BRANCH  10  21
HETATM   21  O2  UNL     1      24.392   0.034  53.230  1.00  0.00    -0.348 OA
BRANCH  21  22
HETATM   22  C16 UNL     1      25.519  -0.638  53.164  1.00  0.00     0.178 C 
BRANCH  22  23
HETATM   23  C17 UNL     1      26.629   0.328  52.749  1.00  0.00     0.064 C 
BRANCH  23  24
HETATM   24  C18 UNL     1      26.812   1.485  53.668  1.00  0.00     0.246 C 
HETATM   25  C19 UNL     1      28.035   2.298  53.232  1.00  0.00     0.203 C 
HETATM   26  O3  UNL     1      29.042   1.346  53.018  1.00  0.00    -0.387 OA
HETATM   27  C20 UNL     1      29.465   0.843  54.232  1.00  0.00     0.197 C 
HETATM   28  C21 UNL     1      28.358   0.147  54.939  1.00  0.00     0.296 C 
HETATM   29  N4  UNL     1      27.108   0.876  54.981  1.00  0.00     0.092 N 
HETATM   30  H22 UNL     1      26.350   0.161  55.110  1.00  0.00     0.316 HD
ENDBRANCH  23  24
ENDBRANCH  22  23
ENDBRANCH  21  22
ENDBRANCH  10  21
BRANCH   1  31
HETATM   31  O1  UNL     1      22.012  -1.295  53.203  1.00  0.00    -0.353 OA
HETATM   32  C1  UNL     1      21.267  -1.712  54.351  1.00  0.00     0.210 C 
ENDBRANCH   1  31
TORSDOF 7
ENDMDL
MODEL 5
REMARK VINA RESULT:      -7.8      3.897      6.612
REMARK  7 active torsions:
REMARK  status: ('A' for Active; 'I' for Inactive)
REMARK    1  A    between atoms: O1_2  and  C2_3 
REMARK    2  A    between atoms: C6_9  and  N3_10 
REMARK    3  A    between atoms: N3_10  and  C7_11 
REMARK    4  A    between atoms: C15_21  and  O2_22 
REMARK    5  A    between atoms: O2_22  and  C16_23 
REMARK    6  A    between atoms: C16_23  and  C17_24 
REMARK    7  A    between atoms: C17_24  and  C18_25 
ROOT
HETATM    1  C2  UNL     1      23.023   2.900  48.995  1.00  0.00     0.103 A 
HETATM    2  C3  UNL     1      22.014   2.022  49.385  1.00  0.00     0.072 A 
HETATM    3  C4  UNL     1      22.180   1.392  50.595  1.00  0.00     0.075 A 
HETATM    4  N1  UNL     1      21.206   0.545  50.966  1.00  0.00    -0.241 NA
HETATM    5  C5  UNL     1      21.231  -0.146  52.122  1.00  0.00     0.236 A 
HETATM    6  N2  UNL     1      22.298   0.070  52.882  1.00  0.00    -0.224 NA
HETATM    7  C6  UNL     1      23.334   0.876  52.645  1.00  0.00     0.142 A 
HETATM    8  C13 UNL     1      23.250   1.550  51.451  1.00  0.00     0.042 A 
HETATM    9  C14 UNL     1      24.192   2.440  50.973  1.00  0.00     0.057 A 
HETATM   10  C15 UNL     1      24.138   3.132  49.779  1.00  0.00     0.103 A 
ENDROOT
BRANCH   7  11
HETATM   11  N3  UNL     1      24.461   1.076  53.472  1.00  0.00    -0.340 N 
HETATM   12  H6  UNL     1      24.459   1.740  54.245  1.00  0.00     0.167 HD
BRANCH  11  13
HETATM   13  C7  UNL     1      25.716   0.432  53.384  1.00  0.00     0.035 A 
HETATM   14  C8  UNL     1      25.866  -0.831  52.873  1.00  0.00     0.032 A 
HETATM   15  C9  UNL     1      27.077  -1.492  52.776  1.00  0.00     0.046 A 
HETATM   16  C10 UNL     1      28.236  -0.877  53.211  1.00  0.00     0.138 A 
HETATM   17  F1  UNL     1      29.453  -1.460  53.150  1.00  0.00    -0.204 F 
HETATM   18  C11 UNL     1      28.129   0.385  53.729  1.00  0.00     0.074 A 
HETATM   19 CL1  UNL     1      29.561   1.203  54.285  1.00  0.00    -0.081 Cl
HETATM   20  C12 UNL     1      26.903   0.985  53.797  1.00  0.00     0.056 A 
ENDBRANCH  11  13
ENDBRANCH   7  11
BRANCH  10  21
HETATM   21  O2  UNL     1      25.045   3.953  49.374  1.00  0.00    -0.348 OA
BRANCH  21  22
HETATM   22  C16 UNL     1      25.989   4.867  49.360  1.00  0.00     0.178 C 
BRANCH  22  23
HETATM   23  C17 UNL     1      25.334   6.226  49.110  1.00  0.00     0.064 C 
BRANCH  23  24
HETATM   24  C18 UNL     1      25.003   6.985  50.347  1.00  0.00     0.246 C 
HETATM   25  C19 UNL     1      24.040   8.128  50.007  1.00  0.00     0.203 C 
HETATM   26  O3  UNL     1      24.600   8.744  48.878  1.00  0.00    -0.387 OA
HETATM   27  C20 UNL     1      25.733   9.440  49.248  1.00  0.00     0.197 C 
HETATM   28  C21 UNL     1      26.769   8.526  49.797  1.00  0.00     0.296 C 
HETATM   29  N4  UNL     1      26.286   7.577  50.777  1.00  0.00     0.092 N 
HETATM   30  H22 UNL     1      26.958   6.770  50.768  1.00  0.00     0.316 HD
ENDBRANCH  23  24
ENDBRANCH  22  23
ENDBRANCH  21  22
ENDBRANCH  10  21
BRANCH   1  31
HETATM   31  O1  UNL     1      22.876   3.550  47.771  1.00  0.00    -0.353 OA
HETATM   32  C1  UNL     1      22.123   4.763  47.677  1.00  0.00     0.210 C 
ENDBRANCH   1  31
TORSDOF 7
ENDMDL
MODEL 6
REMARK VINA RESULT:      -7.8      4.634      7.694
REMARK  7 active torsions:
REMARK  status: ('A' for Active; 'I' for Inactive)
REMARK    1  A    between atoms: O1_2  and  C2_3 
REMARK    2  A    between atoms: C6_9  and  N3_10 
REMARK    3  A    between atoms: N3_10  and  C7_11 
REMARK    4  A    between atoms: C15_21  and  O2_22 
REMARK    5  A    between atoms: O2_22  and  C16_23 
REMARK    6  A    between atoms: C16_23  and  C17_24 
REMARK    7  A    between atoms: C17_24  and  C18_25 
ROOT
HETATM    1  C2  UNL     1      25.370   1.049  52.335  1.00  0.00     0.103 A 
HETATM    2  C3  UNL     1      25.291   0.043  53.294  1.00  0.00     0.072 A 
HETATM    3  C4  UNL     1      24.046  -0.215  53.814  1.00  0.00     0.075 A 
HETATM    4  N1  UNL     1      23.974  -1.185  54.742  1.00  0.00    -0.241 NA
HETATM    5  C5  UNL     1      22.825  -1.547  55.342  1.00  0.00     0.236 A 
HETATM    6  N2  UNL     1      21.751  -0.871  54.951  1.00  0.00    -0.224 NA
HETATM    7  C6  UNL     1      21.670   0.108  54.049  1.00  0.00     0.142 A 
HETATM    8  C13 UNL     1      22.875   0.431  53.475  1.00  0.00     0.042 A 
HETATM    9  C14 UNL     1      23.062   1.409  52.517  1.00  0.00     0.057 A 
HETATM   10  C15 UNL     1      24.258   1.758  51.921  1.00  0.00     0.103 A 
ENDROOT
BRANCH   7  11
HETATM   11  N3  UNL     1      20.511   0.815  53.662  1.00  0.00    -0.340 N 
HETATM   12  H6  UNL     1      20.279   1.731  54.041  1.00  0.00     0.167 HD
BRANCH  11  13
HETATM   13  C7  UNL     1      19.526   0.406  52.735  1.00  0.00     0.035 A 
HETATM   14  C8  UNL     1      19.456   0.904  51.460  1.00  0.00     0.032 A 
HETATM   15  C9  UNL     1      18.504   0.529  50.529  1.00  0.00     0.046 A 
HETATM   16  C10 UNL     1      17.542  -0.406  50.864  1.00  0.00     0.138 A 
HETATM   17  F1  UNL     1      16.581  -0.820  50.009  1.00  0.00    -0.204 F 
HETATM   18  C11 UNL     1      17.577  -0.928  52.129  1.00  0.00     0.074 A 
HETATM   19 CL1  UNL     1      16.390  -2.112  52.595  1.00  0.00    -0.081 Cl
HETATM   20  C12 UNL     1      18.544  -0.517  53.002  1.00  0.00     0.056 A 
ENDBRANCH  11  13
ENDBRANCH   7  11
BRANCH  10  21
HETATM   21  O2  UNL     1      24.384   2.682  51.030  1.00  0.00    -0.348 OA
BRANCH  21  22
HETATM   22  C16 UNL     1      24.166   3.454  49.989  1.00  0.00     0.178 C 
BRANCH  22  23
HETATM   23  C17 UNL     1      24.427   4.902  50.406  1.00  0.00     0.064 C 
BRANCH  23  24
HETATM   24  C18 UNL     1      23.704   5.328  51.635  1.00  0.00     0.246 C 
HETATM   25  C19 UNL     1      22.220   5.530  51.314  1.00  0.00     0.203 C 
HETATM   26  O3  UNL     1      22.208   6.293  50.136  1.00  0.00    -0.387 OA
HETATM   27  C20 UNL     1      22.606   7.583  50.419  1.00  0.00     0.197 C 
HETATM   28  C21 UNL     1      23.999   7.613  50.938  1.00  0.00     0.296 C 
HETATM   29  N4  UNL     1      24.285   6.643  51.973  1.00  0.00     0.092 N 
HETATM   30  H22 UNL     1      25.322   6.480  51.951  1.00  0.00     0.316 HD
ENDBRANCH  23  24
ENDBRANCH  22  23
ENDBRANCH  21  22
ENDBRANCH  10  21
BRANCH   1  31
HETATM   31  O1  UNL     1      26.624   1.328  51.793  1.00  0.00    -0.353 OA
HETATM   32  C1  UNL     1      27.606   2.034  52.556  1.00  0.00     0.210 C 
ENDBRANCH   1  31
TORSDOF 7
ENDMDL
MODEL 7
REMARK VINA RESULT:      -7.6      3.562      6.983
REMARK  7 active torsions:
REMARK  status: ('A' for Active; 'I' for Inactive)
REMARK    1  A    between atoms: O1_2  and  C2_3 
REMARK    2  A    between atoms: C6_9  and  N3_10 
REMARK    3  A    between atoms: N3_10  and  C7_11 
REMARK    4  A    between atoms: C15_21  and  O2_22 
REMARK    5  A    between atoms: O2_22  and  C16_23 
REMARK    6  A    between atoms: C16_23  and  C17_24 
REMARK    7  A    between atoms: C17_24  and  C18_25 
ROOT
HETATM    1  C2  UNL     1      27.105   1.596  52.907  1.00  0.00     0.103 A 
HETATM    2  C3  UNL     1      26.911   0.865  54.077  1.00  0.00     0.072 A 
HETATM    3  C4  UNL     1      25.730   0.172  54.181  1.00  0.00     0.075 A 
HETATM    4  N1  UNL     1      25.546  -0.530  55.312  1.00  0.00    -0.241 NA
HETATM    5  C5  UNL     1      24.438  -1.255  55.557  1.00  0.00     0.236 A 
HETATM    6  N2  UNL     1      23.525  -1.229  54.594  1.00  0.00    -0.224 NA
HETATM    7  C6  UNL     1      23.569  -0.583  53.427  1.00  0.00     0.142 A 
HETATM    8  C13 UNL     1      24.723   0.138  53.238  1.00  0.00     0.042 A 
HETATM    9  C14 UNL     1      25.013   0.894  52.118  1.00  0.00     0.057 A 
HETATM   10  C15 UNL     1      26.160   1.629  51.898  1.00  0.00     0.103 A 
ENDROOT
BRANCH   7  11
HETATM   11  N3  UNL     1      22.575  -0.568  52.425  1.00  0.00    -0.340 N 
HETATM   12  H6  UNL     1      22.516  -1.287  51.706  1.00  0.00     0.167 HD
BRANCH  11  13
HETATM   13  C7  UNL     1      21.546   0.384  52.251  1.00  0.00     0.035 A 
HETATM   14  C8  UNL     1      21.446   1.515  53.018  1.00  0.00     0.032 A 
HETATM   15  C9  UNL     1      20.450   2.465  52.877  1.00  0.00     0.046 A 
HETATM   16  C10 UNL     1      19.472   2.303  51.914  1.00  0.00     0.138 A 
HETATM   17  F1  UNL     1      18.469   3.186  51.718  1.00  0.00    -0.204 F 
HETATM   18  C11 UNL     1      19.536   1.185  51.126  1.00  0.00     0.074 A 
HETATM   19 CL1  UNL     1      18.331   0.939  49.895  1.00  0.00    -0.081 Cl
HETATM   20  C12 UNL     1      20.546   0.284  51.315  1.00  0.00     0.056 A 
ENDBRANCH  11  13
ENDBRANCH   7  11
BRANCH  10  21
HETATM   21  O2  UNL     1      26.386   2.323  50.834  1.00  0.00    -0.348 OA
BRANCH  21  22
HETATM   22  C16 UNL     1      26.543   3.334  50.011  1.00  0.00     0.178 C 
BRANCH  22  23
HETATM   23  C17 UNL     1      25.210   3.589  49.307  1.00  0.00     0.064 C 
BRANCH  23  24
HETATM   24  C18 UNL     1      24.393   4.677  49.912  1.00  0.00     0.246 C 
HETATM   25  C19 UNL     1      23.386   4.076  50.898  1.00  0.00     0.203 C 
HETATM   26  O3  UNL     1      22.806   3.001  50.208  1.00  0.00    -0.387 OA
HETATM   27  C20 UNL     1      21.971   3.484  49.221  1.00  0.00     0.197 C 
HETATM   28  C21 UNL     1      22.728   4.280  48.220  1.00  0.00     0.296 C 
HETATM   29  N4  UNL     1      23.641   5.253  48.779  1.00  0.00     0.092 N 
HETATM   30  H22 UNL     1      24.373   5.431  48.047  1.00  0.00     0.316 HD
ENDBRANCH  23  24
ENDBRANCH  22  23
ENDBRANCH  21  22
ENDBRANCH  10  21
BRANCH   1  31
HETATM   31  O1  UNL     1      28.297   2.307  52.779  1.00  0.00    -0.353 OA
HETATM   32  C1  UNL     1      29.219   2.384  53.870  1.00  0.00     0.210 C 
ENDBRANCH   1  31
TORSDOF 7
ENDMDL
MODEL 8
REMARK VINA RESULT:      -7.5      2.302      3.176
REMARK  7 active torsions:
REMARK  status: ('A' for Active; 'I' for Inactive)
REMARK    1  A    between atoms: O1_2  and  C2_3 
REMARK    2  A    between atoms: C6_9  and  N3_10 
REMARK    3  A    between atoms: N3_10  and  C7_11 
REMARK    4  A    between atoms: C15_21  and  O2_22 
REMARK    5  A    between atoms: O2_22  and  C16_23 
REMARK    6  A    between atoms: C16_23  and  C17_24 
REMARK    7  A    between atoms: C17_24  and  C18_25 
ROOT
HETATM    1  C2  UNL     1      23.521   0.039  53.270  1.00  0.00     0.103 A 
HETATM    2  C3  UNL     1      22.193  -0.376  53.215  1.00  0.00     0.072 A 
HETATM    3  C4  UNL     1      21.400   0.222  52.266  1.00  0.00     0.075 A 
HETATM    4  N1  UNL     1      20.119  -0.179  52.218  1.00  0.00    -0.241 NA
HETATM    5  C5  UNL     1      19.223   0.318  51.343  1.00  0.00     0.236 A 
HETATM    6  N2  UNL     1      19.697   1.246  50.521  1.00  0.00    -0.224 NA
HETATM    7  C6  UNL     1      20.935   1.739  50.453  1.00  0.00     0.142 A 
HETATM    8  C13 UNL     1      21.799   1.193  51.370  1.00  0.00     0.042 A 
HETATM    9  C14 UNL     1      23.131   1.533  51.507  1.00  0.00     0.057 A 
HETATM   10  C15 UNL     1      24.025   1.004  52.417  1.00  0.00     0.103 A 
ENDROOT
BRANCH   7  11
HETATM   11  N3  UNL     1      21.406   2.735  49.570  1.00  0.00    -0.340 N 
HETATM   12  H6  UNL     1      21.466   2.587  48.564  1.00  0.00     0.167 HD
BRANCH  11  13
HETATM   13  C7  UNL     1      21.849   4.036  49.900  1.00  0.00     0.035 A 
HETATM   14  C8  UNL     1      21.191   4.837  50.797  1.00  0.00     0.032 A 
HETATM   15  C9  UNL     1      21.594   6.115  51.140  1.00  0.00     0.046 A 
HETATM   16  C10 UNL     1      22.727   6.659  50.565  1.00  0.00     0.138 A 
HETATM   17  F1  UNL     1      23.181   7.899  50.850  1.00  0.00    -0.204 F 
HETATM   18  C11 UNL     1      23.413   5.891  49.664  1.00  0.00     0.074 A 
HETATM   19 CL1  UNL     1      24.850   6.530  48.918  1.00  0.00    -0.081 Cl
HETATM   20  C12 UNL     1      22.964   4.635  49.367  1.00  0.00     0.056 A 
ENDBRANCH  11  13
ENDBRANCH   7  11
BRANCH  10  21
HETATM   21  O2  UNL     1      25.262   1.355  52.509  1.00  0.00    -0.348 OA
BRANCH  21  22
HETATM   22  C16 UNL     1      26.376   2.047  52.421  1.00  0.00     0.178 C 
BRANCH  22  23
HETATM   23  C17 UNL     1      27.546   1.107  52.710  1.00  0.00     0.064 C 
BRANCH  23  24
HETATM   24  C18 UNL     1      27.556   0.542  54.087  1.00  0.00     0.246 C 
HETATM   25  C19 UNL     1      28.959   0.679  54.689  1.00  0.00     0.203 C 
HETATM   26  O3  UNL     1      29.826   0.220  53.686  1.00  0.00    -0.387 OA
HETATM   27  C20 UNL     1      29.709  -1.149  53.569  1.00  0.00     0.197 C 
HETATM   28  C21 UNL     1      28.334  -1.539  53.159  1.00  0.00     0.296 C 
HETATM   29  N4  UNL     1      27.273  -0.896  53.904  1.00  0.00     0.092 N 
HETATM   30  H22 UNL     1      26.422  -0.914  53.287  1.00  0.00     0.316 HD
ENDBRANCH  23  24
ENDBRANCH  22  23
ENDBRANCH  21  22
ENDBRANCH  10  21
BRANCH   1  31
HETATM   31  O1  UNL     1      24.345  -0.555  54.225  1.00  0.00    -0.353 OA
HETATM   32  C1  UNL     1      23.781  -1.247  55.343  1.00  0.00     0.210 C 
ENDBRANCH   1  31
TORSDOF 7
ENDMDL
MODEL 9
REMARK VINA RESULT:      -7.5      5.029      7.972
REMARK  7 active torsions:
REMARK  status: ('A' for Active; 'I' for Inactive)
REMARK    1  A    between atoms: O1_2  and  C2_3 
REMARK    2  A    between atoms: C6_9  and  N3_10 
REMARK    3  A    between atoms: N3_10  and  C7_11 
REMARK    4  A    between atoms: C15_21  and  O2_22 
REMARK    5  A    between atoms: O2_22  and  C16_23 
REMARK    6  A    between atoms: C16_23  and  C17_24 
REMARK    7  A    between atoms: C17_24  and  C18_25 
ROOT
HETATM    1  C2  UNL     1      27.522   6.890  47.986  1.00  0.00     0.103 A 
HETATM    2  C3  UNL     1      26.165   7.020  48.269  1.00  0.00     0.072 A 
HETATM    3  C4  UNL     1      25.557   5.948  48.875  1.00  0.00     0.075 A 
HETATM    4  N1  UNL     1      24.247   6.077  49.144  1.00  0.00    -0.241 NA
HETATM    5  C5  UNL     1      23.517   5.110  49.733  1.00  0.00     0.236 A 
HETATM    6  N2  UNL     1      24.188   4.005  50.033  1.00  0.00    -0.224 NA
HETATM    7  C6  UNL     1      25.478   3.737  49.828  1.00  0.00     0.142 A 
HETATM    8  C13 UNL     1      26.167   4.760  49.224  1.00  0.00     0.042 A 
HETATM    9  C14 UNL     1      27.510   4.733  48.902  1.00  0.00     0.057 A 
HETATM   10  C15 UNL     1      28.230   5.743  48.295  1.00  0.00     0.103 A 
ENDROOT
BRANCH   7  11
HETATM   11  N3  UNL     1      26.161   2.544  50.152  1.00  0.00    -0.340 N 
HETATM   12  H6  UNL     1      26.591   1.953  49.443  1.00  0.00     0.167 HD
BRANCH  11  13
HETATM   13  C7  UNL     1      26.362   1.993  51.438  1.00  0.00     0.035 A 
HETATM   14  C8  UNL     1      25.450   1.166  52.040  1.00  0.00     0.032 A 
HETATM   15  C9  UNL     1      25.613   0.612  53.297  1.00  0.00     0.046 A 
HETATM   16  C10 UNL     1      26.754   0.885  54.029  1.00  0.00     0.138 A 
HETATM   17  F1  UNL     1      26.983   0.382  55.262  1.00  0.00    -0.204 F 
HETATM   18  C11 UNL     1      27.690   1.708  53.463  1.00  0.00     0.074 A 
HETATM   19 CL1  UNL     1      29.146   2.075  54.342  1.00  0.00    -0.081 Cl
HETATM   20  C12 UNL     1      27.471   2.223  52.216  1.00  0.00     0.056 A 
ENDBRANCH  11  13
ENDBRANCH   7  11
BRANCH  10  21
HETATM   21  O2  UNL     1      29.486   5.671  48.011  1.00  0.00    -0.348 OA
BRANCH  21  22
HETATM   22  C16 UNL     1      30.685   5.962  47.560  1.00  0.00     0.178 C 
BRANCH  22  23
HETATM   23  C17 UNL     1      31.478   4.660  47.437  1.00  0.00     0.064 C 
BRANCH  23  24
HETATM   24  C18 UNL     1      32.726   4.621  48.248  1.00  0.00     0.246 C 
HETATM   25  C19 UNL     1      33.831   5.400  47.526  1.00  0.00     0.203 C 
HETATM   26  O3  UNL     1      33.785   4.942  46.201  1.00  0.00    -0.387 OA
HETATM   27  C20 UNL     1      34.273   3.653  46.142  1.00  0.00     0.197 C 
HETATM   28  C21 UNL     1      33.436   2.725  46.946  1.00  0.00     0.296 C 
HETATM   29  N4  UNL     1      33.109   3.195  48.275  1.00  0.00     0.092 N 
HETATM   30  H22 UNL     1      32.229   2.698  48.561  1.00  0.00     0.316 HD
ENDBRANCH  23  24
ENDBRANCH  22  23
ENDBRANCH  21  22
ENDBRANCH  10  21
BRANCH   1  31
HETATM   31  O1  UNL     1      28.161   7.966  47.370  1.00  0.00    -0.353 OA
HETATM   32  C1  UNL     1      28.153   9.260  47.978  1.00  0.00     0.210 C 
ENDBRANCH   1  31
TORSDOF 7
ENDMDL
