MODEL 1
REMARK VINA RESULT:      -8.6      0.000      0.000
REMARK  4 active torsions:
REMARK  status: ('A' for Active; 'I' for Inactive)
REMARK    1  A    between atoms: C4_5  and  N1_6 
REMARK    2  A    between atoms: N1_6  and  C5_7 
REMARK    3  A    between atoms: C9_13  and  P1_14 
REMARK    4  A    between atoms: P1_14  and  C10_15 
ROOT
HETATM    1  C5  UNL     1      25.196  -0.012  54.211  1.00  0.00     0.144 A 
HETATM    2  N2  UNL     1      25.171  -0.799  55.296  1.00  0.00    -0.223 NA
HETATM    3  C6  UNL     1      24.010  -1.454  55.591  1.00  0.00     0.236 A 
HETATM    4  N3  UNL     1      22.931  -1.303  54.806  1.00  0.00    -0.241 NA
HETATM    5  C7  UNL     1      22.915  -0.529  53.715  1.00  0.00     0.076 A 
HETATM    6  C8  UNL     1      21.799  -0.375  52.906  1.00  0.00     0.047 A 
HETATM    7  C9  UNL     1      21.842   0.443  51.787  1.00  0.00     0.005 A 
HETATM    8  C14 UNL     1      23.037   1.087  51.525  1.00  0.00     0.114 A 
HETATM    9  C15 UNL     1      24.139   0.927  52.336  1.00  0.00     0.119 A 
HETATM   10  C16 UNL     1      24.095   0.125  53.432  1.00  0.00     0.075 A 
HETATM   11  O2  UNL     1      25.264   1.611  51.980  1.00  0.00    -0.345 OA
HETATM   12  C17 UNL     1      25.278   2.811  51.245  1.00  0.00     0.202 C 
HETATM   13  C18 UNL     1      24.099   2.954  50.336  1.00  0.00     0.202 C 
HETATM   14  O3  UNL     1      23.156   1.919  50.426  1.00  0.00    -0.345 OA
ENDROOT
BRANCH   1  15
HETATM   15  N1  UNL     1      26.438   0.626  53.983  1.00  0.00    -0.343 N 
HETATM   16  H3  UNL     1      26.962   1.512  53.865  1.00  0.00     0.167 HD
BRANCH  15  17
HETATM   17  C4  UNL     1      27.615  -0.191  53.816  1.00  0.00     0.017 A 
HETATM   18  C3  UNL     1      27.733  -1.247  53.009  1.00  0.00     0.028 A 
HETATM   19  C2  UNL     1      29.043  -1.910  53.026  1.00  0.00     0.040 A 
HETATM   20  C1  UNL     1      29.718  -1.187  53.898  1.00  0.00     0.099 A 
HETATM   21  F1  UNL     1      31.014  -1.460  54.225  1.00  0.00    -0.210 F 
HETATM   22  C19 UNL     1      28.944  -0.079  54.471  1.00  0.00     0.127 A 
ENDBRANCH  15  17
ENDBRANCH   1  15
BRANCH   7  23
HETATM   23  P1  UNL     1      20.381   0.667  50.696  1.00  0.00    -0.085 P 
HETATM   24  H6  UNL     1      19.834  -0.620  50.289  1.00  0.00     0.063 HD
BRANCH  23  25
HETATM   25  C10 UNL     1      19.157   1.657  51.655  1.00  0.00     0.042 C 
HETATM   26  C11 UNL     1      17.900   1.989  50.848  1.00  0.00     0.037 C 
HETATM   27  C12 UNL     1      17.450   3.202  51.639  1.00  0.00     0.168 C 
HETATM   28  O1  UNL     1      18.593   3.886  52.017  1.00  0.00    -0.390 OA
HETATM   29  C13 UNL     1      19.689   3.060  51.857  1.00  0.00     0.177 C 
ENDBRANCH  23  25
ENDBRANCH   7  23
TORSDOF 4
ENDMDL
MODEL 2
REMARK VINA RESULT:      -8.3      1.559      3.025
REMARK  4 active torsions:
REMARK  status: ('A' for Active; 'I' for Inactive)
REMARK    1  A    between atoms: C4_5  and  N1_6 
REMARK    2  A    between atoms: N1_6  and  C5_7 
REMARK    3  A    between atoms: C9_13  and  P1_14 
REMARK    4  A    between atoms: P1_14  and  C10_15 
ROOT
HETATM    1  C5  UNL     1      25.702   1.744  52.522  1.00  0.00     0.144 A 
HETATM    2  N2  UNL     1      26.607   2.505  51.892  1.00  0.00    -0.223 NA
HETATM    3  C6  UNL     1      26.241   3.115  50.726  1.00  0.00     0.236 A 
HETATM    4  N3  UNL     1      25.001   2.945  50.238  1.00  0.00    -0.241 NA
HETATM    5  C7  UNL     1      24.069   2.195  50.835  1.00  0.00     0.076 A 
HETATM    6  C8  UNL     1      22.790   2.022  50.327  1.00  0.00     0.047 A 
HETATM    7  C9  UNL     1      21.864   1.231  50.991  1.00  0.00     0.005 A 
HETATM    8  C14 UNL     1      22.277   0.633  52.167  1.00  0.00     0.114 A 
HETATM    9  C15 UNL     1      23.551   0.812  52.662  1.00  0.00     0.119 A 
HETATM   10  C16 UNL     1      24.456   1.588  52.010  1.00  0.00     0.075 A 
HETATM   11  O2  UNL     1      23.848   0.174  53.831  1.00  0.00    -0.345 OA
HETATM   12  C17 UNL     1      23.231  -1.009  54.281  1.00  0.00     0.202 C 
HETATM   13  C18 UNL     1      21.835  -1.170  53.773  1.00  0.00     0.202 C 
HETATM   14  O3  UNL     1      21.409  -0.170  52.886  1.00  0.00    -0.345 OA
ENDROOT
BRANCH   1  15
HETATM   15  N1  UNL     1      26.168   1.153  53.719  1.00  0.00    -0.343 N 
HETATM   16  H3  UNL     1      26.074   1.057  54.747  1.00  0.00     0.167 HD
BRANCH  15  17
HETATM   17  C4  UNL     1      27.281   0.238  53.650  1.00  0.00     0.017 A 
HETATM   18  C3  UNL     1      27.306  -0.924  52.994  1.00  0.00     0.028 A 
HETATM   19  C2  UNL     1      28.566  -1.672  53.083  1.00  0.00     0.040 A 
HETATM   20  C1  UNL     1      29.311  -0.888  53.839  1.00  0.00     0.099 A 
HETATM   21  F1  UNL     1      30.592  -1.208  54.183  1.00  0.00    -0.210 F 
HETATM   22  C19 UNL     1      28.630   0.340  54.265  1.00  0.00     0.127 A 
ENDBRANCH  15  17
ENDBRANCH   1  15
BRANCH   7  23
HETATM   23  P1  UNL     1      20.162   0.983  50.344  1.00  0.00    -0.085 P 
HETATM   24  H6  UNL     1      19.853  -0.435  50.227  1.00  0.00     0.063 HD
BRANCH  23  25
HETATM   25  C10 UNL     1      19.026   1.836  51.518  1.00  0.00     0.042 C 
HETATM   26  C11 UNL     1      17.599   1.958  50.979  1.00  0.00     0.037 C 
HETATM   27  C12 UNL     1      17.147   3.130  51.828  1.00  0.00     0.168 C 
HETATM   28  O1  UNL     1      18.233   3.980  51.955  1.00  0.00    -0.390 OA
HETATM   29  C13 UNL     1      19.382   3.307  51.588  1.00  0.00     0.177 C 
ENDBRANCH  23  25
ENDBRANCH   7  23
TORSDOF 4
ENDMDL
MODEL 3
REMARK VINA RESULT:      -8.0      2.221      2.693
REMARK  4 active torsions:
REMARK  status: ('A' for Active; 'I' for Inactive)
REMARK    1  A    between atoms: C4_5  and  N1_6 
REMARK    2  A    between atoms: N1_6  and  C5_7 
REMARK    3  A    between atoms: C9_13  and  P1_14 
REMARK    4  A    between atoms: P1_14  and  C10_15 
ROOT
HETATM    1  C5  UNL     1      25.074   0.506  52.402  1.00  0.00     0.144 A 
HETATM    2  N2  UNL     1      24.707  -0.458  53.257  1.00  0.00    -0.223 NA
HETATM    3  C6  UNL     1      23.449  -0.407  53.786  1.00  0.00     0.236 A 
HETATM    4  N3  UNL     1      22.615   0.590  53.447  1.00  0.00    -0.241 NA
HETATM    5  C7  UNL     1      22.943   1.570  52.599  1.00  0.00     0.076 A 
HETATM    6  C8  UNL     1      22.079   2.599  52.252  1.00  0.00     0.047 A 
HETATM    7  C9  UNL     1      22.476   3.589  51.366  1.00  0.00     0.005 A 
HETATM    8  C14 UNL     1      23.758   3.499  50.855  1.00  0.00     0.114 A 
HETATM    9  C15 UNL     1      24.607   2.472  51.207  1.00  0.00     0.119 A 
HETATM   10  C16 UNL     1      24.216   1.503  52.075  1.00  0.00     0.075 A 
HETATM   11  O2  UNL     1      25.848   2.484  50.641  1.00  0.00    -0.345 OA
HETATM   12  C17 UNL     1      26.518   3.639  50.194  1.00  0.00     0.202 C 
HETATM   13  C18 UNL     1      25.586   4.730  49.774  1.00  0.00     0.202 C 
HETATM   14  O3  UNL     1      24.224   4.450  49.965  1.00  0.00    -0.345 OA
ENDROOT
BRANCH   1  15
HETATM   15  N1  UNL     1      26.392   0.373  51.906  1.00  0.00    -0.343 N 
HETATM   16  H3  UNL     1      27.012   0.159  51.103  1.00  0.00     0.167 HD
BRANCH  15  17
HETATM   17  C4  UNL     1      27.497   0.610  52.804  1.00  0.00     0.017 A 
HETATM   18  C3  UNL     1      28.313  -0.316  53.310  1.00  0.00     0.028 A 
HETATM   19  C2  UNL     1      29.362   0.190  54.204  1.00  0.00     0.040 A 
HETATM   20  C1  UNL     1      29.132   1.488  54.210  1.00  0.00     0.099 A 
HETATM   21  F1  UNL     1      29.892   2.362  54.931  1.00  0.00    -0.210 F 
HETATM   22  C19 UNL     1      27.992   1.889  53.377  1.00  0.00     0.127 A 
ENDBRANCH  15  17
ENDBRANCH   1  15
BRANCH   7  23
HETATM   23  P1  UNL     1      21.355   4.964  50.887  1.00  0.00    -0.085 P 
HETATM   24  H6  UNL     1      22.113   6.101  50.386  1.00  0.00     0.063 HD
BRANCH  23  25
HETATM   25  C10 UNL     1      20.213   4.287  49.609  1.00  0.00     0.042 C 
HETATM   26  C11 UNL     1      19.152   3.355  50.197  1.00  0.00     0.037 C 
HETATM   27  C12 UNL     1      18.825   2.578  48.936  1.00  0.00     0.168 C 
HETATM   28  O1  UNL     1      20.012   2.413  48.243  1.00  0.00    -0.390 OA
HETATM   29  C13 UNL     1      20.955   3.289  48.744  1.00  0.00     0.177 C 
ENDBRANCH  23  25
ENDBRANCH   7  23
TORSDOF 4
ENDMDL
MODEL 4
REMARK VINA RESULT:      -7.9      2.251      3.592
REMARK  4 active torsions:
REMARK  status: ('A' for Active; 'I' for Inactive)
REMARK    1  A    between atoms: C4_5  and  N1_6 
REMARK    2  A    between atoms: N1_6  and  C5_7 
REMARK    3  A    between atoms: C9_13  and  P1_14 
REMARK    4  A    between atoms: P1_14  and  C10_15 
ROOT
HETATM    1  C5  UNL     1      25.449   1.113  52.007  1.00  0.00     0.144 A 
HETATM    2  N2  UNL     1      26.509   1.682  51.418  1.00  0.00    -0.223 NA
HETATM    3  C6  UNL     1      26.317   2.843  50.725  1.00  0.00     0.236 A 
HETATM    4  N3  UNL     1      25.091   3.387  50.646  1.00  0.00    -0.241 NA
HETATM    5  C7  UNL     1      24.008   2.850  51.220  1.00  0.00     0.076 A 
HETATM    6  C8  UNL     1      22.744   3.413  51.136  1.00  0.00     0.047 A 
HETATM    7  C9  UNL     1      21.657   2.810  51.751  1.00  0.00     0.005 A 
HETATM    8  C14 UNL     1      21.897   1.637  52.442  1.00  0.00     0.114 A 
HETATM    9  C15 UNL     1      23.157   1.086  52.518  1.00  0.00     0.119 A 
HETATM   10  C16 UNL     1      24.221   1.679  51.914  1.00  0.00     0.075 A 
HETATM   11  O2  UNL     1      23.276  -0.073  53.227  1.00  0.00    -0.345 OA
HETATM   12  C17 UNL     1      22.242  -1.009  53.418  1.00  0.00     0.202 C 
HETATM   13  C18 UNL     1      20.881  -0.393  53.376  1.00  0.00     0.202 C 
HETATM   14  O3  UNL     1      20.861   0.979  53.082  1.00  0.00    -0.345 OA
ENDROOT
BRANCH   1  15
HETATM   15  N1  UNL     1      25.742  -0.085  52.701  1.00  0.00    -0.343 N 
HETATM   16  H3  UNL     1      25.429  -1.027  52.999  1.00  0.00     0.167 HD
BRANCH  15  17
HETATM   17  C4  UNL     1      27.026  -0.214  53.346  1.00  0.00     0.017 A 
HETATM   18  C3  UNL     1      27.428   0.439  54.437  1.00  0.00     0.028 A 
HETATM   19  C2  UNL     1      28.789   0.127  54.894  1.00  0.00     0.040 A 
HETATM   20  C1  UNL     1      29.190  -0.763  54.007  1.00  0.00     0.099 A 
HETATM   21  F1  UNL     1      30.428  -1.334  54.054  1.00  0.00    -0.210 F 
HETATM   22  C19 UNL     1      28.186  -1.068  52.981  1.00  0.00     0.127 A 
ENDBRANCH  15  17
ENDBRANCH   1  15
BRANCH   7  23
HETATM   23  P1  UNL     1      19.969   3.532  51.659  1.00  0.00    -0.085 P 
HETATM   24  H6  UNL     1      19.967   4.910  52.128  1.00  0.00     0.063 HD
BRANCH  23  25
HETATM   25  C10 UNL     1      19.443   3.409  49.896  1.00  0.00     0.042 C 
HETATM   26  C11 UNL     1      20.123   2.256  49.154  1.00  0.00     0.037 C 
HETATM   27  C12 UNL     1      19.959   2.782  47.742  1.00  0.00     0.168 C 
HETATM   28  O1  UNL     1      20.125   4.156  47.800  1.00  0.00    -0.390 OA
HETATM   29  C13 UNL     1      20.021   4.570  49.114  1.00  0.00     0.177 C 
ENDBRANCH  23  25
ENDBRANCH   7  23
TORSDOF 4
ENDMDL
MODEL 5
REMARK VINA RESULT:      -7.8      1.927      2.267
REMARK  4 active torsions:
REMARK  status: ('A' for Active; 'I' for Inactive)
REMARK    1  A    between atoms: C4_5  and  N1_6 
REMARK    2  A    between atoms: N1_6  and  C5_7 
REMARK    3  A    between atoms: C9_13  and  P1_14 
REMARK    4  A    between atoms: P1_14  and  C10_15 
ROOT
HETATM    1  C5  UNL     1      24.781   0.075  53.339  1.00  0.00     0.144 A 
HETATM    2  N2  UNL     1      25.107  -0.689  54.391  1.00  0.00    -0.223 NA
HETATM    3  C6  UNL     1      24.096  -1.216  55.143  1.00  0.00     0.236 A 
HETATM    4  N3  UNL     1      22.816  -0.965  54.825  1.00  0.00    -0.241 NA
HETATM    5  C7  UNL     1      22.450  -0.208  53.784  1.00  0.00     0.076 A 
HETATM    6  C8  UNL     1      21.126   0.050  53.459  1.00  0.00     0.047 A 
HETATM    7  C9  UNL     1      20.807   0.844  52.367  1.00  0.00     0.005 A 
HETATM    8  C14 UNL     1      21.861   1.356  51.632  1.00  0.00     0.114 A 
HETATM    9  C15 UNL     1      23.172   1.094  51.966  1.00  0.00     0.119 A 
HETATM   10  C16 UNL     1      23.482   0.315  53.036  1.00  0.00     0.075 A 
HETATM   11  O2  UNL     1      24.128   1.652  51.170  1.00  0.00    -0.345 OA
HETATM   12  C17 UNL     1      23.965   2.834  50.424  1.00  0.00     0.202 C 
HETATM   13  C18 UNL     1      22.545   3.086  50.030  1.00  0.00     0.202 C 
HETATM   14  O3  UNL     1      21.620   2.156  50.529  1.00  0.00    -0.345 OA
ENDROOT
BRANCH   1  15
HETATM   15  N1  UNL     1      25.890   0.577  52.619  1.00  0.00    -0.343 N 
HETATM   16  H3  UNL     1      26.240   1.087  51.787  1.00  0.00     0.167 HD
BRANCH  15  17
HETATM   17  C4  UNL     1      27.214   0.368  53.153  1.00  0.00     0.017 A 
HETATM   18  C3  UNL     1      27.964   1.279  53.777  1.00  0.00     0.028 A 
HETATM   19  C2  UNL     1      29.281   0.810  54.226  1.00  0.00     0.040 A 
HETATM   20  C1  UNL     1      29.286  -0.449  53.834  1.00  0.00     0.099 A 
HETATM   21  F1  UNL     1      30.346  -1.279  54.053  1.00  0.00    -0.210 F 
HETATM   22  C19 UNL     1      28.054  -0.858  53.147  1.00  0.00     0.127 A 
ENDBRANCH  15  17
ENDBRANCH   1  15
BRANCH   7  23
HETATM   23  P1  UNL     1      19.064   1.204  51.909  1.00  0.00    -0.085 P 
HETATM   24  H6  UNL     1      18.998   1.941  50.656  1.00  0.00     0.063 HD
BRANCH  23  25
HETATM   25  C10 UNL     1      18.207  -0.424  51.791  1.00  0.00     0.042 C 
HETATM   26  C11 UNL     1      16.745  -0.294  51.358  1.00  0.00     0.037 C 
HETATM   27  C12 UNL     1      16.237  -1.610  51.915  1.00  0.00     0.168 C 
HETATM   28  O1  UNL     1      16.900  -1.825  53.112  1.00  0.00    -0.390 OA
HETATM   29  C13 UNL     1      17.996  -0.987  53.181  1.00  0.00     0.177 C 
ENDBRANCH  23  25
ENDBRANCH   7  23
TORSDOF 4
ENDMDL
MODEL 6
REMARK VINA RESULT:      -7.5      4.670      7.421
REMARK  4 active torsions:
REMARK  status: ('A' for Active; 'I' for Inactive)
REMARK    1  A    between atoms: C4_5  and  N1_6 
REMARK    2  A    between atoms: N1_6  and  C5_7 
REMARK    3  A    between atoms: C9_13  and  P1_14 
REMARK    4  A    between atoms: P1_14  and  C10_15 
ROOT
HETATM    1  C5  UNL     1      24.700   3.190  51.677  1.00  0.00     0.144 A 
HETATM    2  N2  UNL     1      25.655   2.257  51.787  1.00  0.00    -0.223 NA
HETATM    3  C6  UNL     1      26.749   2.354  50.974  1.00  0.00     0.236 A 
HETATM    4  N3  UNL     1      26.848   3.363  50.093  1.00  0.00    -0.241 NA
HETATM    5  C7  UNL     1      25.917   4.313  49.953  1.00  0.00     0.076 A 
HETATM    6  C8  UNL     1      26.022   5.354  49.042  1.00  0.00     0.047 A 
HETATM    7  C9  UNL     1      25.024   6.311  48.941  1.00  0.00     0.005 A 
HETATM    8  C14 UNL     1      23.935   6.176  49.782  1.00  0.00     0.114 A 
HETATM    9  C15 UNL     1      23.841   5.137  50.683  1.00  0.00     0.119 A 
HETATM   10  C16 UNL     1      24.821   4.200  50.781  1.00  0.00     0.075 A 
HETATM   11  O2  UNL     1      22.722   5.104  51.463  1.00  0.00    -0.345 OA
HETATM   12  C17 UNL     1      21.476   5.652  51.106  1.00  0.00     0.202 C 
HETATM   13  C18 UNL     1      21.593   6.805  50.162  1.00  0.00     0.202 C 
HETATM   14  O3  UNL     1      22.900   7.092  49.739  1.00  0.00    -0.345 OA
ENDROOT
BRANCH   1  15
HETATM   15  N1  UNL     1      23.606   3.011  52.556  1.00  0.00    -0.343 N 
HETATM   16  H3  UNL     1      23.009   3.403  53.307  1.00  0.00     0.167 HD
BRANCH  15  17
HETATM   17  C4  UNL     1      22.882   1.764  52.514  1.00  0.00     0.017 A 
HETATM   18  C3  UNL     1      21.887   1.459  51.679  1.00  0.00     0.028 A 
HETATM   19  C2  UNL     1      21.314   0.117  51.843  1.00  0.00     0.040 A 
HETATM   20  C1  UNL     1      22.028  -0.378  52.835  1.00  0.00     0.099 A 
HETATM   21  F1  UNL     1      21.824  -1.635  53.325  1.00  0.00    -0.210 F 
HETATM   22  C19 UNL     1      23.044   0.547  53.351  1.00  0.00     0.127 A 
ENDBRANCH  15  17
ENDBRANCH   1  15
BRANCH   7  23
HETATM   23  P1  UNL     1      25.134   7.702  47.744  1.00  0.00    -0.085 P 
HETATM   24  H6  UNL     1      23.819   8.268  47.483  1.00  0.00     0.063 HD
BRANCH  23  25
HETATM   25  C10 UNL     1      26.277   8.942  48.487  1.00  0.00     0.042 C 
HETATM   26  C11 UNL     1      27.720   8.440  48.575  1.00  0.00     0.037 C 
HETATM   27  C12 UNL     1      28.201   9.358  49.682  1.00  0.00     0.168 C 
HETATM   28  O1  UNL     1      27.149   9.506  50.571  1.00  0.00    -0.390 OA
HETATM   29  C13 UNL     1      25.982   9.080  49.967  1.00  0.00     0.177 C 
ENDBRANCH  23  25
ENDBRANCH   7  23
TORSDOF 4
ENDMDL
MODEL 7
REMARK VINA RESULT:      -7.4      2.405      3.841
REMARK  4 active torsions:
REMARK  status: ('A' for Active; 'I' for Inactive)
REMARK    1  A    between atoms: C4_5  and  N1_6 
REMARK    2  A    between atoms: N1_6  and  C5_7 
REMARK    3  A    between atoms: C9_13  and  P1_14 
REMARK    4  A    between atoms: P1_14  and  C10_15 
ROOT
HETATM    1  C5  UNL     1      23.945   1.894  51.765  1.00  0.00     0.144 A 
HETATM    2  N2  UNL     1      24.659   2.576  50.859  1.00  0.00    -0.223 NA
HETATM    3  C6  UNL     1      24.059   2.906  49.678  1.00  0.00     0.236 A 
HETATM    4  N3  UNL     1      22.785   2.548  49.446  1.00  0.00    -0.241 NA
HETATM    5  C7  UNL     1      22.039   1.868  50.323  1.00  0.00     0.076 A 
HETATM    6  C8  UNL     1      20.724   1.500  50.079  1.00  0.00     0.047 A 
HETATM    7  C9  UNL     1      19.998   0.794  51.027  1.00  0.00     0.005 A 
HETATM    8  C14 UNL     1      20.644   0.481  52.209  1.00  0.00     0.114 A 
HETATM    9  C15 UNL     1      21.951   0.852  52.439  1.00  0.00     0.119 A 
HETATM   10  C16 UNL     1      22.660   1.544  51.509  1.00  0.00     0.075 A 
HETATM   11  O2  UNL     1      22.486   0.489  53.640  1.00  0.00    -0.345 OA
HETATM   12  C17 UNL     1      22.074  -0.619  54.404  1.00  0.00     0.202 C 
HETATM   13  C18 UNL     1      20.643  -0.985  54.178  1.00  0.00     0.202 C 
HETATM   14  O3  UNL     1      19.985  -0.221  53.202  1.00  0.00    -0.345 OA
ENDROOT
BRANCH   1  15
HETATM   15  N1  UNL     1      24.646   1.596  52.957  1.00  0.00    -0.343 N 
HETATM   16  H3  UNL     1      24.778   1.780  53.968  1.00  0.00     0.167 HD
BRANCH  15  17
HETATM   17  C4  UNL     1      25.688   0.599  52.915  1.00  0.00     0.017 A 
HETATM   18  C3  UNL     1      27.000   0.828  52.980  1.00  0.00     0.028 A 
HETATM   19  C2  UNL     1      27.853  -0.366  52.915  1.00  0.00     0.040 A 
HETATM   20  C1  UNL     1      26.972  -1.341  52.806  1.00  0.00     0.099 A 
HETATM   21  F1  UNL     1      27.339  -2.651  52.714  1.00  0.00    -0.210 F 
HETATM   22  C19 UNL     1      25.578  -0.878  52.792  1.00  0.00     0.127 A 
ENDBRANCH  15  17
ENDBRANCH   1  15
BRANCH   7  23
HETATM   23  P1  UNL     1      18.254   0.292  50.734  1.00  0.00    -0.085 P 
HETATM   24  H6  UNL     1      17.806  -0.647  51.753  1.00  0.00     0.063 HD
BRANCH  23  25
HETATM   25  C10 UNL     1      17.255   1.841  50.745  1.00  0.00     0.042 C 
HETATM   26  C11 UNL     1      17.938   2.981  51.503  1.00  0.00     0.037 C 
HETATM   27  C12 UNL     1      16.703   3.803  51.815  1.00  0.00     0.168 C 
HETATM   28  O1  UNL     1      15.680   2.910  52.084  1.00  0.00    -0.390 OA
HETATM   29  C13 UNL     1      16.043   1.655  51.634  1.00  0.00     0.177 C 
ENDBRANCH  23  25
ENDBRANCH   7  23
TORSDOF 4
ENDMDL
MODEL 8
REMARK VINA RESULT:      -7.2      2.809      4.227
REMARK  4 active torsions:
REMARK  status: ('A' for Active; 'I' for Inactive)
REMARK    1  A    between atoms: C4_5  and  N1_6 
REMARK    2  A    between atoms: N1_6  and  C5_7 
REMARK    3  A    between atoms: C9_13  and  P1_14 
REMARK    4  A    between atoms: P1_14  and  C10_15 
ROOT
HETATM    1  C5  UNL     1      25.375   1.780  51.778  1.00  0.00     0.144 A 
HETATM    2  N2  UNL     1      26.543   1.991  51.157  1.00  0.00    -0.223 NA
HETATM    3  C6  UNL     1      26.555   2.811  50.065  1.00  0.00     0.236 A 
HETATM    4  N3  UNL     1      25.416   3.382  49.638  1.00  0.00    -0.241 NA
HETATM    5  C7  UNL     1      24.231   3.196  50.230  1.00  0.00     0.076 A 
HETATM    6  C8  UNL     1      23.057   3.788  49.786  1.00  0.00     0.047 A 
HETATM    7  C9  UNL     1      21.856   3.558  50.441  1.00  0.00     0.005 A 
HETATM    8  C14 UNL     1      21.891   2.722  51.542  1.00  0.00     0.114 A 
HETATM    9  C15 UNL     1      23.063   2.140  51.973  1.00  0.00     0.119 A 
HETATM   10  C16 UNL     1      24.238   2.367  51.330  1.00  0.00     0.075 A 
HETATM   11  O2  UNL     1      22.977   1.334  53.070  1.00  0.00    -0.345 OA
HETATM   12  C17 UNL     1      21.823   0.630  53.464  1.00  0.00     0.202 C 
HETATM   13  C18 UNL     1      20.557   1.294  53.028  1.00  0.00     0.202 C 
HETATM   14  O3  UNL     1      20.732   2.446  52.246  1.00  0.00    -0.345 OA
ENDROOT
BRANCH   1  15
HETATM   15  N1  UNL     1      25.458   0.919  52.898  1.00  0.00    -0.343 N 
HETATM   16  H3  UNL     1      24.970   0.443  53.678  1.00  0.00     0.167 HD
BRANCH  15  17
HETATM   17  C4  UNL     1      26.742   0.360  53.247  1.00  0.00     0.017 A 
HETATM   18  C3  UNL     1      27.625   0.888  54.097  1.00  0.00     0.028 A 
HETATM   19  C2  UNL     1      28.863   0.118  54.277  1.00  0.00     0.040 A 
HETATM   20  C1  UNL     1      28.676  -0.915  53.480  1.00  0.00     0.099 A 
HETATM   21  F1  UNL     1      29.604  -1.905  53.338  1.00  0.00    -0.210 F 
HETATM   22  C19 UNL     1      27.390  -0.890  52.772  1.00  0.00     0.127 A 
ENDBRANCH  15  17
ENDBRANCH   1  15
BRANCH   7  23
HETATM   23  P1  UNL     1      20.285   4.326  49.878  1.00  0.00    -0.085 P 
HETATM   24  H6  UNL     1      19.161   3.854  50.673  1.00  0.00     0.063 HD
BRANCH  23  25
HETATM   25  C10 UNL     1      20.510   6.149  50.029  1.00  0.00     0.042 C 
HETATM   26  C11 UNL     1      21.182   6.767  48.800  1.00  0.00     0.037 C 
HETATM   27  C12 UNL     1      21.720   8.023  49.457  1.00  0.00     0.168 C 
HETATM   28  O1  UNL     1      22.124   7.671  50.734  1.00  0.00    -0.390 OA
HETATM   29  C13 UNL     1      21.580   6.444  51.059  1.00  0.00     0.177 C 
ENDBRANCH  23  25
ENDBRANCH   7  23
TORSDOF 4
ENDMDL
MODEL 9
REMARK VINA RESULT:      -7.1      2.324      3.355
REMARK  4 active torsions:
REMARK  status: ('A' for Active; 'I' for Inactive)
REMARK    1  A    between atoms: C4_5  and  N1_6 
REMARK    2  A    between atoms: N1_6  and  C5_7 
REMARK    3  A    between atoms: C9_13  and  P1_14 
REMARK    4  A    between atoms: P1_14  and  C10_15 
ROOT
HETATM    1  C5  UNL     1      22.419   0.245  52.665  1.00  0.00     0.144 A 
HETATM    2  N2  UNL     1      22.554  -0.249  53.903  1.00  0.00    -0.223 NA
HETATM    3  C6  UNL     1      21.428  -0.651  54.564  1.00  0.00     0.236 A 
HETATM    4  N3  UNL     1      20.226  -0.547  53.974  1.00  0.00    -0.241 NA
HETATM    5  C7  UNL     1      20.050  -0.060  52.741  1.00  0.00     0.076 A 
HETATM    6  C8  UNL     1      18.806   0.046  52.135  1.00  0.00     0.047 A 
HETATM    7  C9  UNL     1      18.685   0.560  50.852  1.00  0.00     0.005 A 
HETATM    8  C14 UNL     1      19.849   0.955  50.220  1.00  0.00     0.114 A 
HETATM    9  C15 UNL     1      21.079   0.845  50.832  1.00  0.00     0.119 A 
HETATM   10  C16 UNL     1      21.196   0.341  52.089  1.00  0.00     0.075 A 
HETATM   11  O2  UNL     1      22.159   1.265  50.114  1.00  0.00    -0.345 OA
HETATM   12  C17 UNL     1      22.122   2.242  49.101  1.00  0.00     0.202 C 
HETATM   13  C18 UNL     1      20.796   2.323  48.415  1.00  0.00     0.202 C 
HETATM   14  O3  UNL     1      19.807   1.477  48.939  1.00  0.00    -0.345 OA
ENDROOT
BRANCH   1  15
HETATM   15  N1  UNL     1      23.636   0.636  52.058  1.00  0.00    -0.343 N 
HETATM   16  H3  UNL     1      24.139   0.910  51.194  1.00  0.00     0.167 HD
BRANCH  15  17
HETATM   17  C4  UNL     1      24.812   0.759  52.884  1.00  0.00     0.017 A 
HETATM   18  C3  UNL     1      25.322   1.895  53.364  1.00  0.00     0.028 A 
HETATM   19  C2  UNL     1      26.533   1.746  54.182  1.00  0.00     0.040 A 
HETATM   20  C1  UNL     1      26.728   0.442  54.169  1.00  0.00     0.099 A 
HETATM   21  F1  UNL     1      27.772  -0.146  54.821  1.00  0.00    -0.210 F 
HETATM   22  C19 UNL     1      25.726  -0.297  53.393  1.00  0.00     0.127 A 
ENDBRANCH  15  17
ENDBRANCH   1  15
BRANCH   7  23
HETATM   23  P1  UNL     1      17.052   0.713  50.022  1.00  0.00    -0.085 P 
HETATM   24  H6  UNL     1      16.191  -0.411  50.359  1.00  0.00     0.063 HD
BRANCH  23  25
HETATM   25  C10 UNL     1      16.331   2.316  50.576  1.00  0.00     0.042 C 
HETATM   26  C11 UNL     1      17.385   3.283  51.120  1.00  0.00     0.037 C 
HETATM   27  C12 UNL     1      16.470   4.145  51.969  1.00  0.00     0.168 C 
HETATM   28  O1  UNL     1      15.521   3.303  52.523  1.00  0.00    -0.390 OA
HETATM   29  C13 UNL     1      15.530   2.100  51.843  1.00  0.00     0.177 C 
ENDBRANCH  23  25
ENDBRANCH   7  23
TORSDOF 4
ENDMDL
