MODEL 1
REMARK VINA RESULT:      -8.7      0.000      0.000
REMARK  4 active torsions:
REMARK  status: ('A' for Active; 'I' for Inactive)
REMARK    1  A    between atoms: O1_2  and  C2_3 
REMARK    2  A    between atoms: C7_9  and  N4_25 
REMARK    3  A    between atoms: C10_13  and  C11_14 
REMARK    4  A    between atoms: C12_15  and  C13_17 
ROOT
HETATM    1  C2  UNL     1      20.633   0.373  53.059  1.00  0.00     0.063 C 
HETATM    2  C3  UNL     1      20.152   1.502  52.523  1.00  0.00     0.015 C 
HETATM    3  C4  UNL     1      19.945   2.822  51.972  1.00  0.00     0.025 C 
HETATM    4  C5  UNL     1      20.468   3.954  51.644  1.00  0.00     0.029 C 
HETATM    5  C6  UNL     1      21.696   4.861  51.546  1.00  0.00     0.291 C 
HETATM    6  N1  UNL     1      22.829   4.232  52.073  1.00  0.00     0.247 N 
HETATM    7  C7  UNL     1      22.968   3.127  51.043  1.00  0.00     0.598 A 
HETATM    8  C8  UNL     1      24.302   2.274  51.129  1.00  0.00     0.171 C 
HETATM    9  N2  UNL     1      25.566   2.031  51.805  1.00  0.00    -0.367 N 
HETATM   10  C9  UNL     1      25.688   0.808  52.653  1.00  0.00     0.011 C 
HETATM   11  C10 UNL     1      26.638   0.094  52.070  1.00  0.00     0.028 C 
HETATM   12  C14 UNL     1      24.905   0.498  53.875  1.00  0.00     0.088 C 
HETATM   13  C15 UNL     1      23.386   0.562  53.541  1.00  0.00     0.059 C 
HETATM   14  C16 UNL     1      22.077   0.387  53.346  1.00  0.00     0.104 C 
HETATM   15  N3  UNL     1      23.510   1.956  52.996  1.00  0.00    -0.330 N 
HETATM   16  O2  UNL     1      23.618   3.314  52.527  1.00  0.00     0.000 OA
HETATM   17  C17 UNL     1      22.873   3.314  51.127  1.00  0.00     0.656 A 
HETATM   18  N4  UNL     1      22.860   2.485  50.206  1.00  0.00     0.285 N 
HETATM   19  C18 UNL     1      21.787   2.723  49.114  1.00  0.00     0.545 A 
HETATM   20  N5  UNL     1      22.802   2.266  49.898  1.00  0.00     0.285 N 
HETATM   21  H10 UNL     1      26.345   2.751  51.668  1.00  0.00     0.165 HD
HETATM   22  H18 UNL     1      23.335   2.014  54.146  1.00  0.00     0.180 HD
ENDROOT
BRANCH  11  23
HETATM   23  C11 UNL     1      27.242  -1.155  52.342  1.00  0.00     0.041 C 
HETATM   24  C12 UNL     1      28.271  -1.773  52.870  1.00  0.00     0.107 C 
HETATM   25  F1  UNL     1      28.515  -3.094  52.934  1.00  0.00    -0.210 F 
BRANCH  24  26
HETATM   26  C13 UNL     1      29.430  -1.133  53.569  1.00  0.00     0.184 C 
HETATM   27 CL1  UNL     1      28.695  -0.067  54.832  1.00  0.00    -0.123 Cl
ENDBRANCH  24  26
ENDBRANCH  11  23
BRANCH   1  28
HETATM   28  O1  UNL     1      20.350  -0.897  53.498  1.00  0.00    -0.356 OA
HETATM   29  C1  UNL     1      21.033  -1.567  54.523  1.00  0.00     0.210 C 
ENDBRANCH   1  28
TORSDOF 4
ENDMDL
MODEL 2
REMARK VINA RESULT:      -8.6      2.203      2.901
REMARK  4 active torsions:
REMARK  status: ('A' for Active; 'I' for Inactive)
REMARK    1  A    between atoms: O1_2  and  C2_3 
REMARK    2  A    between atoms: C7_9  and  N4_25 
REMARK    3  A    between atoms: C10_13  and  C11_14 
REMARK    4  A    between atoms: C12_15  and  C13_17 
ROOT
HETATM    1  C2  UNL     1      20.961   3.966  51.953  1.00  0.00     0.063 C 
HETATM    2  C3  UNL     1      20.927   5.102  51.245  1.00  0.00     0.015 C 
HETATM    3  C4  UNL     1      21.217   6.317  50.519  1.00  0.00     0.025 C 
HETATM    4  C5  UNL     1      22.117   7.137  50.094  1.00  0.00     0.029 C 
HETATM    5  C6  UNL     1      23.589   7.537  49.978  1.00  0.00     0.291 C 
HETATM    6  N1  UNL     1      24.410   6.636  50.665  1.00  0.00     0.247 N 
HETATM    7  C7  UNL     1      24.177   5.417  49.795  1.00  0.00     0.598 A 
HETATM    8  C8  UNL     1      25.118   4.175  50.090  1.00  0.00     0.171 C 
HETATM    9  N2  UNL     1      26.195   3.608  50.886  1.00  0.00    -0.367 N 
HETATM   10  C9  UNL     1      25.851   2.555  51.887  1.00  0.00     0.011 C 
HETATM   11  C10 UNL     1      26.501   1.479  51.473  1.00  0.00     0.028 C 
HETATM   12  C14 UNL     1      24.975   2.715  53.074  1.00  0.00     0.088 C 
HETATM   13  C15 UNL     1      23.587   3.254  52.619  1.00  0.00     0.059 C 
HETATM   14  C16 UNL     1      22.307   3.519  52.347  1.00  0.00     0.104 C 
HETATM   15  N3  UNL     1      24.213   4.424  51.915  1.00  0.00    -0.330 N 
HETATM   16  O2  UNL     1      24.809   5.577  51.290  1.00  0.00     0.000 OA
HETATM   17  C17 UNL     1      24.152   5.635  49.848  1.00  0.00     0.656 A 
HETATM   18  N4  UNL     1      23.872   4.739  49.039  1.00  0.00     0.285 N 
HETATM   19  C18 UNL     1      22.984   5.175  47.846  1.00  0.00     0.545 A 
HETATM   20  N5  UNL     1      23.748   4.512  48.758  1.00  0.00     0.285 N 
HETATM   21  H10 UNL     1      27.182   3.985  50.721  1.00  0.00     0.165 HD
HETATM   22  H18 UNL     1      24.038   4.705  53.032  1.00  0.00     0.180 HD
ENDROOT
BRANCH  11  23
HETATM   23  C11 UNL     1      26.616   0.150  51.945  1.00  0.00     0.041 C 
HETATM   24  C12 UNL     1      27.179  -0.648  52.817  1.00  0.00     0.107 C 
HETATM   25  F1  UNL     1      27.029  -1.977  52.960  1.00  0.00    -0.210 F 
BRANCH  24  26
HETATM   26  C13 UNL     1      28.125  -0.249  53.908  1.00  0.00     0.184 C 
HETATM   27 CL1  UNL     1      29.740  -0.878  53.391  1.00  0.00    -0.123 Cl
ENDBRANCH  24  26
ENDBRANCH  11  23
BRANCH   1  28
HETATM   28  O1  UNL     1      20.234   2.950  52.524  1.00  0.00    -0.356 OA
HETATM   29  C1  UNL     1      20.230   1.618  52.087  1.00  0.00     0.210 C 
ENDBRANCH   1  28
TORSDOF 4
ENDMDL
MODEL 3
REMARK VINA RESULT:      -8.3      3.178      5.312
REMARK  4 active torsions:
REMARK  status: ('A' for Active; 'I' for Inactive)
REMARK    1  A    between atoms: O1_2  and  C2_3 
REMARK    2  A    between atoms: C7_9  and  N4_25 
REMARK    3  A    between atoms: C10_13  and  C11_14 
REMARK    4  A    between atoms: C12_15  and  C13_17 
ROOT
HETATM    1  C2  UNL     1      26.378   6.159  48.661  1.00  0.00     0.063 C 
HETATM    2  C3  UNL     1      25.163   6.494  48.210  1.00  0.00     0.015 C 
HETATM    3  C4  UNL     1      23.766   6.562  47.848  1.00  0.00     0.025 C 
HETATM    4  C5  UNL     1      22.612   5.986  47.865  1.00  0.00     0.029 C 
HETATM    5  C6  UNL     1      21.738   4.794  48.259  1.00  0.00     0.291 C 
HETATM    6  N1  UNL     1      22.497   3.799  48.883  1.00  0.00     0.247 N 
HETATM    7  C7  UNL     1      22.865   4.558  50.143  1.00  0.00     0.598 A 
HETATM    8  C8  UNL     1      23.566   3.702  51.279  1.00  0.00     0.171 C 
HETATM    9  N2  UNL     1      24.074   2.410  51.709  1.00  0.00    -0.367 N 
HETATM   10  C9  UNL     1      25.555   2.223  51.782  1.00  0.00     0.011 C 
HETATM   11  C10 UNL     1      25.796   1.986  53.061  1.00  0.00     0.028 C 
HETATM   12  C14 UNL     1      26.511   2.291  50.649  1.00  0.00     0.088 C 
HETATM   13  C15 UNL     1      26.349   3.658  49.921  1.00  0.00     0.059 C 
HETATM   14  C16 UNL     1      26.453   4.854  49.338  1.00  0.00     0.104 C 
HETATM   15  N3  UNL     1      24.877   3.438  49.721  1.00  0.00    -0.330 N 
HETATM   16  O2  UNL     1      23.476   3.200  49.478  1.00  0.00     0.000 OA
HETATM   17  C17 UNL     1      22.758   4.534  49.945  1.00  0.00     0.656 A 
HETATM   18  N4  UNL     1      22.959   5.276  50.917  1.00  0.00     0.285 N 
HETATM   19  C18 UNL     1      22.222   6.638  50.878  1.00  0.00     0.545 A 
HETATM   20  N5  UNL     1      22.981   5.549  51.184  1.00  0.00     0.285 N 
HETATM   21  H10 UNL     1      23.359   1.650  51.942  1.00  0.00     0.165 HD
HETATM   22  H18 UNL     1      25.456   2.951  48.835  1.00  0.00     0.180 HD
ENDROOT
BRANCH  11  23
HETATM   23  C11 UNL     1      26.965   1.728  53.814  1.00  0.00     0.041 C 
HETATM   24  C12 UNL     1      27.953   0.897  54.037  1.00  0.00     0.107 C 
HETATM   25  F1  UNL     1      28.960   1.006  54.922  1.00  0.00    -0.210 F 
BRANCH  24  26
HETATM   26  C13 UNL     1      28.214  -0.389  53.315  1.00  0.00     0.184 C 
HETATM   27 CL1  UNL     1      29.983  -0.702  53.524  1.00  0.00    -0.123 Cl
ENDBRANCH  24  26
ENDBRANCH  11  23
BRANCH   1  28
HETATM   28  O1  UNL     1      27.697   6.526  48.779  1.00  0.00    -0.356 OA
HETATM   29  C1  UNL     1      28.777   5.850  48.195  1.00  0.00     0.210 C 
ENDBRANCH   1  28
TORSDOF 4
ENDMDL
MODEL 4
REMARK VINA RESULT:      -8.2      4.522      6.512
REMARK  4 active torsions:
REMARK  status: ('A' for Active; 'I' for Inactive)
REMARK    1  A    between atoms: O1_2  and  C2_3 
REMARK    2  A    between atoms: C7_9  and  N4_25 
REMARK    3  A    between atoms: C10_13  and  C11_14 
REMARK    4  A    between atoms: C12_15  and  C13_17 
ROOT
HETATM    1  C2  UNL     1      22.283   2.207  48.184  1.00  0.00     0.063 C 
HETATM    2  C3  UNL     1      21.734   1.372  49.074  1.00  0.00     0.015 C 
HETATM    3  C4  UNL     1      21.325   0.639  50.251  1.00  0.00     0.025 C 
HETATM    4  C5  UNL     1      21.429   0.495  51.528  1.00  0.00     0.029 C 
HETATM    5  C6  UNL     1      22.033   0.937  52.862  1.00  0.00     0.291 C 
HETATM    6  N1  UNL     1      22.942   1.985  52.678  1.00  0.00     0.247 N 
HETATM    7  C7  UNL     1      21.964   3.049  52.220  1.00  0.00     0.598 A 
HETATM    8  C8  UNL     1      22.553   4.517  52.107  1.00  0.00     0.171 C 
HETATM    9  N2  UNL     1      23.703   5.396  52.243  1.00  0.00    -0.367 N 
HETATM   10  C9  UNL     1      24.345   5.914  50.997  1.00  0.00     0.011 C 
HETATM   11  C10 UNL     1      24.187   7.226  51.064  1.00  0.00     0.028 C 
HETATM   12  C14 UNL     1      25.008   5.108  49.943  1.00  0.00     0.088 C 
HETATM   13  C15 UNL     1      24.015   4.028  49.421  1.00  0.00     0.059 C 
HETATM   14  C16 UNL     1      23.211   3.200  48.751  1.00  0.00     0.104 C 
HETATM   15  N3  UNL     1      23.775   3.502  50.807  1.00  0.00    -0.330 N 
HETATM   16  O2  UNL     1      23.590   2.960  52.130  1.00  0.00     0.000 OA
HETATM   17  C17 UNL     1      22.017   2.844  52.298  1.00  0.00     0.656 A 
HETATM   18  N4  UNL     1      21.099   3.601  51.954  1.00  0.00     0.285 N 
HETATM   19  C18 UNL     1      19.673   3.003  52.053  1.00  0.00     0.545 A 
HETATM   20  N5  UNL     1      20.775   3.781  51.861  1.00  0.00     0.285 N 
HETATM   21  H10 UNL     1      24.040   5.619  53.232  1.00  0.00     0.165 HD
HETATM   22  H18 UNL     1      24.707   2.968  50.356  1.00  0.00     0.180 HD
ENDROOT
BRANCH  11  23
HETATM   23  C11 UNL     1      24.547   8.309  50.228  1.00  0.00     0.041 C 
HETATM   24  C12 UNL     1      25.530   9.023  49.738  1.00  0.00     0.107 C 
HETATM   25  F1  UNL     1      25.469  10.076  48.903  1.00  0.00    -0.210 F 
BRANCH  24  26
HETATM   26  C13 UNL     1      26.992   8.806  49.976  1.00  0.00     0.184 C 
HETATM   27 CL1  UNL     1      27.479   7.514  48.807  1.00  0.00    -0.123 Cl
ENDBRANCH  24  26
ENDBRANCH  11  23
BRANCH   1  28
HETATM   28  O1  UNL     1      22.371   2.577  46.864  1.00  0.00    -0.356 OA
HETATM   29  C1  UNL     1      21.847   3.759  46.321  1.00  0.00     0.210 C 
ENDBRANCH   1  28
TORSDOF 4
ENDMDL
MODEL 5
REMARK VINA RESULT:      -8.0      5.149      8.156
REMARK  4 active torsions:
REMARK  status: ('A' for Active; 'I' for Inactive)
REMARK    1  A    between atoms: O1_2  and  C2_3 
REMARK    2  A    between atoms: C7_9  and  N4_25 
REMARK    3  A    between atoms: C10_13  and  C11_14 
REMARK    4  A    between atoms: C12_15  and  C13_17 
ROOT
HETATM    1  C2  UNL     1      26.641   4.571  49.387  1.00  0.00     0.063 C 
HETATM    2  C3  UNL     1      26.478   3.442  50.088  1.00  0.00     0.015 C 
HETATM    3  C4  UNL     1      26.082   2.404  51.013  1.00  0.00     0.025 C 
HETATM    4  C5  UNL     1      25.337   2.067  52.010  1.00  0.00     0.029 C 
HETATM    5  C6  UNL     1      24.271   2.433  53.043  1.00  0.00     0.291 C 
HETATM    6  N1  UNL     1      23.895   3.775  52.924  1.00  0.00     0.247 N 
HETATM    7  C7  UNL     1      23.233   3.699  51.561  1.00  0.00     0.598 A 
HETATM    8  C8  UNL     1      22.441   4.997  51.111  1.00  0.00     0.171 C 
HETATM    9  N2  UNL     1      22.023   6.354  51.424  1.00  0.00    -0.367 N 
HETATM   10  C9  UNL     1      22.670   7.478  50.684  1.00  0.00     0.011 C 
HETATM   11  C10 UNL     1      21.680   8.049  50.017  1.00  0.00     0.028 C 
HETATM   12  C14 UNL     1      24.106   7.848  50.717  1.00  0.00     0.088 C 
HETATM   13  C15 UNL     1      24.965   6.609  50.325  1.00  0.00     0.059 C 
HETATM   14  C16 UNL     1      25.796   5.697  49.816  1.00  0.00     0.104 C 
HETATM   15  N3  UNL     1      24.326   5.762  51.387  1.00  0.00    -0.330 N 
HETATM   16  O2  UNL     1      23.754   4.967  52.445  1.00  0.00     0.000 OA
HETATM   17  C17 UNL     1      23.335   3.608  51.742  1.00  0.00     0.656 A 
HETATM   18  N4  UNL     1      22.822   3.382  50.637  1.00  0.00     0.285 N 
HETATM   19  C18 UNL     1      22.819   1.896  50.198  1.00  0.00     0.545 A 
HETATM   20  N5  UNL     1      22.682   3.247  50.308  1.00  0.00     0.285 N 
HETATM   21  H10 UNL     1      21.277   6.479  52.179  1.00  0.00     0.165 HD
HETATM   22  H18 UNL     1      25.229   6.333  51.852  1.00  0.00     0.180 HD
ENDROOT
BRANCH  11  23
HETATM   23  C11 UNL     1      21.590   9.148  49.130  1.00  0.00     0.041 C 
HETATM   24  C12 UNL     1      22.204   9.862  48.220  1.00  0.00     0.107 C 
HETATM   25  F1  UNL     1      21.751  10.936  47.548  1.00  0.00    -0.210 F 
BRANCH  24  26
HETATM   26  C13 UNL     1      23.579   9.622  47.679  1.00  0.00     0.184 C 
HETATM   27 CL1  UNL     1      23.534   7.951  46.987  1.00  0.00    -0.123 Cl
ENDBRANCH  24  26
ENDBRANCH  11  23
BRANCH   1  28
HETATM   28  O1  UNL     1      27.306   5.194  48.360  1.00  0.00    -0.356 OA
HETATM   29  C1  UNL     1      28.686   5.444  48.326  1.00  0.00     0.210 C 
ENDBRANCH   1  28
TORSDOF 4
ENDMDL
MODEL 6
REMARK VINA RESULT:      -7.8     10.597     13.230
REMARK  4 active torsions:
REMARK  status: ('A' for Active; 'I' for Inactive)
REMARK    1  A    between atoms: O1_2  and  C2_3 
REMARK    2  A    between atoms: C7_9  and  N4_25 
REMARK    3  A    between atoms: C10_13  and  C11_14 
REMARK    4  A    between atoms: C12_15  and  C13_17 
ROOT
HETATM    1  C2  UNL     1      33.877   6.655  44.286  1.00  0.00     0.063 C 
HETATM    2  C3  UNL     1      34.278   5.391  44.468  1.00  0.00     0.015 C 
HETATM    3  C4  UNL     1      34.684   4.103  44.984  1.00  0.00     0.025 C 
HETATM    4  C5  UNL     1      34.903   3.372  46.023  1.00  0.00     0.029 C 
HETATM    5  C6  UNL     1      34.928   3.215  47.545  1.00  0.00     0.291 C 
HETATM    6  N1  UNL     1      34.582   4.412  48.179  1.00  0.00     0.247 N 
HETATM    7  C7  UNL     1      33.135   4.491  47.731  1.00  0.00     0.598 A 
HETATM    8  C8  UNL     1      32.263   5.619  48.424  1.00  0.00     0.171 C 
HETATM    9  N2  UNL     1      32.203   6.721  49.370  1.00  0.00    -0.367 N 
HETATM   10  C9  UNL     1      32.104   8.109  48.830  1.00  0.00     0.011 C 
HETATM   11  C10 UNL     1      30.939   8.555  49.273  1.00  0.00     0.028 C 
HETATM   12  C14 UNL     1      33.110   8.806  47.990  1.00  0.00     0.088 C 
HETATM   13  C15 UNL     1      33.412   7.943  46.729  1.00  0.00     0.059 C 
HETATM   14  C16 UNL     1      33.611   7.407  45.523  1.00  0.00     0.104 C 
HETATM   15  N3  UNL     1      33.752   6.743  47.566  1.00  0.00    -0.330 N 
HETATM   16  O2  UNL     1      34.134   5.610  48.371  1.00  0.00     0.000 OA
HETATM   17  C17 UNL     1      33.337   4.389  47.746  1.00  0.00     0.656 A 
HETATM   18  N4  UNL     1      32.180   4.303  47.311  1.00  0.00     0.285 N 
HETATM   19  C18 UNL     1      31.860   3.005  46.528  1.00  0.00     0.545 A 
HETATM   20  N5  UNL     1      31.844   4.217  47.150  1.00  0.00     0.285 N 
HETATM   21  H10 UNL     1      32.245   6.480  50.411  1.00  0.00     0.165 HD
HETATM   22  H18 UNL     1      34.707   7.397  47.438  1.00  0.00     0.180 HD
ENDROOT
BRANCH  11  23
HETATM   23  C11 UNL     1      30.229   9.771  49.135  1.00  0.00     0.041 C 
HETATM   24  C12 UNL     1      29.064  10.330  48.922  1.00  0.00     0.107 C 
HETATM   25  F1  UNL     1      28.761  11.638  48.847  1.00  0.00    -0.210 F 
BRANCH  24  26
HETATM   26  C13 UNL     1      27.758   9.622  48.736  1.00  0.00     0.184 C 
HETATM   27 CL1  UNL     1      27.208   9.193  50.406  1.00  0.00    -0.123 Cl
ENDBRANCH  24  26
ENDBRANCH  11  23
BRANCH   1  28
HETATM   28  O1  UNL     1      33.581   7.643  43.379  1.00  0.00    -0.356 OA
HETATM   29  C1  UNL     1      32.457   7.656  42.540  1.00  0.00     0.210 C 
ENDBRANCH   1  28
TORSDOF 4
ENDMDL
MODEL 7
REMARK VINA RESULT:      -7.7      3.646      5.459
REMARK  4 active torsions:
REMARK  status: ('A' for Active; 'I' for Inactive)
REMARK    1  A    between atoms: O1_2  and  C2_3 
REMARK    2  A    between atoms: C7_9  and  N4_25 
REMARK    3  A    between atoms: C10_13  and  C11_14 
REMARK    4  A    between atoms: C12_15  and  C13_17 
ROOT
HETATM    1  C2  UNL     1      24.078   0.867  52.855  1.00  0.00     0.063 C 
HETATM    2  C3  UNL     1      22.927   0.231  52.604  1.00  0.00     0.015 C 
HETATM    3  C4  UNL     1      21.565  -0.150  52.309  1.00  0.00     0.025 C 
HETATM    4  C5  UNL     1      20.363   0.238  52.047  1.00  0.00     0.029 C 
HETATM    5  C6  UNL     1      19.362   1.373  51.825  1.00  0.00     0.291 C 
HETATM    6  N1  UNL     1      19.970   2.621  52.003  1.00  0.00     0.247 N 
HETATM    7  C7  UNL     1      20.913   2.579  50.817  1.00  0.00     0.598 A 
HETATM    8  C8  UNL     1      21.669   3.935  50.493  1.00  0.00     0.171 C 
HETATM    9  N2  UNL     1      21.904   5.326  50.843  1.00  0.00    -0.367 N 
HETATM   10  C9  UNL     1      23.217   5.685  51.458  1.00  0.00     0.011 C 
HETATM   11  C10 UNL     1      23.775   6.514  50.589  1.00  0.00     0.028 C 
HETATM   12  C14 UNL     1      23.746   5.204  52.759  1.00  0.00     0.088 C 
HETATM   13  C15 UNL     1      23.751   3.647  52.767  1.00  0.00     0.059 C 
HETATM   14  C16 UNL     1      23.995   2.336  52.830  1.00  0.00     0.104 C 
HETATM   15  N3  UNL     1      22.291   3.587  52.418  1.00  0.00    -0.330 N 
HETATM   16  O2  UNL     1      20.878   3.530  52.141  1.00  0.00     0.000 OA
HETATM   17  C17 UNL     1      20.747   2.496  50.946  1.00  0.00     0.656 A 
HETATM   18  N4  UNL     1      21.444   2.317  49.937  1.00  0.00     0.285 N 
HETATM   19  C18 UNL     1      21.143   1.021  49.143  1.00  0.00     0.545 A 
HETATM   20  N5  UNL     1      21.624   2.203  49.620  1.00  0.00     0.285 N 
HETATM   21  H10 UNL     1      21.117   6.023  50.652  1.00  0.00     0.165 HD
HETATM   22  H18 UNL     1      22.400   3.667  53.575  1.00  0.00     0.180 HD
ENDROOT
BRANCH  11  23
HETATM   23  C11 UNL     1      25.001   7.217  50.542  1.00  0.00     0.041 C 
HETATM   24  C12 UNL     1      26.099   7.442  49.863  1.00  0.00     0.107 C 
HETATM   25  F1  UNL     1      27.130   8.247  50.176  1.00  0.00    -0.210 F 
BRANCH  24  26
HETATM   26  C13 UNL     1      26.456   6.861  48.530  1.00  0.00     0.184 C 
HETATM   27 CL1  UNL     1      26.835   5.122  48.855  1.00  0.00    -0.123 Cl
ENDBRANCH  24  26
ENDBRANCH  11  23
BRANCH   1  28
HETATM   28  O1  UNL     1      25.414   0.743  53.153  1.00  0.00    -0.356 OA
HETATM   29  C1  UNL     1      26.220  -0.349  52.802  1.00  0.00     0.210 C 
ENDBRANCH   1  28
TORSDOF 4
ENDMDL
MODEL 8
REMARK VINA RESULT:      -7.7      3.606      5.404
REMARK  4 active torsions:
REMARK  status: ('A' for Active; 'I' for Inactive)
REMARK    1  A    between atoms: O1_2  and  C2_3 
REMARK    2  A    between atoms: C7_9  and  N4_25 
REMARK    3  A    between atoms: C10_13  and  C11_14 
REMARK    4  A    between atoms: C12_15  and  C13_17 
ROOT
HETATM    1  C2  UNL     1      22.073   4.250  47.747  1.00  0.00     0.063 C 
HETATM    2  C3  UNL     1      22.807   5.360  47.599  1.00  0.00     0.015 C 
HETATM    3  C4  UNL     1      23.633   6.534  47.765  1.00  0.00     0.025 C 
HETATM    4  C5  UNL     1      24.282   7.296  48.578  1.00  0.00     0.029 C 
HETATM    5  C6  UNL     1      24.737   7.623  50.001  1.00  0.00     0.291 C 
HETATM    6  N1  UNL     1      24.208   6.711  50.920  1.00  0.00     0.247 N 
HETATM    7  C7  UNL     1      24.950   5.473  50.455  1.00  0.00     0.598 A 
HETATM    8  C8  UNL     1      24.814   4.200  51.392  1.00  0.00     0.171 C 
HETATM    9  N2  UNL     1      24.250   3.613  52.596  1.00  0.00    -0.367 N 
HETATM   10  C9  UNL     1      23.152   2.613  52.444  1.00  0.00     0.011 C 
HETATM   11  C10 UNL     1      23.650   1.494  52.946  1.00  0.00     0.028 C 
HETATM   12  C14 UNL     1      21.809   2.855  51.861  1.00  0.00     0.088 C 
HETATM   13  C15 UNL     1      21.971   3.442  50.427  1.00  0.00     0.059 C 
HETATM   14  C16 UNL     1      21.966   3.755  49.130  1.00  0.00     0.104 C 
HETATM   15  N3  UNL     1      22.847   4.556  50.924  1.00  0.00    -0.330 N 
HETATM   16  O2  UNL     1      23.640   5.657  51.409  1.00  0.00     0.000 OA
HETATM   17  C17 UNL     1      24.903   5.694  50.450  1.00  0.00     0.656 A 
HETATM   18  N4  UNL     1      25.589   4.783  49.964  1.00  0.00     0.285 N 
HETATM   19  C18 UNL     1      26.575   5.217  48.851  1.00  0.00     0.545 A 
HETATM   20  N5  UNL     1      25.826   4.552  49.773  1.00  0.00     0.285 N 
HETATM   21  H10 UNL     1      24.645   3.938  53.535  1.00  0.00     0.165 HD
HETATM   22  H18 UNL     1      21.733   4.884  51.012  1.00  0.00     0.180 HD
ENDROOT
BRANCH  11  23
HETATM   23  C11 UNL     1      23.156   0.180  53.113  1.00  0.00     0.041 C 
HETATM   24  C12 UNL     1      22.184  -0.565  53.581  1.00  0.00     0.107 C 
HETATM   25  F1  UNL     1      22.064  -1.904  53.554  1.00  0.00    -0.210 F 
BRANCH  24  26
HETATM   26  C13 UNL     1      20.933  -0.080  54.245  1.00  0.00     0.184 C 
HETATM   27 CL1  UNL     1      19.670  -0.094  52.950  1.00  0.00    -0.123 Cl
ENDBRANCH  24  26
ENDBRANCH  11  23
BRANCH   1  28
HETATM   28  O1  UNL     1      21.311   3.289  47.127  1.00  0.00    -0.356 OA
HETATM   29  C1  UNL     1      19.926   3.135  47.282  1.00  0.00     0.210 C 
ENDBRANCH   1  28
TORSDOF 4
ENDMDL
MODEL 9
REMARK VINA RESULT:      -7.7      9.870     12.667
REMARK  4 active torsions:
REMARK  status: ('A' for Active; 'I' for Inactive)
REMARK    1  A    between atoms: O1_2  and  C2_3 
REMARK    2  A    between atoms: C7_9  and  N4_25 
REMARK    3  A    between atoms: C10_13  and  C11_14 
REMARK    4  A    between atoms: C12_15  and  C13_17 
ROOT
HETATM    1  C2  UNL     1      33.244   5.702  43.732  1.00  0.00     0.063 C 
HETATM    2  C3  UNL     1      34.065   4.778  44.244  1.00  0.00     0.015 C 
HETATM    3  C4  UNL     1      34.836   3.891  45.085  1.00  0.00     0.025 C 
HETATM    4  C5  UNL     1      35.120   3.508  46.284  1.00  0.00     0.029 C 
HETATM    5  C6  UNL     1      34.911   3.634  47.794  1.00  0.00     0.291 C 
HETATM    6  N1  UNL     1      34.008   4.660  48.092  1.00  0.00     0.247 N 
HETATM    7  C7  UNL     1      32.762   4.041  47.488  1.00  0.00     0.598 A 
HETATM    8  C8  UNL     1      31.402   4.793  47.803  1.00  0.00     0.171 C 
HETATM    9  N2  UNL     1      30.734   5.907  48.456  1.00  0.00    -0.367 N 
HETATM   10  C9  UNL     1      30.205   7.010  47.599  1.00  0.00     0.011 C 
HETATM   11  C10 UNL     1      28.897   6.988  47.801  1.00  0.00     0.028 C 
HETATM   12  C14 UNL     1      30.998   7.915  46.731  1.00  0.00     0.088 C 
HETATM   13  C15 UNL     1      31.851   7.062  45.745  1.00  0.00     0.059 C 
HETATM   14  C16 UNL     1      32.472   6.467  44.724  1.00  0.00     0.104 C 
HETATM   15  N3  UNL     1      32.466   6.280  46.869  1.00  0.00    -0.330 N 
HETATM   16  O2  UNL     1      33.099   5.569  47.951  1.00  0.00     0.000 OA
HETATM   17  C17 UNL     1      32.980   4.039  47.548  1.00  0.00     0.656 A 
HETATM   18  N4  UNL     1      32.057   3.399  47.025  1.00  0.00     0.285 N 
HETATM   19  C18 UNL     1      32.429   1.976  46.537  1.00  0.00     0.545 A 
HETATM   20  N5  UNL     1      31.820   3.153  46.854  1.00  0.00     0.285 N 
HETATM   21  H10 UNL     1      30.666   5.886  49.522  1.00  0.00     0.165 HD
HETATM   22  H18 UNL     1      33.094   7.245  46.693  1.00  0.00     0.180 HD
ENDROOT
BRANCH  11  23
HETATM   23  C11 UNL     1      27.808   7.746  47.310  1.00  0.00     0.041 C 
HETATM   24  C12 UNL     1      26.632   8.258  47.578  1.00  0.00     0.107 C 
HETATM   25  F1  UNL     1      25.826   8.976  46.777  1.00  0.00    -0.210 F 
BRANCH  24  26
HETATM   26  C13 UNL     1      25.908   8.186  48.887  1.00  0.00     0.184 C 
HETATM   27 CL1  UNL     1      27.032   8.928  50.095  1.00  0.00    -0.123 Cl
ENDBRANCH  24  26
ENDBRANCH  11  23
BRANCH   1  28
HETATM   28  O1  UNL     1      32.765   6.304  42.593  1.00  0.00    -0.356 OA
HETATM   29  C1  UNL     1      32.692   5.697  41.331  1.00  0.00     0.210 C 
ENDBRANCH   1  28
TORSDOF 4
ENDMDL
