MODEL 1
REMARK VINA RESULT:      -7.7      0.000      0.000
REMARK  6 active torsions:
REMARK  status: ('A' for Active; 'I' for Inactive)
REMARK    1  A    between atoms: C3_3  and  C4_4 
REMARK    2  A    between atoms: C4_4  and  O1_5 
REMARK    3  A    between atoms: O1_5  and  C5_6 
REMARK       I    between atoms: C5_6  and  N1_8 
REMARK    4  A    between atoms: N1_8  and  C6_9 
REMARK    5  A    between atoms: C11_17  and  C12_18 
REMARK    6  A    between atoms: C12_18  and  O3_19 
ROOT
HETATM    1  C6  UNL     1      24.608  -0.208  53.788  1.00  0.00     0.244 C 
HETATM    2  C7  UNL     1      25.042  -0.452  55.254  1.00  0.00     0.175 C 
HETATM    3  N2  UNL     1      26.490  -0.097  55.361  1.00  0.00    -0.371 N 
HETATM    4  C8  UNL     1      27.449  -0.145  54.261  1.00  0.00     0.124 C 
HETATM    5  N3  UNL     1      28.217   0.914  54.582  1.00  0.00    -0.225 NA
HETATM    6  C9  UNL     1      28.423   2.106  53.682  1.00  0.00     0.235 C 
HETATM    7  N4  UNL     1      28.019   2.270  52.412  1.00  0.00    -0.244 NA
HETATM    8  C10 UNL     1      26.760   1.876  51.773  1.00  0.00     0.067 C 
HETATM    9  C11 UNL     1      26.354   2.766  50.844  1.00  0.00     0.029 C 
HETATM   10  C14 UNL     1      25.838   0.672  51.951  1.00  0.00     0.199 C 
HETATM   11  C15 UNL     1      26.844  -0.483  51.994  1.00  0.00     0.015 C 
HETATM   12  C16 UNL     1      27.600  -1.008  53.022  1.00  0.00     0.049 C 
HETATM   13  O4  UNL     1      25.285   0.829  53.211  1.00  0.00    -0.350 OA
HETATM   14  H12 UNL     1      27.152   0.252  56.100  1.00  0.00     0.161 HD
ENDROOT
BRANCH   1  15
HETATM   15  N1  UNL     1      23.207   0.125  53.740  1.00  0.00    -0.309 N 
HETATM   16  C5  UNL     1      22.230  -0.810  53.323  1.00  0.00     0.362 C 
HETATM   17  O2  UNL     1      22.676  -1.919  53.009  1.00  0.00    -0.238 OA
HETATM   18  H8  UNL     1      22.946   1.102  54.031  1.00  0.00     0.167 HD
BRANCH  16  19
HETATM   19  O1  UNL     1      20.895  -0.434  53.296  1.00  0.00    -0.300 OA
BRANCH  19  20
HETATM   20  C4  UNL     1      20.486   0.657  52.518  1.00  0.00     0.208 C 
BRANCH  20  21
HETATM   21  C3  UNL     1      20.502   0.408  51.059  1.00  0.00    -0.005 C 
HETATM   22  C2  UNL     1      21.346   0.804  50.112  1.00  0.00    -0.033 C 
HETATM   23  C1  UNL     1      22.490   1.649  50.553  1.00  0.00     0.036 C 
ENDBRANCH  20  21
ENDBRANCH  19  20
ENDBRANCH  16  19
ENDBRANCH   1  15
BRANCH   9  24
HETATM   24  C12 UNL     1      26.353   3.968  49.990  1.00  0.00     0.196 C 
BRANCH  24  25
HETATM   25  O3  UNL     1      27.413   4.064  49.122  1.00  0.00    -0.392 OA
HETATM   26  C13 UNL     1      27.573   5.309  48.549  1.00  0.00     0.201 C 
ENDBRANCH  24  25
ENDBRANCH   9  24
TORSDOF 6
ENDMDL
MODEL 2
REMARK VINA RESULT:      -7.5      1.579      2.093
REMARK  6 active torsions:
REMARK  status: ('A' for Active; 'I' for Inactive)
REMARK    1  A    between atoms: C3_3  and  C4_4 
REMARK    2  A    between atoms: C4_4  and  O1_5 
REMARK    3  A    between atoms: O1_5  and  C5_6 
REMARK       I    between atoms: C5_6  and  N1_8 
REMARK    4  A    between atoms: N1_8  and  C6_9 
REMARK    5  A    between atoms: C11_17  and  C12_18 
REMARK    6  A    between atoms: C12_18  and  O3_19 
ROOT
HETATM    1  C6  UNL     1      24.902  -0.346  54.052  1.00  0.00     0.244 C 
HETATM    2  C7  UNL     1      25.390  -0.436  55.518  1.00  0.00     0.175 C 
HETATM    3  N2  UNL     1      26.795   0.071  55.558  1.00  0.00    -0.371 N 
HETATM    4  C8  UNL     1      27.730   0.039  54.437  1.00  0.00     0.124 C 
HETATM    5  N3  UNL     1      28.392   1.191  54.660  1.00  0.00    -0.225 NA
HETATM    6  C9  UNL     1      28.454   2.329  53.672  1.00  0.00     0.235 C 
HETATM    7  N4  UNL     1      28.008   2.357  52.406  1.00  0.00    -0.244 NA
HETATM    8  C10 UNL     1      26.783   1.791  51.832  1.00  0.00     0.067 C 
HETATM    9  C11 UNL     1      26.267   2.565  50.855  1.00  0.00     0.029 C 
HETATM   10  C14 UNL     1      25.994   0.517  52.122  1.00  0.00     0.199 C 
HETATM   11  C15 UNL     1      27.115  -0.524  52.218  1.00  0.00     0.015 C 
HETATM   12  C16 UNL     1      27.943  -0.892  53.259  1.00  0.00     0.049 C 
HETATM   13  O4  UNL     1      25.455   0.709  53.384  1.00  0.00    -0.350 OA
HETATM   14  H12 UNL     1      27.434   0.538  56.251  1.00  0.00     0.161 HD
ENDROOT
BRANCH   1  15
HETATM   15  N1  UNL     1      23.473  -0.161  54.021  1.00  0.00    -0.309 N 
HETATM   16  C5  UNL     1      22.605  -0.907  54.853  1.00  0.00     0.362 C 
HETATM   17  O2  UNL     1      23.169  -1.716  55.597  1.00  0.00    -0.238 OA
HETATM   18  H8  UNL     1      23.107   0.557  53.346  1.00  0.00     0.167 HD
BRANCH  16  19
HETATM   19  O1  UNL     1      21.237  -0.687  54.781  1.00  0.00    -0.300 OA
BRANCH  19  20
HETATM   20  C4  UNL     1      20.432  -1.510  53.981  1.00  0.00     0.208 C 
BRANCH  20  21
HETATM   21  C3  UNL     1      19.247  -0.835  53.406  1.00  0.00    -0.005 C 
HETATM   22  C2  UNL     1      18.004  -1.262  53.211  1.00  0.00    -0.033 C 
HETATM   23  C1  UNL     1      17.709  -2.660  53.631  1.00  0.00     0.036 C 
ENDBRANCH  20  21
ENDBRANCH  19  20
ENDBRANCH  16  19
ENDBRANCH   1  15
BRANCH   9  24
HETATM   24  C12 UNL     1      26.124   3.695  49.918  1.00  0.00     0.196 C 
BRANCH  24  25
HETATM   25  O3  UNL     1      27.283   4.073  49.285  1.00  0.00    -0.392 OA
HETATM   26  C13 UNL     1      27.217   5.300  48.656  1.00  0.00     0.201 C 
ENDBRANCH  24  25
ENDBRANCH   9  24
TORSDOF 6
ENDMDL
MODEL 3
REMARK VINA RESULT:      -7.5      2.655      7.171
REMARK  6 active torsions:
REMARK  status: ('A' for Active; 'I' for Inactive)
REMARK    1  A    between atoms: C3_3  and  C4_4 
REMARK    2  A    between atoms: C4_4  and  O1_5 
REMARK    3  A    between atoms: O1_5  and  C5_6 
REMARK       I    between atoms: C5_6  and  N1_8 
REMARK    4  A    between atoms: N1_8  and  C6_9 
REMARK    5  A    between atoms: C11_17  and  C12_18 
REMARK    6  A    between atoms: C12_18  and  O3_19 
ROOT
HETATM    1  C6  UNL     1      24.198   3.048  52.459  1.00  0.00     0.244 C 
HETATM    2  C7  UNL     1      23.816   4.543  52.340  1.00  0.00     0.175 C 
HETATM    3  N2  UNL     1      22.392   4.610  51.889  1.00  0.00    -0.371 N 
HETATM    4  C8  UNL     1      21.709   3.581  51.111  1.00  0.00     0.124 C 
HETATM    5  N3  UNL     1      20.476   3.674  51.644  1.00  0.00    -0.225 NA
HETATM    6  C9  UNL     1      19.767   2.529  52.325  1.00  0.00     0.235 C 
HETATM    7  N4  UNL     1      20.147   1.244  52.405  1.00  0.00    -0.244 NA
HETATM    8  C10 UNL     1      21.482   0.674  52.610  1.00  0.00     0.067 C 
HETATM    9  C11 UNL     1      21.453  -0.446  53.360  1.00  0.00     0.029 C 
HETATM   10  C14 UNL     1      22.874   1.096  52.145  1.00  0.00     0.199 C 
HETATM   11  C15 UNL     1      22.617   1.436  50.673  1.00  0.00     0.015 C 
HETATM   12  C16 UNL     1      22.150   2.580  50.060  1.00  0.00     0.049 C 
HETATM   13  O4  UNL     1      23.141   2.269  52.833  1.00  0.00    -0.350 OA
HETATM   14  H12 UNL     1      21.578   5.269  51.983  1.00  0.00     0.161 HD
ENDROOT
BRANCH   1  15
HETATM   15  N1  UNL     1      25.219   2.881  53.463  1.00  0.00    -0.309 N 
HETATM   16  C5  UNL     1      26.332   2.031  53.263  1.00  0.00     0.362 C 
HETATM   17  O2  UNL     1      26.353   1.454  52.170  1.00  0.00    -0.238 OA
HETATM   18  H8  UNL     1      25.093   3.424  54.355  1.00  0.00     0.167 HD
BRANCH  16  19
HETATM   19  O1  UNL     1      27.284   1.908  54.264  1.00  0.00    -0.300 OA
BRANCH  19  20
HETATM   20  C4  UNL     1      27.911   0.676  54.494  1.00  0.00     0.208 C 
BRANCH  20  21
HETATM   21  C3  UNL     1      29.306   0.599  54.008  1.00  0.00    -0.005 C 
HETATM   22  C2  UNL     1      29.997  -0.408  53.484  1.00  0.00    -0.033 C 
HETATM   23  C1  UNL     1      29.279  -1.705  53.344  1.00  0.00     0.036 C 
ENDBRANCH  20  21
ENDBRANCH  19  20
ENDBRANCH  16  19
ENDBRANCH   1  15
BRANCH   9  24
HETATM   24  C12 UNL     1      20.910  -1.554  54.168  1.00  0.00     0.196 C 
BRANCH  24  25
HETATM   25  O3  UNL     1      21.723  -1.978  55.192  1.00  0.00    -0.392 OA
HETATM   26  C13 UNL     1      22.936  -1.325  55.267  1.00  0.00     0.201 C 
ENDBRANCH  24  25
ENDBRANCH   9  24
TORSDOF 6
ENDMDL
MODEL 4
REMARK VINA RESULT:      -7.2      2.371      6.962
REMARK  6 active torsions:
REMARK  status: ('A' for Active; 'I' for Inactive)
REMARK    1  A    between atoms: C3_3  and  C4_4 
REMARK    2  A    between atoms: C4_4  and  O1_5 
REMARK    3  A    between atoms: O1_5  and  C5_6 
REMARK       I    between atoms: C5_6  and  N1_8 
REMARK    4  A    between atoms: N1_8  and  C6_9 
REMARK    5  A    between atoms: C11_17  and  C12_18 
REMARK    6  A    between atoms: C12_18  and  O3_19 
ROOT
HETATM    1  C6  UNL     1      24.360   3.070  51.573  1.00  0.00     0.244 C 
HETATM    2  C7  UNL     1      24.001   4.576  51.554  1.00  0.00     0.175 C 
HETATM    3  N2  UNL     1      22.516   4.684  51.435  1.00  0.00    -0.371 N 
HETATM    4  C8  UNL     1      21.648   3.683  50.821  1.00  0.00     0.124 C 
HETATM    5  N3  UNL     1      20.568   3.799  51.618  1.00  0.00    -0.225 NA
HETATM    6  C9  UNL     1      20.000   2.663  52.432  1.00  0.00     0.235 C 
HETATM    7  N4  UNL     1      20.353   1.368  52.414  1.00  0.00    -0.244 NA
HETATM    8  C10 UNL     1      21.683   0.762  52.310  1.00  0.00     0.067 C 
HETATM    9  C11 UNL     1      21.793  -0.367  53.039  1.00  0.00     0.029 C 
HETATM   10  C14 UNL     1      22.947   1.156  51.548  1.00  0.00     0.199 C 
HETATM   11  C15 UNL     1      22.376   1.522  50.174  1.00  0.00     0.015 C 
HETATM   12  C16 UNL     1      21.814   2.685  49.690  1.00  0.00     0.049 C 
HETATM   13  O4  UNL     1      23.392   2.312  52.168  1.00  0.00    -0.350 OA
HETATM   14  H12 UNL     1      21.761   5.362  51.714  1.00  0.00     0.161 HD
ENDROOT
BRANCH   1  15
HETATM   15  N1  UNL     1      25.575   2.864  52.321  1.00  0.00    -0.309 N 
HETATM   16  C5  UNL     1      26.800   2.550  51.686  1.00  0.00     0.362 C 
HETATM   17  O2  UNL     1      26.738   2.468  50.454  1.00  0.00    -0.238 OA
HETATM   18  H8  UNL     1      25.504   2.959  53.366  1.00  0.00     0.167 HD
BRANCH  16  19
HETATM   19  O1  UNL     1      27.938   2.362  52.457  1.00  0.00    -0.300 OA
BRANCH  19  20
HETATM   20  C4  UNL     1      27.917   1.472  53.539  1.00  0.00     0.208 C 
BRANCH  20  21
HETATM   21  C3  UNL     1      28.195   0.064  53.179  1.00  0.00    -0.005 C 
HETATM   22  C2  UNL     1      27.378  -0.956  52.937  1.00  0.00    -0.033 C 
HETATM   23  C1  UNL     1      25.918  -0.676  53.035  1.00  0.00     0.036 C 
ENDBRANCH  20  21
ENDBRANCH  19  20
ENDBRANCH  16  19
ENDBRANCH   1  15
BRANCH   9  24
HETATM   24  C12 UNL     1      21.415  -1.472  53.940  1.00  0.00     0.196 C 
BRANCH  24  25
HETATM   25  O3  UNL     1      21.795  -1.309  55.250  1.00  0.00    -0.392 OA
HETATM   26  C13 UNL     1      23.157  -1.375  55.463  1.00  0.00     0.201 C 
ENDBRANCH  24  25
ENDBRANCH   9  24
TORSDOF 6
ENDMDL
MODEL 5
REMARK VINA RESULT:      -6.3      2.479      5.154
REMARK  6 active torsions:
REMARK  status: ('A' for Active; 'I' for Inactive)
REMARK    1  A    between atoms: C3_3  and  C4_4 
REMARK    2  A    between atoms: C4_4  and  O1_5 
REMARK    3  A    between atoms: O1_5  and  C5_6 
REMARK       I    between atoms: C5_6  and  N1_8 
REMARK    4  A    between atoms: N1_8  and  C6_9 
REMARK    5  A    between atoms: C11_17  and  C12_18 
REMARK    6  A    between atoms: C12_18  and  O3_19 
ROOT
HETATM    1  C6  UNL     1      24.462   3.045  51.207  1.00  0.00     0.244 C 
HETATM    2  C7  UNL     1      25.693   3.126  50.272  1.00  0.00     0.175 C 
HETATM    3  N2  UNL     1      26.718   2.172  50.791  1.00  0.00    -0.371 N 
HETATM    4  C8  UNL     1      26.842   1.749  52.183  1.00  0.00     0.124 C 
HETATM    5  N3  UNL     1      27.231   0.473  52.000  1.00  0.00    -0.225 NA
HETATM    6  C9  UNL     1      26.467  -0.721  52.518  1.00  0.00     0.235 C 
HETATM    7  N4  UNL     1      25.396  -0.737  53.327  1.00  0.00    -0.244 NA
HETATM    8  C10 UNL     1      24.229   0.150  53.352  1.00  0.00     0.067 C 
HETATM    9  C11 UNL     1      23.095  -0.503  53.678  1.00  0.00     0.029 C 
HETATM   10  C14 UNL     1      24.054   1.643  53.086  1.00  0.00     0.199 C 
HETATM   11  C15 UNL     1      25.237   2.234  53.859  1.00  0.00     0.015 C 
HETATM   12  C16 UNL     1      26.563   2.409  53.521  1.00  0.00     0.049 C 
HETATM   13  O4  UNL     1      24.287   1.795  51.729  1.00  0.00    -0.350 OA
HETATM   14  H12 UNL     1      27.508   1.594  50.406  1.00  0.00     0.161 HD
ENDROOT
BRANCH   1  15
HETATM   15  N1  UNL     1      23.264   3.364  50.472  1.00  0.00    -0.309 N 
HETATM   16  C5  UNL     1      22.245   4.178  51.021  1.00  0.00     0.362 C 
HETATM   17  O2  UNL     1      22.468   4.584  52.167  1.00  0.00    -0.238 OA
HETATM   18  H8  UNL     1      23.186   2.960  49.504  1.00  0.00     0.167 HD
BRANCH  16  19
HETATM   19  O1  UNL     1      21.113   4.453  50.267  1.00  0.00    -0.300 OA
BRANCH  19  20
HETATM   20  C4  UNL     1      20.402   3.410  49.657  1.00  0.00     0.208 C 
BRANCH  20  21
HETATM   21  C3  UNL     1      19.612   2.579  50.593  1.00  0.00    -0.005 C 
HETATM   22  C2  UNL     1      19.816   1.352  51.060  1.00  0.00    -0.033 C 
HETATM   23  C1  UNL     1      21.042   0.654  50.583  1.00  0.00     0.036 C 
ENDBRANCH  20  21
ENDBRANCH  19  20
ENDBRANCH  16  19
ENDBRANCH   1  15
BRANCH   9  24
HETATM   24  C12 UNL     1      22.198  -1.612  54.053  1.00  0.00     0.196 C 
BRANCH  24  25
HETATM   25  O3  UNL     1      21.126  -1.253  54.833  1.00  0.00    -0.392 OA
HETATM   26  C13 UNL     1      20.742   0.066  54.706  1.00  0.00     0.201 C 
ENDBRANCH  24  25
ENDBRANCH   9  24
TORSDOF 6
ENDMDL
MODEL 6
REMARK VINA RESULT:      -6.2      2.815      5.900
REMARK  6 active torsions:
REMARK  status: ('A' for Active; 'I' for Inactive)
REMARK    1  A    between atoms: C3_3  and  C4_4 
REMARK    2  A    between atoms: C4_4  and  O1_5 
REMARK    3  A    between atoms: O1_5  and  C5_6 
REMARK       I    between atoms: C5_6  and  N1_8 
REMARK    4  A    between atoms: N1_8  and  C6_9 
REMARK    5  A    between atoms: C11_17  and  C12_18 
REMARK    6  A    between atoms: C12_18  and  O3_19 
ROOT
HETATM    1  C6  UNL     1      23.500   2.003  51.887  1.00  0.00     0.244 C 
HETATM    2  C7  UNL     1      22.084   1.503  51.509  1.00  0.00     0.175 C 
HETATM    3  N2  UNL     1      21.489   2.501  50.570  1.00  0.00    -0.371 N 
HETATM    4  C8  UNL     1      21.839   3.918  50.518  1.00  0.00     0.124 C 
HETATM    5  N3  UNL     1      21.732   4.131  49.193  1.00  0.00    -0.225 NA
HETATM    6  C9  UNL     1      22.867   4.617  48.326  1.00  0.00     0.235 C 
HETATM    7  N4  UNL     1      24.084   5.036  48.706  1.00  0.00    -0.244 NA
HETATM    8  C10 UNL     1      24.970   4.513  49.749  1.00  0.00     0.067 C 
HETATM    9  C11 UNL     1      26.272   4.595  49.407  1.00  0.00     0.029 C 
HETATM   10  C14 UNL     1      24.708   3.906  51.126  1.00  0.00     0.199 C 
HETATM   11  C15 UNL     1      23.663   4.871  51.694  1.00  0.00     0.015 C 
HETATM   12  C16 UNL     1      22.293   4.936  51.547  1.00  0.00     0.049 C 
HETATM   13  O4  UNL     1      24.098   2.689  50.869  1.00  0.00    -0.350 OA
HETATM   14  H12 UNL     1      20.787   2.509  49.786  1.00  0.00     0.161 HD
ENDROOT
BRANCH   1  15
HETATM   15  N1  UNL     1      24.350   0.881  52.195  1.00  0.00    -0.309 N 
HETATM   16  C5  UNL     1      25.288   0.924  53.255  1.00  0.00     0.362 C 
HETATM   17  O2  UNL     1      25.313   1.988  53.882  1.00  0.00    -0.238 OA
HETATM   18  H8  UNL     1      24.239   0.028  51.592  1.00  0.00     0.167 HD
BRANCH  16  19
HETATM   19  O1  UNL     1      26.081  -0.186  53.506  1.00  0.00    -0.300 OA
BRANCH  19  20
HETATM   20  C4  UNL     1      27.253  -0.397  52.767  1.00  0.00     0.208 C 
BRANCH  20  21
HETATM   21  C3  UNL     1      28.458   0.248  53.334  1.00  0.00    -0.005 C 
HETATM   22  C2  UNL     1      29.638  -0.255  53.684  1.00  0.00    -0.033 C 
HETATM   23  C1  UNL     1      29.821  -1.719  53.487  1.00  0.00     0.036 C 
ENDBRANCH  20  21
ENDBRANCH  19  20
ENDBRANCH  16  19
ENDBRANCH   1  15
BRANCH   9  24
HETATM   24  C12 UNL     1      27.474   4.891  48.604  1.00  0.00     0.196 C 
BRANCH  24  25
HETATM   25  O3  UNL     1      27.917   6.189  48.680  1.00  0.00    -0.392 OA
HETATM   26  C13 UNL     1      27.119   7.105  48.024  1.00  0.00     0.201 C 
ENDBRANCH  24  25
ENDBRANCH   9  24
TORSDOF 6
ENDMDL
MODEL 7
REMARK VINA RESULT:      -6.1      3.326      6.205
REMARK  6 active torsions:
REMARK  status: ('A' for Active; 'I' for Inactive)
REMARK    1  A    between atoms: C3_3  and  C4_4 
REMARK    2  A    between atoms: C4_4  and  O1_5 
REMARK    3  A    between atoms: O1_5  and  C5_6 
REMARK       I    between atoms: C5_6  and  N1_8 
REMARK    4  A    between atoms: N1_8  and  C6_9 
REMARK    5  A    between atoms: C11_17  and  C12_18 
REMARK    6  A    between atoms: C12_18  and  O3_19 
ROOT
HETATM    1  C6  UNL     1      24.567   2.837  52.211  1.00  0.00     0.244 C 
HETATM    2  C7  UNL     1      24.163   1.507  51.531  1.00  0.00     0.175 C 
HETATM    3  N2  UNL     1      22.969   1.781  50.677  1.00  0.00    -0.371 N 
HETATM    4  C8  UNL     1      21.998   2.847  50.908  1.00  0.00     0.124 C 
HETATM    5  N3  UNL     1      21.711   3.174  49.633  1.00  0.00    -0.225 NA
HETATM    6  C9  UNL     1      21.920   4.551  49.053  1.00  0.00     0.235 C 
HETATM    7  N4  UNL     1      22.278   5.677  49.689  1.00  0.00    -0.244 NA
HETATM    8  C10 UNL     1      23.251   5.874  50.768  1.00  0.00     0.067 C 
HETATM    9  C11 UNL     1      23.907   7.047  50.661  1.00  0.00     0.029 C 
HETATM   10  C14 UNL     1      23.655   5.022  51.968  1.00  0.00     0.199 C 
HETATM   11  C15 UNL     1      22.290   4.576  52.503  1.00  0.00     0.015 C 
HETATM   12  C16 UNL     1      21.456   3.537  52.145  1.00  0.00     0.049 C 
HETATM   13  O4  UNL     1      24.302   3.923  51.426  1.00  0.00    -0.350 OA
HETATM   14  H12 UNL     1      22.535   1.394  49.799  1.00  0.00     0.161 HD
ENDROOT
BRANCH   1  15
HETATM   15  N1  UNL     1      25.984   2.844  52.473  1.00  0.00    -0.309 N 
HETATM   16  C5  UNL     1      26.518   2.396  53.705  1.00  0.00     0.362 C 
HETATM   17  O2  UNL     1      25.678   2.005  54.522  1.00  0.00    -0.238 OA
HETATM   18  H8  UNL     1      26.603   3.200  51.701  1.00  0.00     0.167 HD
BRANCH  16  19
HETATM   19  O1  UNL     1      27.891   2.426  53.903  1.00  0.00    -0.300 OA
BRANCH  19  20
HETATM   20  C4  UNL     1      28.715   1.486  53.267  1.00  0.00     0.208 C 
BRANCH  20  21
HETATM   21  C3  UNL     1      28.624   0.118  53.825  1.00  0.00    -0.005 C 
HETATM   22  C2  UNL     1      27.898  -0.932  53.455  1.00  0.00    -0.033 C 
HETATM   23  C1  UNL     1      27.006  -0.742  52.278  1.00  0.00     0.036 C 
ENDBRANCH  20  21
ENDBRANCH  19  20
ENDBRANCH  16  19
ENDBRANCH   1  15
BRANCH   9  24
HETATM   24  C12 UNL     1      24.313   8.359  50.123  1.00  0.00     0.196 C 
BRANCH  24  25
HETATM   25  O3  UNL     1      25.653   8.642  50.233  1.00  0.00    -0.392 OA
HETATM   26  C13 UNL     1      26.483   7.726  49.621  1.00  0.00     0.201 C 
ENDBRANCH  24  25
ENDBRANCH   9  24
TORSDOF 6
ENDMDL
MODEL 8
REMARK VINA RESULT:      -6.0      3.268      7.500
REMARK  6 active torsions:
REMARK  status: ('A' for Active; 'I' for Inactive)
REMARK    1  A    between atoms: C3_3  and  C4_4 
REMARK    2  A    between atoms: C4_4  and  O1_5 
REMARK    3  A    between atoms: O1_5  and  C5_6 
REMARK       I    between atoms: C5_6  and  N1_8 
REMARK    4  A    between atoms: N1_8  and  C6_9 
REMARK    5  A    between atoms: C11_17  and  C12_18 
REMARK    6  A    between atoms: C12_18  and  O3_19 
ROOT
HETATM    1  C6  UNL     1      24.631   4.133  50.382  1.00  0.00     0.244 C 
HETATM    2  C7  UNL     1      24.637   5.679  50.467  1.00  0.00     0.175 C 
HETATM    3  N2  UNL     1      23.291   6.160  50.034  1.00  0.00    -0.371 N 
HETATM    4  C8  UNL     1      22.397   5.449  49.125  1.00  0.00     0.124 C 
HETATM    5  N3  UNL     1      21.210   5.777  49.669  1.00  0.00    -0.225 NA
HETATM    6  C9  UNL     1      20.217   4.768  50.191  1.00  0.00     0.235 C 
HETATM    7  N4  UNL     1      20.262   3.430  50.095  1.00  0.00    -0.244 NA
HETATM    8  C10 UNL     1      21.405   2.521  50.217  1.00  0.00     0.067 C 
HETATM    9  C11 UNL     1      21.074   1.354  50.808  1.00  0.00     0.029 C 
HETATM   10  C14 UNL     1      22.872   2.636  49.809  1.00  0.00     0.199 C 
HETATM   11  C15 UNL     1      22.754   3.221  48.398  1.00  0.00     0.015 C 
HETATM   12  C16 UNL     1      22.606   4.516  47.947  1.00  0.00     0.049 C 
HETATM   13  O4  UNL     1      23.401   3.603  50.649  1.00  0.00    -0.350 OA
HETATM   14  H12 UNL     1      22.664   6.985  50.218  1.00  0.00     0.161 HD
ENDROOT
BRANCH   1  15
HETATM   15  N1  UNL     1      25.545   3.584  51.351  1.00  0.00    -0.309 N 
HETATM   16  C5  UNL     1      26.707   2.875  50.963  1.00  0.00     0.362 C 
HETATM   17  O2  UNL     1      26.867   2.770  49.743  1.00  0.00    -0.238 OA
HETATM   18  H8  UNL     1      25.304   3.737  52.363  1.00  0.00     0.167 HD
BRANCH  16  19
HETATM   19  O1  UNL     1      27.552   2.369  51.940  1.00  0.00    -0.300 OA
BRANCH  19  20
HETATM   20  C4  UNL     1      27.035   1.593  52.987  1.00  0.00     0.208 C 
BRANCH  20  21
HETATM   21  C3  UNL     1      26.956   0.145  52.693  1.00  0.00    -0.005 C 
HETATM   22  C2  UNL     1      27.781  -0.855  52.989  1.00  0.00    -0.033 C 
HETATM   23  C1  UNL     1      29.011  -0.499  53.748  1.00  0.00     0.036 C 
ENDBRANCH  20  21
ENDBRANCH  19  20
ENDBRANCH  16  19
ENDBRANCH   1  15
BRANCH   9  24
HETATM   24  C12 UNL     1      20.247   0.322  51.461  1.00  0.00     0.196 C 
BRANCH  24  25
HETATM   25  O3  UNL     1      18.986   0.172  50.937  1.00  0.00    -0.392 OA
HETATM   26  C13 UNL     1      18.016   0.936  51.553  1.00  0.00     0.201 C 
ENDBRANCH  24  25
ENDBRANCH   9  24
TORSDOF 6
ENDMDL
MODEL 9
REMARK VINA RESULT:      -6.0      3.991      7.722
REMARK  6 active torsions:
REMARK  status: ('A' for Active; 'I' for Inactive)
REMARK    1  A    between atoms: C3_3  and  C4_4 
REMARK    2  A    between atoms: C4_4  and  O1_5 
REMARK    3  A    between atoms: O1_5  and  C5_6 
REMARK       I    between atoms: C5_6  and  N1_8 
REMARK    4  A    between atoms: N1_8  and  C6_9 
REMARK    5  A    between atoms: C11_17  and  C12_18 
REMARK    6  A    between atoms: C12_18  and  O3_19 
ROOT
HETATM    1  C6  UNL     1      25.050   5.191  49.994  1.00  0.00     0.244 C 
HETATM    2  C7  UNL     1      25.706   6.592  49.953  1.00  0.00     0.175 C 
HETATM    3  N2  UNL     1      24.642   7.579  49.598  1.00  0.00    -0.371 N 
HETATM    4  C8  UNL     1      23.439   7.275  48.828  1.00  0.00     0.124 C 
HETATM    5  N3  UNL     1      22.563   8.092  49.442  1.00  0.00    -0.225 NA
HETATM    6  C9  UNL     1      21.306   7.615  50.126  1.00  0.00     0.235 C 
HETATM    7  N4  UNL     1      20.781   6.380  50.135  1.00  0.00    -0.244 NA
HETATM    8  C10 UNL     1      21.450   5.079  50.233  1.00  0.00     0.067 C 
HETATM    9  C11 UNL     1      20.733   4.184  50.943  1.00  0.00     0.029 C 
HETATM   10  C14 UNL     1      22.778   4.552  49.695  1.00  0.00     0.199 C 
HETATM   11  C15 UNL     1      22.757   5.078  48.256  1.00  0.00     0.015 C 
HETATM   12  C16 UNL     1      23.111   6.297  47.716  1.00  0.00     0.049 C 
HETATM   13  O4  UNL     1      23.749   5.238  50.406  1.00  0.00    -0.350 OA
HETATM   14  H12 UNL     1      24.437   8.597  49.767  1.00  0.00     0.161 HD
ENDROOT
BRANCH   1  15
HETATM   15  N1  UNL     1      25.756   4.345  50.924  1.00  0.00    -0.309 N 
HETATM   16  C5  UNL     1      26.553   3.259  50.490  1.00  0.00     0.362 C 
HETATM   17  O2  UNL     1      26.591   3.102  49.265  1.00  0.00    -0.238 OA
HETATM   18  H8  UNL     1      25.647   4.577  51.944  1.00  0.00     0.167 HD
BRANCH  16  19
HETATM   19  O1  UNL     1      27.210   2.479  51.430  1.00  0.00    -0.300 OA
BRANCH  19  20
HETATM   20  C4  UNL     1      26.476   1.704  52.339  1.00  0.00     0.208 C 
BRANCH  20  21
HETATM   21  C3  UNL     1      27.304   0.907  53.271  1.00  0.00    -0.005 C 
HETATM   22  C2  UNL     1      27.457  -0.407  53.403  1.00  0.00    -0.033 C 
HETATM   23  C1  UNL     1      26.674  -1.263  52.469  1.00  0.00     0.036 C 
ENDBRANCH  20  21
ENDBRANCH  19  20
ENDBRANCH  16  19
ENDBRANCH   1  15
BRANCH   9  24
HETATM   24  C12 UNL     1      19.629   3.621  51.744  1.00  0.00     0.196 C 
BRANCH  24  25
HETATM   25  O3  UNL     1      20.022   2.875  52.829  1.00  0.00    -0.392 OA
HETATM   26  C13 UNL     1      21.009   1.950  52.559  1.00  0.00     0.201 C 
ENDBRANCH  24  25
ENDBRANCH   9  24
TORSDOF 6
ENDMDL
