MODEL 1
REMARK VINA RESULT:      -7.1      0.000      0.000
REMARK  2 active torsions:
REMARK  status: ('A' for Active; 'I' for Inactive)
REMARK    1  A    between atoms: O1_2  and  C2_3 
REMARK    2  A    between atoms: C6_8  and  N2_9 
ROOT
HETATM    1  C2  UNL     1      23.342   2.322  50.452  1.00  0.00     0.105 C 
HETATM    2  C3  UNL     1      22.979   3.656  50.265  1.00  0.00     0.066 C 
HETATM    3  C4  UNL     1      23.914   4.707  50.841  1.00  0.00     0.035 C 
HETATM    4  N1  UNL     1      23.842   4.844  52.178  1.00  0.00    -0.288 NA
HETATM    5  C5  UNL     1      23.946   3.695  53.177  1.00  0.00     0.209 C 
HETATM    6  C6  UNL     1      24.893   2.615  52.572  1.00  0.00     0.070 C 
HETATM    7  C12 UNL     1      24.673   2.414  51.218  1.00  0.00     0.132 C 
HETATM    8  O2  UNL     1      25.961   2.301  50.519  1.00  0.00    -0.318 OA
HETATM    9  C13 UNL     1      26.493   3.436  49.698  1.00  0.00     0.139 C 
HETATM   10  C14 UNL     1      25.991   4.714  49.427  1.00  0.00     0.004 C 
HETATM   11  C15 UNL     1      24.951   5.562  50.183  1.00  0.00     0.088 C 
ENDROOT
BRANCH   6  12
HETATM   12  N2  UNL     1      25.977   1.734  52.796  1.00  0.00    -0.320 N 
HETATM   13  C7  UNL     1      27.305   2.282  52.993  1.00  0.00     0.160 A 
HETATM   14  C8  UNL     1      28.207   1.125  53.171  1.00  0.00     0.012 A 
HETATM   15  C9  UNL     1      28.016  -0.183  53.183  1.00  0.00     0.013 A 
HETATM   16 BR1  UNL     1      29.402  -1.447  53.440  1.00  0.00    -0.051 Br
HETATM   17  C10 UNL     1      26.614  -0.528  52.972  1.00  0.00     0.080 A 
HETATM   18  C11 UNL     1      25.640   0.351  52.789  1.00  0.00     0.192 A 
HETATM   19  F1  UNL     1      24.400  -0.128  52.598  1.00  0.00    -0.186 F 
ENDBRANCH   6  12
BRANCH   1  20
HETATM   20  O1  UNL     1      22.440   1.359  49.920  1.00  0.00    -0.353 OA
HETATM   21  C1  UNL     1      21.585   0.629  50.774  1.00  0.00     0.210 C 
ENDBRANCH   1  20
TORSDOF 2
ENDMDL
MODEL 2
REMARK VINA RESULT:      -6.9      2.086      2.702
REMARK  2 active torsions:
REMARK  status: ('A' for Active; 'I' for Inactive)
REMARK    1  A    between atoms: O1_2  and  C2_3 
REMARK    2  A    between atoms: C6_8  and  N2_9 
ROOT
HETATM    1  C2  UNL     1      21.133   3.294  52.019  1.00  0.00     0.105 C 
HETATM    2  C3  UNL     1      21.035   4.535  51.389  1.00  0.00     0.066 C 
HETATM    3  C4  UNL     1      22.301   5.079  50.746  1.00  0.00     0.035 C 
HETATM    4  N1  UNL     1      23.206   5.560  51.620  1.00  0.00    -0.288 NA
HETATM    5  C5  UNL     1      23.727   4.804  52.838  1.00  0.00     0.209 C 
HETATM    6  C6  UNL     1      23.734   3.283  52.495  1.00  0.00     0.070 C 
HETATM    7  C12 UNL     1      22.602   2.892  51.796  1.00  0.00     0.132 C 
HETATM    8  O2  UNL     1      22.983   1.978  50.710  1.00  0.00    -0.318 OA
HETATM    9  C13 UNL     1      23.021   2.447  49.288  1.00  0.00     0.139 C 
HETATM   10  C14 UNL     1      22.756   3.691  48.703  1.00  0.00     0.004 C 
HETATM   11  C15 UNL     1      22.742   5.102  49.317  1.00  0.00     0.088 C 
ENDROOT
BRANCH   6  12
HETATM   12  N2  UNL     1      24.450   2.065  52.539  1.00  0.00    -0.320 N 
HETATM   13  C7  UNL     1      23.893   0.943  53.269  1.00  0.00     0.160 A 
HETATM   14  C8  UNL     1      24.876  -0.155  53.153  1.00  0.00     0.012 A 
HETATM   15  C9  UNL     1      26.048  -0.266  52.552  1.00  0.00     0.013 A 
HETATM   16 BR1  UNL     1      27.102  -1.838  52.580  1.00  0.00    -0.051 Br
HETATM   17  C10 UNL     1      26.427   0.969  51.872  1.00  0.00     0.080 A 
HETATM   18  C11 UNL     1      25.696   2.073  51.851  1.00  0.00     0.192 A 
HETATM   19  F1  UNL     1      26.190   3.131  51.187  1.00  0.00    -0.186 F 
ENDBRANCH   6  12
BRANCH   1  20
HETATM   20  O1  UNL     1      19.939   2.818  52.628  1.00  0.00    -0.353 OA
HETATM   21  C1  UNL     1      19.126   1.873  51.965  1.00  0.00     0.210 C 
ENDBRANCH   1  20
TORSDOF 2
ENDMDL
MODEL 3
REMARK VINA RESULT:      -6.7      8.442     10.813
REMARK  2 active torsions:
REMARK  status: ('A' for Active; 'I' for Inactive)
REMARK    1  A    between atoms: O1_2  and  C2_3 
REMARK    2  A    between atoms: C6_8  and  N2_9 
ROOT
HETATM    1  C2  UNL     1      34.421   4.627  45.152  1.00  0.00     0.105 C 
HETATM    2  C3  UNL     1      35.207   3.755  45.905  1.00  0.00     0.066 C 
HETATM    3  C4  UNL     1      34.764   3.496  47.336  1.00  0.00     0.035 C 
HETATM    4  N1  UNL     1      35.015   4.507  48.189  1.00  0.00    -0.288 NA
HETATM    5  C5  UNL     1      34.617   5.962  47.955  1.00  0.00     0.209 C 
HETATM    6  C6  UNL     1      33.295   5.973  47.130  1.00  0.00     0.070 C 
HETATM    7  C12 UNL     1      33.292   5.022  46.120  1.00  0.00     0.132 C 
HETATM    8  O2  UNL     1      31.981   4.358  46.071  1.00  0.00    -0.318 OA
HETATM    9  C13 UNL     1      31.801   2.973  46.615  1.00  0.00     0.139 C 
HETATM   10  C14 UNL     1      32.689   2.084  47.231  1.00  0.00     0.004 C 
HETATM   11  C15 UNL     1      34.030   2.340  47.940  1.00  0.00     0.088 C 
ENDROOT
BRANCH   6  12
HETATM   12  N2  UNL     1      32.001   6.521  46.979  1.00  0.00    -0.320 N 
HETATM   13  C7  UNL     1      31.705   7.326  45.810  1.00  0.00     0.160 A 
HETATM   14  C8  UNL     1      30.303   7.770  45.957  1.00  0.00     0.012 A 
HETATM   15  C9  UNL     1      29.377   7.567  46.879  1.00  0.00     0.013 A 
HETATM   16 BR1  UNL     1      27.627   8.284  46.790  1.00  0.00    -0.051 Br
HETATM   17  C10 UNL     1      29.871   6.730  47.968  1.00  0.00     0.080 A 
HETATM   18  C11 UNL     1      31.095   6.228  48.038  1.00  0.00     0.192 A 
HETATM   19  F1  UNL     1      31.399   5.482  49.113  1.00  0.00    -0.186 F 
ENDBRANCH   6  12
BRANCH   1  20
HETATM   20  O1  UNL     1      34.868   4.866  43.823  1.00  0.00    -0.353 OA
HETATM   21  C1  UNL     1      33.978   4.745  42.735  1.00  0.00     0.210 C 
ENDBRANCH   1  20
TORSDOF 2
ENDMDL
MODEL 4
REMARK VINA RESULT:      -6.5      3.101      4.462
REMARK  2 active torsions:
REMARK  status: ('A' for Active; 'I' for Inactive)
REMARK    1  A    between atoms: O1_2  and  C2_3 
REMARK    2  A    between atoms: C6_8  and  N2_9 
ROOT
HETATM    1  C2  UNL     1      24.975   4.161  49.945  1.00  0.00     0.105 C 
HETATM    2  C3  UNL     1      24.354   5.087  49.106  1.00  0.00     0.066 C 
HETATM    3  C4  UNL     1      22.837   5.030  49.028  1.00  0.00     0.035 C 
HETATM    4  N1  UNL     1      22.355   4.004  48.302  1.00  0.00    -0.288 NA
HETATM    5  C5  UNL     1      22.753   2.543  48.490  1.00  0.00     0.209 C 
HETATM    6  C6  UNL     1      23.077   2.322  49.998  1.00  0.00     0.070 C 
HETATM    7  C12 UNL     1      23.798   3.372  50.545  1.00  0.00     0.132 C 
HETATM    8  O2  UNL     1      23.266   3.695  51.877  1.00  0.00    -0.318 OA
HETATM    9  C13 UNL     1      22.408   4.905  52.090  1.00  0.00     0.139 C 
HETATM   10  C14 UNL     1      21.944   5.891  51.212  1.00  0.00     0.004 C 
HETATM   11  C15 UNL     1      21.790   5.877  49.681  1.00  0.00     0.088 C 
ENDROOT
BRANCH   6  12
HETATM   12  N2  UNL     1      22.906   1.498  51.135  1.00  0.00    -0.320 N 
HETATM   13  C7  UNL     1      24.073   1.080  51.887  1.00  0.00     0.160 A 
HETATM   14  C8  UNL     1      23.573   0.220  52.980  1.00  0.00     0.012 A 
HETATM   15  C9  UNL     1      22.367  -0.179  53.344  1.00  0.00     0.013 A 
HETATM   16 BR1  UNL     1      22.033  -1.308  54.827  1.00  0.00    -0.051 Br
HETATM   17  C10 UNL     1      21.331   0.353  52.464  1.00  0.00     0.080 A 
HETATM   18  C11 UNL     1      21.559   1.140  51.423  1.00  0.00     0.192 A 
HETATM   19  F1  UNL     1      20.496   1.539  50.704  1.00  0.00    -0.186 F 
ENDBRANCH   6  12
BRANCH   1  20
HETATM   20  O1  UNL     1      26.396   4.224  49.986  1.00  0.00    -0.353 OA
HETATM   21  C1  UNL     1      27.123   4.700  48.874  1.00  0.00     0.210 C 
ENDBRANCH   1  20
TORSDOF 2
ENDMDL
MODEL 5
REMARK VINA RESULT:      -6.4      7.558      9.888
REMARK  2 active torsions:
REMARK  status: ('A' for Active; 'I' for Inactive)
REMARK    1  A    between atoms: O1_2  and  C2_3 
REMARK    2  A    between atoms: C6_8  and  N2_9 
ROOT
HETATM    1  C2  UNL     1      32.785   8.099  48.086  1.00  0.00     0.105 C 
HETATM    2  C3  UNL     1      33.147   9.328  47.533  1.00  0.00     0.066 C 
HETATM    3  C4  UNL     1      32.022  10.188  46.980  1.00  0.00     0.035 C 
HETATM    4  N1  UNL     1      31.530   9.768  45.800  1.00  0.00    -0.288 NA
HETATM    5  C5  UNL     1      31.061   8.345  45.509  1.00  0.00     0.209 C 
HETATM    6  C6  UNL     1      30.486   7.748  46.830  1.00  0.00     0.070 C 
HETATM    7  C12 UNL     1      31.254   8.073  47.937  1.00  0.00     0.132 C 
HETATM    8  O2  UNL     1      30.375   8.439  49.058  1.00  0.00    -0.318 OA
HETATM    9  C13 UNL     1      30.193   9.872  49.456  1.00  0.00     0.139 C 
HETATM   10  C14 UNL     1      30.718  11.063  48.941  1.00  0.00     0.004 C 
HETATM   11  C15 UNL     1      31.321  11.376  47.560  1.00  0.00     0.088 C 
ENDROOT
BRANCH   6  12
HETATM   12  N2  UNL     1      29.438   7.021  47.440  1.00  0.00    -0.320 N 
HETATM   13  C7  UNL     1      29.713   5.705  47.983  1.00  0.00     0.160 A 
HETATM   14  C8  UNL     1      28.431   5.202  48.517  1.00  0.00     0.012 A 
HETATM   15  C9  UNL     1      27.210   5.707  48.577  1.00  0.00     0.013 A 
HETATM   16 BR1  UNL     1      25.732   4.802  49.341  1.00  0.00    -0.051 Br
HETATM   17  C10 UNL     1      27.144   7.038  47.982  1.00  0.00     0.080 A 
HETATM   18  C11 UNL     1      28.174   7.674  47.444  1.00  0.00     0.192 A 
HETATM   19  F1  UNL     1      27.948   8.894  46.928  1.00  0.00    -0.186 F 
ENDBRANCH   6  12
BRANCH   1  20
HETATM   20  O1  UNL     1      33.859   7.307  48.580  1.00  0.00    -0.353 OA
HETATM   21  C1  UNL     1      35.197   7.667  48.310  1.00  0.00     0.210 C 
ENDBRANCH   1  20
TORSDOF 2
ENDMDL
MODEL 6
REMARK VINA RESULT:      -6.4      3.069      3.993
REMARK  2 active torsions:
REMARK  status: ('A' for Active; 'I' for Inactive)
REMARK    1  A    between atoms: O1_2  and  C2_3 
REMARK    2  A    between atoms: C6_8  and  N2_9 
ROOT
HETATM    1  C2  UNL     1      22.892   4.829  48.183  1.00  0.00     0.105 C 
HETATM    2  C3  UNL     1      23.659   5.994  48.190  1.00  0.00     0.066 C 
HETATM    3  C4  UNL     1      24.504   6.250  49.428  1.00  0.00     0.035 C 
HETATM    4  N1  UNL     1      23.806   6.666  50.502  1.00  0.00    -0.288 NA
HETATM    5  C5  UNL     1      22.568   5.968  51.059  1.00  0.00     0.209 C 
HETATM    6  C6  UNL     1      22.715   4.440  50.792  1.00  0.00     0.070 C 
HETATM    7  C12 UNL     1      23.227   4.168  49.532  1.00  0.00     0.132 C 
HETATM    8  O2  UNL     1      24.224   3.093  49.625  1.00  0.00    -0.318 OA
HETATM    9  C13 UNL     1      25.690   3.394  49.545  1.00  0.00     0.139 C 
HETATM   10  C14 UNL     1      26.394   4.595  49.396  1.00  0.00     0.004 C 
HETATM   11  C15 UNL     1      25.965   6.047  49.675  1.00  0.00     0.088 C 
ENDROOT
BRANCH   6  12
HETATM   12  N2  UNL     1      22.599   3.132  51.316  1.00  0.00    -0.320 N 
HETATM   13  C7  UNL     1      21.658   2.209  50.712  1.00  0.00     0.160 A 
HETATM   14  C8  UNL     1      21.749   0.957  51.491  1.00  0.00     0.012 A 
HETATM   15  C9  UNL     1      22.476   0.584  52.531  1.00  0.00     0.013 A 
HETATM   16 BR1  UNL     1      22.370  -1.130  53.330  1.00  0.00    -0.051 Br
HETATM   17  C10 UNL     1      23.360   1.652  52.986  1.00  0.00     0.080 A 
HETATM   18  C11 UNL     1      23.436   2.854  52.433  1.00  0.00     0.192 A 
HETATM   19  F1  UNL     1      24.296   3.732  52.975  1.00  0.00    -0.186 F 
ENDBRANCH   6  12
BRANCH   1  20
HETATM   20  O1  UNL     1      22.097   4.623  47.021  1.00  0.00    -0.353 OA
HETATM   21  C1  UNL     1      21.864   3.319  46.534  1.00  0.00     0.210 C 
ENDBRANCH   1  20
TORSDOF 2
ENDMDL
MODEL 7
REMARK VINA RESULT:      -6.3      4.148      6.460
REMARK  2 active torsions:
REMARK  status: ('A' for Active; 'I' for Inactive)
REMARK    1  A    between atoms: O1_2  and  C2_3 
REMARK    2  A    between atoms: C6_8  and  N2_9 
ROOT
HETATM    1  C2  UNL     1      25.613   3.542  50.416  1.00  0.00     0.105 C 
HETATM    2  C3  UNL     1      25.288   2.303  50.968  1.00  0.00     0.066 C 
HETATM    3  C4  UNL     1      23.858   2.125  51.453  1.00  0.00     0.035 C 
HETATM    4  N1  UNL     1      23.582   2.749  52.614  1.00  0.00    -0.288 NA
HETATM    5  C5  UNL     1      23.870   4.220  52.901  1.00  0.00     0.209 C 
HETATM    6  C6  UNL     1      23.735   5.007  51.563  1.00  0.00     0.070 C 
HETATM    7  C12 UNL     1      24.293   4.329  50.489  1.00  0.00     0.132 C 
HETATM    8  O2  UNL     1      23.405   4.435  49.322  1.00  0.00    -0.318 OA
HETATM    9  C13 UNL     1      22.554   3.279  48.895  1.00  0.00     0.139 C 
HETATM   10  C14 UNL     1      22.391   1.991  49.419  1.00  0.00     0.004 C 
HETATM   11  C15 UNL     1      22.689   1.436  50.823  1.00  0.00     0.088 C 
ENDROOT
BRANCH   6  12
HETATM   12  N2  UNL     1      23.220   6.152  50.912  1.00  0.00    -0.320 N 
HETATM   13  C7  UNL     1      24.140   7.114  50.338  1.00  0.00     0.160 A 
HETATM   14  C8  UNL     1      23.308   8.192  49.765  1.00  0.00     0.012 A 
HETATM   15  C9  UNL     1      22.003   8.393  49.695  1.00  0.00     0.013 A 
HETATM   16 BR1  UNL     1      21.213   9.907  48.878  1.00  0.00    -0.051 Br
HETATM   17  C10 UNL     1      21.253   7.312  50.326  1.00  0.00     0.080 A 
HETATM   18  C11 UNL     1      21.800   6.251  50.902  1.00  0.00     0.192 A 
HETATM   19  F1  UNL     1      20.971   5.346  51.447  1.00  0.00    -0.186 F 
ENDBRANCH   6  12
BRANCH   1  20
HETATM   20  O1  UNL     1      26.962   3.689  49.987  1.00  0.00    -0.353 OA
HETATM   21  C1  UNL     1      27.285   4.561  48.925  1.00  0.00     0.210 C 
ENDBRANCH   1  20
TORSDOF 2
ENDMDL
MODEL 8
REMARK VINA RESULT:      -6.0      9.194     10.999
REMARK  2 active torsions:
REMARK  status: ('A' for Active; 'I' for Inactive)
REMARK    1  A    between atoms: O1_2  and  C2_3 
REMARK    2  A    between atoms: C6_8  and  N2_9 
ROOT
HETATM    1  C2  UNL     1      34.389   5.185  47.913  1.00  0.00     0.105 C 
HETATM    2  C3  UNL     1      34.400   4.205  46.920  1.00  0.00     0.066 C 
HETATM    3  C4  UNL     1      33.343   4.319  45.833  1.00  0.00     0.035 C 
HETATM    4  N1  UNL     1      32.106   3.955  46.220  1.00  0.00    -0.288 NA
HETATM    5  C5  UNL     1      31.392   4.482  47.462  1.00  0.00     0.209 C 
HETATM    6  C6  UNL     1      31.866   5.947  47.705  1.00  0.00     0.070 C 
HETATM    7  C12 UNL     1      33.228   6.106  47.498  1.00  0.00     0.132 C 
HETATM    8  O2  UNL     1      33.473   7.353  46.760  1.00  0.00    -0.318 OA
HETATM    9  C13 UNL     1      33.818   7.330  45.302  1.00  0.00     0.139 C 
HETATM   10  C14 UNL     1      33.964   6.279  44.390  1.00  0.00     0.004 C 
HETATM   11  C15 UNL     1      33.430   4.836  44.432  1.00  0.00     0.088 C 
ENDROOT
BRANCH   6  12
HETATM   12  N2  UNL     1      31.489   7.275  48.011  1.00  0.00    -0.320 N 
HETATM   13  C7  UNL     1      31.864   7.838  49.293  1.00  0.00     0.160 A 
HETATM   14  C8  UNL     1      31.309   9.207  49.321  1.00  0.00     0.012 A 
HETATM   15  C9  UNL     1      30.608   9.922  48.457  1.00  0.00     0.013 A 
HETATM   16 BR1  UNL     1      30.025  11.694  48.783  1.00  0.00    -0.051 Br
HETATM   17  C10 UNL     1      30.338   9.178  47.231  1.00  0.00     0.080 A 
HETATM   18  C11 UNL     1      30.740   7.938  46.998  1.00  0.00     0.192 A 
HETATM   19  F1  UNL     1      30.403   7.388  45.820  1.00  0.00    -0.186 F 
ENDBRANCH   6  12
BRANCH   1  20
HETATM   20  O1  UNL     1      35.377   5.044  48.927  1.00  0.00    -0.353 OA
HETATM   21  C1  UNL     1      36.187   6.140  49.294  1.00  0.00     0.210 C 
ENDBRANCH   1  20
TORSDOF 2
ENDMDL
MODEL 9
REMARK VINA RESULT:      -6.0      6.943      9.187
REMARK  2 active torsions:
REMARK  status: ('A' for Active; 'I' for Inactive)
REMARK    1  A    between atoms: O1_2  and  C2_3 
REMARK    2  A    between atoms: C6_8  and  N2_9 
ROOT
HETATM    1  C2  UNL     1      28.543  11.459  48.548  1.00  0.00     0.105 C 
HETATM    2  C3  UNL     1      29.711  11.762  47.849  1.00  0.00     0.066 C 
HETATM    3  C4  UNL     1      30.423  10.602  47.171  1.00  0.00     0.035 C 
HETATM    4  N1  UNL     1      31.099   9.796  48.012  1.00  0.00    -0.288 NA
HETATM    5  C5  UNL     1      30.513   9.163  49.270  1.00  0.00     0.209 C 
HETATM    6  C6  UNL     1      28.998   8.897  49.015  1.00  0.00     0.070 C 
HETATM    7  C12 UNL     1      28.382   9.943  48.344  1.00  0.00     0.132 C 
HETATM    8  O2  UNL     1      27.484   9.406  47.311  1.00  0.00    -0.318 OA
HETATM    9  C13 UNL     1      27.870   9.440  45.864  1.00  0.00     0.139 C 
HETATM   10  C14 UNL     1      29.016   9.906  45.209  1.00  0.00     0.004 C 
HETATM   11  C15 UNL     1      30.438  10.163  45.741  1.00  0.00     0.088 C 
ENDROOT
BRANCH   6  12
HETATM   12  N2  UNL     1      27.923   7.986  49.127  1.00  0.00    -0.320 N 
HETATM   13  C7  UNL     1      26.788   8.330  49.961  1.00  0.00     0.160 A 
HETATM   14  C8  UNL     1      25.862   7.180  49.894  1.00  0.00     0.012 A 
HETATM   15  C9  UNL     1      25.897   6.020  49.261  1.00  0.00     0.013 A 
HETATM   16 BR1  UNL     1      24.528   4.717  49.372  1.00  0.00    -0.051 Br
HETATM   17  C10 UNL     1      27.118   5.869  48.475  1.00  0.00     0.080 A 
HETATM   18  C11 UNL     1      28.081   6.775  48.396  1.00  0.00     0.192 A 
HETATM   19  F1  UNL     1      29.147   6.481  47.634  1.00  0.00    -0.186 F 
ENDBRANCH   6  12
BRANCH   1  20
HETATM   20  O1  UNL     1      27.907  12.560  49.188  1.00  0.00    -0.353 OA
HETATM   21  C1  UNL     1      27.601  13.731  48.462  1.00  0.00     0.210 C 
ENDBRANCH   1  20
TORSDOF 2
ENDMDL
