MODEL 1
REMARK VINA RESULT:      -7.4      0.000      0.000
REMARK  8 active torsions:
REMARK  status: ('A' for Active; 'I' for Inactive)
REMARK    1  A    between atoms: C2_2  and  C3_3 
REMARK    2  A    between atoms: C3_3  and  C4_4 
REMARK    3  A    between atoms: C4_4  and  N1_5 
REMARK    4  A    between atoms: N1_5  and  C5_6 
REMARK    5  A    between atoms: N1_5  and  C12_14 
REMARK    6  A    between atoms: C5_6  and  C6_7 
REMARK    7  A    between atoms: C12_14  and  N2_16 
REMARK    8  A    between atoms: N2_16  and  C13_17 
ROOT
HETATM    1  N1  UNL     1      24.737   1.536  51.971  1.00  0.00    -0.354 N 
ENDROOT
BRANCH   1   2
HETATM    2  C4  UNL     1      23.831   1.242  53.093  1.00  0.00     0.125 C 
BRANCH   2   3
HETATM    3  C3  UNL     1      23.440  -0.204  53.081  1.00  0.00     0.020 C 
BRANCH   3   4
HETATM    4  C2  UNL     1      22.046  -0.445  53.510  1.00  0.00    -0.003 C 
HETATM    5  C1  UNL     1      21.996  -0.958  54.925  1.00  0.00     0.005 C 
ENDBRANCH   3   4
ENDBRANCH   2   3
ENDBRANCH   1   2
BRANCH   1   6
HETATM    6  C5  UNL     1      26.005   1.033  51.496  1.00  0.00     0.165 C 
BRANCH   6   7
HETATM    7  C6  UNL     1      27.110   1.137  52.465  1.00  0.00    -0.019 A 
HETATM    8  C7  UNL     1      27.740   2.291  52.880  1.00  0.00     0.010 A 
HETATM    9  C8  UNL     1      28.773   2.197  53.788  1.00  0.00     0.001 A 
HETATM   10  C9  UNL     1      29.243   1.032  54.327  1.00  0.00     0.002 A 
HETATM   11  C10 UNL     1      28.601  -0.139  53.904  1.00  0.00     0.024 A 
HETATM   12  C11 UNL     1      27.568  -0.075  53.001  1.00  0.00     0.042 A 
HETATM   13 CL1  UNL     1      26.899  -1.679  52.646  1.00  0.00    -0.084 Cl
ENDBRANCH   6   7
ENDBRANCH   1   6
BRANCH   1  14
HETATM   14  C12 UNL     1      24.357   2.658  51.134  1.00  0.00     0.174 C 
HETATM   15  S1  UNL     1      23.116   2.565  50.056  1.00  0.00    -0.041 SA
BRANCH  14  16
HETATM   16  N2  UNL     1      24.890   3.984  51.067  1.00  0.00    -0.333 N 
HETATM   17  H16 UNL     1      24.632   4.703  51.811  1.00  0.00     0.168 HD
BRANCH  16  18
HETATM   18  C13 UNL     1      25.776   4.597  50.140  1.00  0.00     0.034 A 
HETATM   19  C14 UNL     1      26.826   3.975  49.497  1.00  0.00     0.029 A 
HETATM   20  C15 UNL     1      27.595   4.721  48.641  1.00  0.00     0.002 A 
HETATM   21  C16 UNL     1      27.286   6.050  48.462  1.00  0.00     0.000 A 
HETATM   22  C17 UNL     1      26.241   6.711  49.088  1.00  0.00     0.002 A 
HETATM   23  C18 UNL     1      25.477   5.950  49.946  1.00  0.00     0.029 A 
ENDBRANCH  16  18
ENDBRANCH  14  16
ENDBRANCH   1  14
TORSDOF 8
ENDMDL
MODEL 2
REMARK VINA RESULT:      -7.3      1.855      5.870
REMARK  8 active torsions:
REMARK  status: ('A' for Active; 'I' for Inactive)
REMARK    1  A    between atoms: C2_2  and  C3_3 
REMARK    2  A    between atoms: C3_3  and  C4_4 
REMARK    3  A    between atoms: C4_4  and  N1_5 
REMARK    4  A    between atoms: N1_5  and  C5_6 
REMARK    5  A    between atoms: N1_5  and  C12_14 
REMARK    6  A    between atoms: C5_6  and  C6_7 
REMARK    7  A    between atoms: C12_14  and  N2_16 
REMARK    8  A    between atoms: N2_16  and  C13_17 
ROOT
HETATM    1  N1  UNL     1      26.112   1.973  52.665  1.00  0.00    -0.354 N 
ENDROOT
BRANCH   1   2
HETATM    2  C4  UNL     1      26.900   2.706  51.660  1.00  0.00     0.125 C 
BRANCH   2   3
HETATM    3  C3  UNL     1      26.350   2.462  50.289  1.00  0.00     0.020 C 
BRANCH   3   4
HETATM    4  C2  UNL     1      25.995   3.700  49.565  1.00  0.00    -0.003 C 
HETATM    5  C1  UNL     1      27.222   4.372  49.006  1.00  0.00     0.005 C 
ENDBRANCH   3   4
ENDBRANCH   2   3
ENDBRANCH   1   2
BRANCH   1   6
HETATM    6  C5  UNL     1      26.401   1.121  53.796  1.00  0.00     0.165 C 
BRANCH   6   7
HETATM    7  C6  UNL     1      27.178  -0.088  53.474  1.00  0.00    -0.019 A 
HETATM    8  C7  UNL     1      26.701  -1.251  52.907  1.00  0.00     0.010 A 
HETATM    9  C8  UNL     1      27.576  -2.294  52.689  1.00  0.00     0.001 A 
HETATM   10  C9  UNL     1      28.909  -2.279  52.994  1.00  0.00     0.002 A 
HETATM   11  C10 UNL     1      29.391  -1.096  53.568  1.00  0.00     0.024 A 
HETATM   12  C11 UNL     1      28.542  -0.041  53.795  1.00  0.00     0.042 A 
HETATM   13 CL1  UNL     1      29.389   1.350  54.498  1.00  0.00    -0.084 Cl
ENDBRANCH   6   7
ENDBRANCH   1   6
BRANCH   1  14
HETATM   14  C12 UNL     1      24.674   2.011  52.487  1.00  0.00     0.174 C 
HETATM   15  S1  UNL     1      23.800   3.389  52.712  1.00  0.00    -0.041 SA
BRANCH  14  16
HETATM   16  N2  UNL     1      23.764   0.982  52.088  1.00  0.00    -0.333 N 
HETATM   17  H16 UNL     1      23.790   0.601  51.092  1.00  0.00     0.168 HD
BRANCH  16  18
HETATM   18  C13 UNL     1      22.748   0.293  52.804  1.00  0.00     0.034 A 
HETATM   19  C14 UNL     1      21.397   0.336  52.527  1.00  0.00     0.029 A 
HETATM   20  C15 UNL     1      20.547  -0.380  53.330  1.00  0.00     0.002 A 
HETATM   21  C16 UNL     1      21.078  -1.107  54.371  1.00  0.00     0.000 A 
HETATM   22  C17 UNL     1      22.426  -1.177  54.682  1.00  0.00     0.002 A 
HETATM   23  C18 UNL     1      23.269  -0.451  53.868  1.00  0.00     0.029 A 
ENDBRANCH  16  18
ENDBRANCH  14  16
ENDBRANCH   1  14
TORSDOF 8
ENDMDL
MODEL 3
REMARK VINA RESULT:      -7.2      2.128      4.319
REMARK  8 active torsions:
REMARK  status: ('A' for Active; 'I' for Inactive)
REMARK    1  A    between atoms: C2_2  and  C3_3 
REMARK    2  A    between atoms: C3_3  and  C4_4 
REMARK    3  A    between atoms: C4_4  and  N1_5 
REMARK    4  A    between atoms: N1_5  and  C5_6 
REMARK    5  A    between atoms: N1_5  and  C12_14 
REMARK    6  A    between atoms: C5_6  and  C6_7 
REMARK    7  A    between atoms: C12_14  and  N2_16 
REMARK    8  A    between atoms: N2_16  and  C13_17 
ROOT
HETATM    1  N1  UNL     1      24.379   2.232  51.947  1.00  0.00    -0.354 N 
ENDROOT
BRANCH   1   2
HETATM    2  C4  UNL     1      25.661   2.113  52.662  1.00  0.00     0.125 C 
BRANCH   2   3
HETATM    3  C3  UNL     1      26.664   1.394  51.815  1.00  0.00     0.020 C 
BRANCH   3   4
HETATM    4  C2  UNL     1      26.675  -0.069  52.022  1.00  0.00    -0.003 C 
HETATM    5  C1  UNL     1      27.026  -0.413  53.445  1.00  0.00     0.005 C 
ENDBRANCH   3   4
ENDBRANCH   2   3
ENDBRANCH   1   2
BRANCH   1   6
HETATM    6  C5  UNL     1      23.304   1.339  51.580  1.00  0.00     0.165 C 
BRANCH   6   7
HETATM    7  C6  UNL     1      22.732   0.572  52.700  1.00  0.00    -0.019 A 
HETATM    8  C7  UNL     1      23.290  -0.523  53.323  1.00  0.00     0.010 A 
HETATM    9  C8  UNL     1      22.600  -1.129  54.352  1.00  0.00     0.001 A 
HETATM   10  C9  UNL     1      21.379  -0.732  54.820  1.00  0.00     0.002 A 
HETATM   11  C10 UNL     1      20.814   0.382  54.187  1.00  0.00     0.024 A 
HETATM   12  C11 UNL     1      21.480   1.005  53.159  1.00  0.00     0.042 A 
HETATM   13 CL1  UNL     1      20.581   2.404  52.541  1.00  0.00    -0.084 Cl
ENDBRANCH   6   7
ENDBRANCH   1   6
BRANCH   1  14
HETATM   14  C12 UNL     1      24.099   3.533  51.371  1.00  0.00     0.174 C 
HETATM   15  S1  UNL     1      23.437   4.756  52.252  1.00  0.00    -0.041 SA
BRANCH  14  16
HETATM   16  N2  UNL     1      24.330   4.028  50.049  1.00  0.00    -0.333 N 
HETATM   17  H16 UNL     1      23.558   3.976  49.315  1.00  0.00     0.168 HD
BRANCH  16  18
HETATM   18  C13 UNL     1      25.470   4.636  49.456  1.00  0.00     0.034 A 
HETATM   19  C14 UNL     1      26.707   4.045  49.298  1.00  0.00     0.029 A 
HETATM   20  C15 UNL     1      27.707   4.781  48.716  1.00  0.00     0.002 A 
HETATM   21  C16 UNL     1      27.434   6.069  48.319  1.00  0.00     0.000 A 
HETATM   22  C17 UNL     1      26.207   6.698  48.460  1.00  0.00     0.002 A 
HETATM   23  C18 UNL     1      25.211   5.948  49.046  1.00  0.00     0.029 A 
ENDBRANCH  16  18
ENDBRANCH  14  16
ENDBRANCH   1  14
TORSDOF 8
ENDMDL
MODEL 4
REMARK VINA RESULT:      -7.2      1.081      5.772
REMARK  8 active torsions:
REMARK  status: ('A' for Active; 'I' for Inactive)
REMARK    1  A    between atoms: C2_2  and  C3_3 
REMARK    2  A    between atoms: C3_3  and  C4_4 
REMARK    3  A    between atoms: C4_4  and  N1_5 
REMARK    4  A    between atoms: N1_5  and  C5_6 
REMARK    5  A    between atoms: N1_5  and  C12_14 
REMARK    6  A    between atoms: C5_6  and  C6_7 
REMARK    7  A    between atoms: C12_14  and  N2_16 
REMARK    8  A    between atoms: N2_16  and  C13_17 
ROOT
HETATM    1  N1  UNL     1      25.395   2.424  51.205  1.00  0.00    -0.354 N 
ENDROOT
BRANCH   1   2
HETATM    2  C4  UNL     1      25.717   3.767  50.696  1.00  0.00     0.125 C 
BRANCH   2   3
HETATM    3  C3  UNL     1      26.572   3.668  49.471  1.00  0.00     0.020 C 
BRANCH   3   4
HETATM    4  C2  UNL     1      26.864   4.974  48.844  1.00  0.00    -0.003 C 
HETATM    5  C1  UNL     1      28.321   5.086  48.479  1.00  0.00     0.005 C 
ENDBRANCH   3   4
ENDBRANCH   2   3
ENDBRANCH   1   2
BRANCH   1   6
HETATM    6  C5  UNL     1      26.096   1.169  51.350  1.00  0.00     0.165 C 
BRANCH   6   7
HETATM    7  C6  UNL     1      27.129   1.158  52.401  1.00  0.00    -0.019 A 
HETATM    8  C7  UNL     1      27.822   2.244  52.889  1.00  0.00     0.010 A 
HETATM    9  C8  UNL     1      28.771   2.044  53.869  1.00  0.00     0.001 A 
HETATM   10  C9  UNL     1      29.096   0.832  54.413  1.00  0.00     0.002 A 
HETATM   11  C10 UNL     1      28.389  -0.270  53.916  1.00  0.00     0.024 A 
HETATM   12  C11 UNL     1      27.438  -0.099  52.940  1.00  0.00     0.042 A 
HETATM   13 CL1  UNL     1      26.661  -1.631  52.497  1.00  0.00    -0.084 Cl
ENDBRANCH   6   7
ENDBRANCH   1   6
BRANCH   1  14
HETATM   14  C12 UNL     1      24.017   2.218  51.607  1.00  0.00     0.174 C 
HETATM   15  S1  UNL     1      23.094   3.434  52.226  1.00  0.00    -0.041 SA
BRANCH  14  16
HETATM   16  N2  UNL     1      23.201   1.044  51.546  1.00  0.00    -0.333 N 
HETATM   17  H16 UNL     1      22.951   0.615  50.602  1.00  0.00     0.168 HD
BRANCH  16  18
HETATM   18  C13 UNL     1      22.607   0.255  52.568  1.00  0.00     0.034 A 
HETATM   19  C14 UNL     1      21.278  -0.107  52.635  1.00  0.00     0.029 A 
HETATM   20  C15 UNL     1      20.865  -0.864  53.702  1.00  0.00     0.002 A 
HETATM   21  C16 UNL     1      21.792  -1.226  54.652  1.00  0.00     0.000 A 
HETATM   22  C17 UNL     1      23.134  -0.883  54.621  1.00  0.00     0.002 A 
HETATM   23  C18 UNL     1      23.535  -0.123  53.544  1.00  0.00     0.029 A 
ENDBRANCH  16  18
ENDBRANCH  14  16
ENDBRANCH   1  14
TORSDOF 8
ENDMDL
MODEL 5
REMARK VINA RESULT:      -7.1      2.564      5.532
REMARK  8 active torsions:
REMARK  status: ('A' for Active; 'I' for Inactive)
REMARK    1  A    between atoms: C2_2  and  C3_3 
REMARK    2  A    between atoms: C3_3  and  C4_4 
REMARK    3  A    between atoms: C4_4  and  N1_5 
REMARK    4  A    between atoms: N1_5  and  C5_6 
REMARK    5  A    between atoms: N1_5  and  C12_14 
REMARK    6  A    between atoms: C5_6  and  C6_7 
REMARK    7  A    between atoms: C12_14  and  N2_16 
REMARK    8  A    between atoms: N2_16  and  C13_17 
ROOT
HETATM    1  N1  UNL     1      24.315   2.631  52.051  1.00  0.00    -0.354 N 
ENDROOT
BRANCH   1   2
HETATM    2  C4  UNL     1      23.968   3.575  53.126  1.00  0.00     0.125 C 
BRANCH   2   3
HETATM    3  C3  UNL     1      23.284   4.780  52.560  1.00  0.00     0.020 C 
BRANCH   3   4
HETATM    4  C2  UNL     1      21.887   4.531  52.147  1.00  0.00    -0.003 C 
HETATM    5  C1  UNL     1      21.721   4.714  50.661  1.00  0.00     0.005 C 
ENDBRANCH   3   4
ENDBRANCH   2   3
ENDBRANCH   1   2
BRANCH   1   6
HETATM    6  C5  UNL     1      23.778   1.391  51.539  1.00  0.00     0.165 C 
BRANCH   6   7
HETATM    7  C6  UNL     1      23.133   0.536  52.550  1.00  0.00    -0.019 A 
HETATM    8  C7  UNL     1      23.751  -0.126  53.589  1.00  0.00     0.010 A 
HETATM    9  C8  UNL     1      22.986  -0.901  54.436  1.00  0.00     0.001 A 
HETATM   10  C9  UNL     1      21.634  -1.077  54.333  1.00  0.00     0.002 A 
HETATM   11  C10 UNL     1      21.008  -0.403  53.277  1.00  0.00     0.024 A 
HETATM   12  C11 UNL     1      21.746   0.376  52.419  1.00  0.00     0.042 A 
HETATM   13 CL1  UNL     1      20.730   1.149  51.188  1.00  0.00    -0.084 Cl
ENDBRANCH   6   7
ENDBRANCH   1   6
BRANCH   1  14
HETATM   14  C12 UNL     1      25.542   2.919  51.333  1.00  0.00     0.174 C 
HETATM   15  S1  UNL     1      25.542   3.408  49.761  1.00  0.00    -0.041 SA
BRANCH  14  16
HETATM   16  N2  UNL     1      26.902   2.882  51.775  1.00  0.00    -0.333 N 
HETATM   17  H16 UNL     1      27.587   3.637  51.462  1.00  0.00     0.168 HD
BRANCH  16  18
HETATM   18  C13 UNL     1      27.592   1.976  52.626  1.00  0.00     0.034 A 
HETATM   19  C14 UNL     1      28.550   2.318  53.557  1.00  0.00     0.029 A 
HETATM   20  C15 UNL     1      29.131   1.313  54.289  1.00  0.00     0.002 A 
HETATM   21  C16 UNL     1      28.733   0.016  54.061  1.00  0.00     0.000 A 
HETATM   22  C17 UNL     1      27.775  -0.368  53.136  1.00  0.00     0.002 A 
HETATM   23  C18 UNL     1      27.200   0.651  52.408  1.00  0.00     0.029 A 
ENDBRANCH  16  18
ENDBRANCH  14  16
ENDBRANCH   1  14
TORSDOF 8
ENDMDL
MODEL 6
REMARK VINA RESULT:      -6.9      1.247      4.102
REMARK  8 active torsions:
REMARK  status: ('A' for Active; 'I' for Inactive)
REMARK    1  A    between atoms: C2_2  and  C3_3 
REMARK    2  A    between atoms: C3_3  and  C4_4 
REMARK    3  A    between atoms: C4_4  and  N1_5 
REMARK    4  A    between atoms: N1_5  and  C5_6 
REMARK    5  A    between atoms: N1_5  and  C12_14 
REMARK    6  A    between atoms: C5_6  and  C6_7 
REMARK    7  A    between atoms: C12_14  and  N2_16 
REMARK    8  A    between atoms: N2_16  and  C13_17 
ROOT
HETATM    1  N1  UNL     1      24.543   2.384  52.139  1.00  0.00    -0.354 N 
ENDROOT
BRANCH   1   2
HETATM    2  C4  UNL     1      25.690   2.528  53.051  1.00  0.00     0.125 C 
BRANCH   2   3
HETATM    3  C3  UNL     1      26.962   2.168  52.348  1.00  0.00     0.020 C 
BRANCH   3   4
HETATM    4  C2  UNL     1      28.148   2.173  53.229  1.00  0.00    -0.003 C 
HETATM    5  C1  UNL     1      28.167   0.957  54.118  1.00  0.00     0.005 C 
ENDBRANCH   3   4
ENDBRANCH   2   3
ENDBRANCH   1   2
BRANCH   1   6
HETATM    6  C5  UNL     1      23.704   1.299  51.685  1.00  0.00     0.165 C 
BRANCH   6   7
HETATM    7  C6  UNL     1      22.876   0.680  52.734  1.00  0.00    -0.019 A 
HETATM    8  C7  UNL     1      21.571   0.992  53.049  1.00  0.00     0.010 A 
HETATM    9  C8  UNL     1      20.953   0.314  54.079  1.00  0.00     0.001 A 
HETATM   10  C9  UNL     1      21.535  -0.664  54.837  1.00  0.00     0.002 A 
HETATM   11  C10 UNL     1      22.861  -0.980  54.514  1.00  0.00     0.024 A 
HETATM   12  C11 UNL     1      23.500  -0.321  53.492  1.00  0.00     0.042 A 
HETATM   13 CL1  UNL     1      25.154  -0.916  53.254  1.00  0.00    -0.084 Cl
ENDBRANCH   6   7
ENDBRANCH   1   6
BRANCH   1  14
HETATM   14  C12 UNL     1      24.153   3.583  51.423  1.00  0.00     0.174 C 
HETATM   15  S1  UNL     1      23.309   4.799  52.146  1.00  0.00    -0.041 SA
BRANCH  14  16
HETATM   16  N2  UNL     1      24.404   3.975  50.071  1.00  0.00    -0.333 N 
HETATM   17  H16 UNL     1      23.665   3.810  49.319  1.00  0.00     0.168 HD
BRANCH  16  18
HETATM   18  C13 UNL     1      25.527   4.602  49.464  1.00  0.00     0.034 A 
HETATM   19  C14 UNL     1      26.770   4.031  49.288  1.00  0.00     0.029 A 
HETATM   20  C15 UNL     1      27.751   4.783  48.695  1.00  0.00     0.002 A 
HETATM   21  C16 UNL     1      27.452   6.067  48.303  1.00  0.00     0.000 A 
HETATM   22  C17 UNL     1      26.218   6.677  48.461  1.00  0.00     0.002 A 
HETATM   23  C18 UNL     1      25.241   5.910  49.059  1.00  0.00     0.029 A 
ENDBRANCH  16  18
ENDBRANCH  14  16
ENDBRANCH   1  14
TORSDOF 8
ENDMDL
MODEL 7
REMARK VINA RESULT:      -6.8      2.038      2.503
REMARK  8 active torsions:
REMARK  status: ('A' for Active; 'I' for Inactive)
REMARK    1  A    between atoms: C2_2  and  C3_3 
REMARK    2  A    between atoms: C3_3  and  C4_4 
REMARK    3  A    between atoms: C4_4  and  N1_5 
REMARK    4  A    between atoms: N1_5  and  C5_6 
REMARK    5  A    between atoms: N1_5  and  C12_14 
REMARK    6  A    between atoms: C5_6  and  C6_7 
REMARK    7  A    between atoms: C12_14  and  N2_16 
REMARK    8  A    between atoms: N2_16  and  C13_17 
ROOT
HETATM    1  N1  UNL     1      22.913   2.195  51.309  1.00  0.00    -0.354 N 
ENDROOT
BRANCH   1   2
HETATM    2  C4  UNL     1      22.100   1.432  50.348  1.00  0.00     0.125 C 
BRANCH   2   3
HETATM    3  C3  UNL     1      21.485   0.242  51.016  1.00  0.00     0.020 C 
BRANCH   3   4
HETATM    4  C2  UNL     1      20.094   0.465  51.461  1.00  0.00    -0.003 C 
HETATM    5  C1  UNL     1      20.005   0.500  52.964  1.00  0.00     0.005 C 
ENDBRANCH   3   4
ENDBRANCH   2   3
ENDBRANCH   1   2
BRANCH   1   6
HETATM    6  C5  UNL     1      23.517   1.939  52.597  1.00  0.00     0.165 C 
BRANCH   6   7
HETATM    7  C6  UNL     1      24.713   1.081  52.555  1.00  0.00    -0.019 A 
HETATM    8  C7  UNL     1      25.901   1.347  51.908  1.00  0.00     0.010 A 
HETATM    9  C8  UNL     1      26.915   0.415  51.964  1.00  0.00     0.001 A 
HETATM   10  C9  UNL     1      26.847  -0.783  52.620  1.00  0.00     0.002 A 
HETATM   11  C10 UNL     1      25.640  -1.051  53.278  1.00  0.00     0.024 A 
HETATM   12  C11 UNL     1      24.613  -0.139  53.239  1.00  0.00     0.042 A 
HETATM   13 CL1  UNL     1      23.205  -0.688  54.169  1.00  0.00    -0.084 Cl
ENDBRANCH   6   7
ENDBRANCH   1   6
BRANCH   1  14
HETATM   14  C12 UNL     1      23.135   3.589  50.978  1.00  0.00     0.174 C 
HETATM   15  S1  UNL     1      22.877   4.799  52.065  1.00  0.00    -0.041 SA
BRANCH  14  16
HETATM   16  N2  UNL     1      23.609   4.188  49.769  1.00  0.00    -0.333 N 
HETATM   17  H16 UNL     1      22.930   4.401  48.974  1.00  0.00     0.168 HD
BRANCH  16  18
HETATM   18  C13 UNL     1      24.909   4.604  49.369  1.00  0.00     0.034 A 
HETATM   19  C14 UNL     1      26.056   3.841  49.443  1.00  0.00     0.029 A 
HETATM   20  C15 UNL     1      27.236   4.403  49.027  1.00  0.00     0.002 A 
HETATM   21  C16 UNL     1      27.222   5.696  48.557  1.00  0.00     0.000 A 
HETATM   22  C17 UNL     1      26.093   6.494  48.468  1.00  0.00     0.002 A 
HETATM   23  C18 UNL     1      24.914   5.918  48.889  1.00  0.00     0.029 A 
ENDBRANCH  16  18
ENDBRANCH  14  16
ENDBRANCH   1  14
TORSDOF 8
ENDMDL
MODEL 8
REMARK VINA RESULT:      -6.7      2.763      5.935
REMARK  8 active torsions:
REMARK  status: ('A' for Active; 'I' for Inactive)
REMARK    1  A    between atoms: C2_2  and  C3_3 
REMARK    2  A    between atoms: C3_3  and  C4_4 
REMARK    3  A    between atoms: C4_4  and  N1_5 
REMARK    4  A    between atoms: N1_5  and  C5_6 
REMARK    5  A    between atoms: N1_5  and  C12_14 
REMARK    6  A    between atoms: C5_6  and  C6_7 
REMARK    7  A    between atoms: C12_14  and  N2_16 
REMARK    8  A    between atoms: N2_16  and  C13_17 
ROOT
HETATM    1  N1  UNL     1      23.939   3.644  50.924  1.00  0.00    -0.354 N 
ENDROOT
BRANCH   1   2
HETATM    2  C4  UNL     1      23.540   4.193  49.617  1.00  0.00     0.125 C 
BRANCH   2   3
HETATM    3  C3  UNL     1      22.341   3.466  49.092  1.00  0.00     0.020 C 
BRANCH   3   4
HETATM    4  C2  UNL     1      22.654   2.138  48.525  1.00  0.00    -0.003 C 
HETATM    5  C1  UNL     1      21.501   1.186  48.705  1.00  0.00     0.005 C 
ENDBRANCH   3   4
ENDBRANCH   2   3
ENDBRANCH   1   2
BRANCH   1   6
HETATM    6  C5  UNL     1      23.301   3.429  52.203  1.00  0.00     0.165 C 
BRANCH   6   7
HETATM    7  C6  UNL     1      22.502   2.195  52.292  1.00  0.00    -0.019 A 
HETATM    8  C7  UNL     1      22.978   0.913  52.462  1.00  0.00     0.010 A 
HETATM    9  C8  UNL     1      22.078  -0.132  52.508  1.00  0.00     0.001 A 
HETATM   10  C9  UNL     1      20.721  -0.006  52.397  1.00  0.00     0.002 A 
HETATM   11  C10 UNL     1      20.240   1.298  52.226  1.00  0.00     0.024 A 
HETATM   12  C11 UNL     1      21.114   2.357  52.177  1.00  0.00     0.042 A 
HETATM   13 CL1  UNL     1      20.268   3.904  51.986  1.00  0.00    -0.084 Cl
ENDBRANCH   6   7
ENDBRANCH   1   6
BRANCH   1  14
HETATM   14  C12 UNL     1      25.336   3.280  51.053  1.00  0.00     0.174 C 
HETATM   15  S1  UNL     1      26.362   3.275  49.765  1.00  0.00    -0.041 SA
BRANCH  14  16
HETATM   16  N2  UNL     1      26.092   2.905  52.209  1.00  0.00    -0.333 N 
HETATM   17  H16 UNL     1      26.175   3.575  53.034  1.00  0.00     0.168 HD
BRANCH  16  18
HETATM   18  C13 UNL     1      26.811   1.719  52.520  1.00  0.00     0.034 A 
HETATM   19  C14 UNL     1      26.404   0.432  52.236  1.00  0.00     0.029 A 
HETATM   20  C15 UNL     1      27.215  -0.605  52.621  1.00  0.00     0.002 A 
HETATM   21  C16 UNL     1      28.393  -0.315  53.269  1.00  0.00     0.000 A 
HETATM   22  C17 UNL     1      28.838   0.962  53.573  1.00  0.00     0.002 A 
HETATM   23  C18 UNL     1      28.013   1.994  53.181  1.00  0.00     0.029 A 
ENDBRANCH  16  18
ENDBRANCH  14  16
ENDBRANCH   1  14
TORSDOF 8
ENDMDL
MODEL 9
REMARK VINA RESULT:      -6.6      2.690      5.727
REMARK  8 active torsions:
REMARK  status: ('A' for Active; 'I' for Inactive)
REMARK    1  A    between atoms: C2_2  and  C3_3 
REMARK    2  A    between atoms: C3_3  and  C4_4 
REMARK    3  A    between atoms: C4_4  and  N1_5 
REMARK    4  A    between atoms: N1_5  and  C5_6 
REMARK    5  A    between atoms: N1_5  and  C12_14 
REMARK    6  A    between atoms: C5_6  and  C6_7 
REMARK    7  A    between atoms: C12_14  and  N2_16 
REMARK    8  A    between atoms: N2_16  and  C13_17 
ROOT
HETATM    1  N1  UNL     1      24.330   3.790  50.707  1.00  0.00    -0.354 N 
ENDROOT
BRANCH   1   2
HETATM    2  C4  UNL     1      23.875   4.990  51.429  1.00  0.00     0.125 C 
BRANCH   2   3
HETATM    3  C3  UNL     1      22.491   4.784  51.962  1.00  0.00     0.020 C 
BRANCH   3   4
HETATM    4  C2  UNL     1      21.454   5.531  51.221  1.00  0.00    -0.003 C 
HETATM    5  C1  UNL     1      20.564   4.596  50.444  1.00  0.00     0.005 C 
ENDBRANCH   3   4
ENDBRANCH   2   3
ENDBRANCH   1   2
BRANCH   1   6
HETATM    6  C5  UNL     1      23.700   2.649  50.082  1.00  0.00     0.165 C 
BRANCH   6   7
HETATM    7  C6  UNL     1      22.990   1.752  51.009  1.00  0.00    -0.019 A 
HETATM    8  C7  UNL     1      23.315   1.498  52.325  1.00  0.00     0.010 A 
HETATM    9  C8  UNL     1      22.541   0.611  53.043  1.00  0.00     0.001 A 
HETATM   10  C9  UNL     1      21.454  -0.058  52.555  1.00  0.00     0.002 A 
HETATM   11  C10 UNL     1      21.125   0.202  51.218  1.00  0.00     0.024 A 
HETATM   12  C11 UNL     1      21.878   1.082  50.480  1.00  0.00     0.042 A 
HETATM   13 CL1  UNL     1      21.249   1.269  48.832  1.00  0.00    -0.084 Cl
ENDBRANCH   6   7
ENDBRANCH   1   6
BRANCH   1  14
HETATM   14  C12 UNL     1      25.766   3.603  50.638  1.00  0.00     0.174 C 
HETATM   15  S1  UNL     1      26.648   4.080  49.331  1.00  0.00    -0.041 SA
BRANCH  14  16
HETATM   16  N2  UNL     1      26.674   3.048  51.594  1.00  0.00    -0.333 N 
HETATM   17  H16 UNL     1      27.514   3.615  51.926  1.00  0.00     0.168 HD
BRANCH  16  18
HETATM   18  C13 UNL     1      26.689   1.793  52.261  1.00  0.00     0.034 A 
HETATM   19  C14 UNL     1      26.655   0.557  51.650  1.00  0.00     0.029 A 
HETATM   20  C15 UNL     1      26.661  -0.560  52.446  1.00  0.00     0.002 A 
HETATM   21  C16 UNL     1      26.701  -0.397  53.812  1.00  0.00     0.000 A 
HETATM   22  C17 UNL     1      26.736   0.825  54.463  1.00  0.00     0.002 A 
HETATM   23  C18 UNL     1      26.728   1.939  53.652  1.00  0.00     0.029 A 
ENDBRANCH  16  18
ENDBRANCH  14  16
ENDBRANCH   1  14
TORSDOF 8
ENDMDL
