MODEL 1
REMARK VINA RESULT:      -6.7      0.000      0.000
REMARK  6 active torsions:
REMARK  status: ('A' for Active; 'I' for Inactive)
REMARK    1  A    between atoms: C1_2  and  C2_3 
REMARK    2  A    between atoms: C2_3  and  N1_4 
REMARK    3  A    between atoms: N1_4  and  C3_5 
REMARK    4  A    between atoms: C3_5  and  C4_6 
REMARK    5  A    between atoms: C8_11  and  O2_12 
REMARK    6  A    between atoms: C10_15  and  C11_16 
ROOT
HETATM    1  C2  UNL     1      24.850   2.880  51.929  1.00  0.00     0.289 C 
HETATM    2  C8  UNL     1      24.245   3.982  51.130  1.00  0.00     0.114 C 
HETATM    3  C9  UNL     1      23.589   3.448  50.109  1.00  0.00     0.170 C 
HETATM    4  O3  UNL     1      23.699   2.048  50.147  1.00  0.00    -0.347 OA
HETATM    5  C10 UNL     1      24.112   1.679  51.449  1.00  0.00     0.213 C 
ENDROOT
BRANCH   1   6
HETATM    6  C1  UNL     1      24.625   3.147  53.377  1.00  0.00     0.283 C 
HETATM    7  O1  UNL     1      24.123   4.102  53.897  1.00  0.00    -0.304 OA
ENDBRANCH   1   6
BRANCH   1   8
HETATM    8  N1  UNL     1      26.276   2.780  51.631  1.00  0.00     0.113 N 
HETATM    9  H2  UNL     1      26.514   3.257  50.753  1.00  0.00     0.318 HD
BRANCH   8  10
HETATM   10  C3  UNL     1      26.711   1.420  51.699  1.00  0.00     0.307 C 
BRANCH  10  11
HETATM   11  C4  UNL     1      27.589   1.229  52.909  1.00  0.00    -0.031 A 
HETATM   12  C5  UNL     1      27.749   0.090  53.563  1.00  0.00     0.025 A 
HETATM   13  C6  UNL     1      28.680   0.469  54.619  1.00  0.00     0.111 A 
HETATM   14  N2  UNL     1      29.043   1.706  54.604  1.00  0.00    -0.297 NA
HETATM   15  C7  UNL     1      28.376   2.347  53.488  1.00  0.00     0.184 A 
ENDBRANCH  10  11
ENDBRANCH   8  10
ENDBRANCH   1   8
BRANCH   2  16
HETATM   16  O2  UNL     1      24.326   5.349  51.374  1.00  0.00    -0.360 OA
HETATM   17  H9  UNL     1      24.180   5.988  50.615  1.00  0.00     0.217 HD
ENDBRANCH   2  16
BRANCH   5  18
HETATM   18  C11 UNL     1      22.911   1.334  52.260  1.00  0.00    -0.026 A 
HETATM   19  C12 UNL     1      22.953   0.364  53.239  1.00  0.00     0.010 A 
HETATM   20  C13 UNL     1      21.867   0.012  54.014  1.00  0.00     0.001 A 
HETATM   21  C14 UNL     1      20.662   0.646  53.822  1.00  0.00     0.000 A 
HETATM   22  C15 UNL     1      20.575   1.616  52.859  1.00  0.00     0.001 A 
HETATM   23  C16 UNL     1      21.667   1.952  52.098  1.00  0.00     0.010 A 
ENDBRANCH   5  18
TORSDOF 6
ENDMDL
MODEL 2
REMARK VINA RESULT:      -6.5      2.801      3.665
REMARK  6 active torsions:
REMARK  status: ('A' for Active; 'I' for Inactive)
REMARK    1  A    between atoms: C1_2  and  C2_3 
REMARK    2  A    between atoms: C2_3  and  N1_4 
REMARK    3  A    between atoms: N1_4  and  C3_5 
REMARK    4  A    between atoms: C3_5  and  C4_6 
REMARK    5  A    between atoms: C8_11  and  O2_12 
REMARK    6  A    between atoms: C10_15  and  C11_16 
ROOT
HETATM    1  C2  UNL     1      23.292   2.962  51.588  1.00  0.00     0.289 C 
HETATM    2  C8  UNL     1      22.442   4.083  52.074  1.00  0.00     0.114 C 
HETATM    3  C9  UNL     1      21.174   3.791  51.815  1.00  0.00     0.170 C 
HETATM    4  O3  UNL     1      21.091   2.541  51.181  1.00  0.00    -0.347 OA
HETATM    5  C10 UNL     1      22.310   1.858  51.399  1.00  0.00     0.213 C 
ENDROOT
BRANCH   1   6
HETATM    6  C1  UNL     1      24.318   2.644  52.620  1.00  0.00     0.283 C 
HETATM    7  O1  UNL     1      24.559   3.218  53.644  1.00  0.00    -0.304 OA
ENDBRANCH   1   6
BRANCH   1   8
HETATM    8  N1  UNL     1      23.922   3.333  50.323  1.00  0.00     0.113 N 
HETATM    9  H2  UNL     1      23.490   2.846  49.528  1.00  0.00     0.318 HD
BRANCH   8  10
HETATM   10  C3  UNL     1      25.341   3.185  50.404  1.00  0.00     0.307 C 
BRANCH  10  11
HETATM   11  C4  UNL     1      26.011   4.364  49.750  1.00  0.00    -0.031 A 
HETATM   12  C5  UNL     1      27.099   4.304  48.999  1.00  0.00     0.025 A 
HETATM   13  C6  UNL     1      27.303   5.701  48.637  1.00  0.00     0.111 A 
HETATM   14  N2  UNL     1      26.430   6.518  49.119  1.00  0.00    -0.297 NA
HETATM   15  C7  UNL     1      25.485   5.745  49.900  1.00  0.00     0.184 A 
ENDBRANCH  10  11
ENDBRANCH   8  10
ENDBRANCH   1   8
BRANCH   2  16
HETATM   16  O2  UNL     1      22.858   5.255  52.699  1.00  0.00    -0.360 OA
HETATM   17  H9  UNL     1      22.222   6.027  52.757  1.00  0.00     0.217 HD
ENDBRANCH   2  16
BRANCH   5  18
HETATM   18  C11 UNL     1      22.161   0.964  52.581  1.00  0.00    -0.026 A 
HETATM   19  C12 UNL     1      23.121   0.029  52.906  1.00  0.00     0.010 A 
HETATM   20  C13 UNL     1      23.026  -0.821  53.990  1.00  0.00     0.001 A 
HETATM   21  C14 UNL     1      21.924  -0.753  54.809  1.00  0.00     0.000 A 
HETATM   22  C15 UNL     1      20.946   0.161  54.523  1.00  0.00     0.001 A 
HETATM   23  C16 UNL     1      21.059   0.996  53.440  1.00  0.00     0.010 A 
ENDBRANCH   5  18
TORSDOF 6
ENDMDL
MODEL 3
REMARK VINA RESULT:      -6.5      2.040      2.840
REMARK  6 active torsions:
REMARK  status: ('A' for Active; 'I' for Inactive)
REMARK    1  A    between atoms: C1_2  and  C2_3 
REMARK    2  A    between atoms: C2_3  and  N1_4 
REMARK    3  A    between atoms: N1_4  and  C3_5 
REMARK    4  A    between atoms: C3_5  and  C4_6 
REMARK    5  A    between atoms: C8_11  and  O2_12 
REMARK    6  A    between atoms: C10_15  and  C11_16 
ROOT
HETATM    1  C2  UNL     1      24.050   3.575  51.974  1.00  0.00     0.289 C 
HETATM    2  C8  UNL     1      24.398   4.922  51.444  1.00  0.00     0.114 C 
HETATM    3  C9  UNL     1      25.168   4.767  50.375  1.00  0.00     0.170 C 
HETATM    4  O3  UNL     1      25.377   3.400  50.130  1.00  0.00    -0.347 OA
HETATM    5  C10 UNL     1      24.390   2.674  50.838  1.00  0.00     0.213 C 
ENDROOT
BRANCH   1   6
HETATM    6  C1  UNL     1      22.599   3.543  52.312  1.00  0.00     0.283 C 
HETATM    7  O1  UNL     1      21.819   4.451  52.368  1.00  0.00    -0.304 OA
ENDBRANCH   1   6
BRANCH   1   8
HETATM    8  N1  UNL     1      24.867   3.280  53.148  1.00  0.00     0.113 N 
HETATM    9  H2  UNL     1      25.733   3.832  53.155  1.00  0.00     0.318 HD
BRANCH   8  10
HETATM   10  C3  UNL     1      25.066   1.871  53.282  1.00  0.00     0.307 C 
BRANCH  10  11
HETATM   11  C4  UNL     1      26.487   1.598  53.700  1.00  0.00    -0.031 A 
HETATM   12  C5  UNL     1      27.557   2.197  53.202  1.00  0.00     0.025 A 
HETATM   13  C6  UNL     1      28.640   1.566  53.948  1.00  0.00     0.111 A 
HETATM   14  N2  UNL     1      28.262   0.681  54.805  1.00  0.00    -0.297 NA
HETATM   15  C7  UNL     1      26.816   0.597  54.746  1.00  0.00     0.184 A 
ENDBRANCH  10  11
ENDBRANCH   8  10
ENDBRANCH   1   8
BRANCH   2  16
HETATM   16  O2  UNL     1      24.006   6.159  51.947  1.00  0.00    -0.360 OA
HETATM   17  H9  UNL     1      23.060   6.282  52.254  1.00  0.00     0.217 HD
ENDBRANCH   2  16
BRANCH   5  18
HETATM   18  C11 UNL     1      23.251   2.385  49.923  1.00  0.00    -0.026 A 
HETATM   19  C12 UNL     1      22.319   1.411  50.213  1.00  0.00     0.010 A 
HETATM   20  C13 UNL     1      21.248   1.109  49.397  1.00  0.00     0.001 A 
HETATM   21  C14 UNL     1      21.075   1.802  48.221  1.00  0.00     0.000 A 
HETATM   22  C15 UNL     1      21.978   2.777  47.893  1.00  0.00     0.001 A 
HETATM   23  C16 UNL     1      23.036   3.063  48.719  1.00  0.00     0.010 A 
ENDBRANCH   5  18
TORSDOF 6
ENDMDL
MODEL 4
REMARK VINA RESULT:      -6.1      2.676      4.129
REMARK  6 active torsions:
REMARK  status: ('A' for Active; 'I' for Inactive)
REMARK    1  A    between atoms: C1_2  and  C2_3 
REMARK    2  A    between atoms: C2_3  and  N1_4 
REMARK    3  A    between atoms: N1_4  and  C3_5 
REMARK    4  A    between atoms: C3_5  and  C4_6 
REMARK    5  A    between atoms: C8_11  and  O2_12 
REMARK    6  A    between atoms: C10_15  and  C11_16 
ROOT
HETATM    1  C2  UNL     1      23.142   4.034  50.414  1.00  0.00     0.289 C 
HETATM    2  C8  UNL     1      21.660   4.114  50.304  1.00  0.00     0.114 C 
HETATM    3  C9  UNL     1      21.233   3.064  49.615  1.00  0.00     0.170 C 
HETATM    4  O3  UNL     1      22.323   2.263  49.240  1.00  0.00    -0.347 OA
HETATM    5  C10 UNL     1      23.426   2.618  50.051  1.00  0.00     0.213 C 
ENDROOT
BRANCH   1   6
HETATM    6  C1  UNL     1      23.546   4.358  51.811  1.00  0.00     0.283 C 
HETATM    7  O1  UNL     1      22.860   4.695  52.734  1.00  0.00    -0.304 OA
ENDBRANCH   1   6
BRANCH   1   8
HETATM    8  N1  UNL     1      23.758   4.959  49.466  1.00  0.00     0.113 N 
HETATM    9  H2  UNL     1      24.090   4.472  48.624  1.00  0.00     0.318 HD
BRANCH   8  10
HETATM   10  C3  UNL     1      24.751   5.758  50.113  1.00  0.00     0.307 C 
BRANCH  10  11
HETATM   11  C4  UNL     1      26.077   5.576  49.422  1.00  0.00    -0.031 A 
HETATM   12  C5  UNL     1      26.766   6.537  48.828  1.00  0.00     0.025 A 
HETATM   13  C6  UNL     1      27.938   5.820  48.340  1.00  0.00     0.111 A 
HETATM   14  N2  UNL     1      27.954   4.560  48.610  1.00  0.00    -0.297 NA
HETATM   15  C7  UNL     1      26.744   4.252  49.347  1.00  0.00     0.184 A 
ENDBRANCH  10  11
ENDBRANCH   8  10
ENDBRANCH   1   8
BRANCH   2  16
HETATM   16  O2  UNL     1      20.822   5.099  50.819  1.00  0.00    -0.360 OA
HETATM   17  H9  UNL     1      19.855   4.886  50.967  1.00  0.00     0.217 HD
ENDBRANCH   2  16
BRANCH   5  18
HETATM   18  C11 UNL     1      23.493   1.690  51.214  1.00  0.00    -0.026 A 
HETATM   19  C12 UNL     1      24.676   1.448  51.880  1.00  0.00     0.010 A 
HETATM   20  C13 UNL     1      24.786   0.597  52.961  1.00  0.00     0.001 A 
HETATM   21  C14 UNL     1      23.669  -0.060  53.422  1.00  0.00     0.000 A 
HETATM   22  C15 UNL     1      22.473   0.150  52.790  1.00  0.00     0.001 A 
HETATM   23  C16 UNL     1      22.385   1.000  51.716  1.00  0.00     0.010 A 
ENDBRANCH   5  18
TORSDOF 6
ENDMDL
MODEL 5
REMARK VINA RESULT:      -5.9      3.080      5.693
REMARK  6 active torsions:
REMARK  status: ('A' for Active; 'I' for Inactive)
REMARK    1  A    between atoms: C1_2  and  C2_3 
REMARK    2  A    between atoms: C2_3  and  N1_4 
REMARK    3  A    between atoms: N1_4  and  C3_5 
REMARK    4  A    between atoms: C3_5  and  C4_6 
REMARK    5  A    between atoms: C8_11  and  O2_12 
REMARK    6  A    between atoms: C10_15  and  C11_16 
ROOT
HETATM    1  C2  UNL     1      23.091   3.578  50.412  1.00  0.00     0.289 C 
HETATM    2  C8  UNL     1      22.140   4.716  50.287  1.00  0.00     0.114 C 
HETATM    3  C9  UNL     1      22.514   5.669  51.131  1.00  0.00     0.170 C 
HETATM    4  O3  UNL     1      23.662   5.265  51.831  1.00  0.00    -0.347 OA
HETATM    5  C10 UNL     1      24.246   4.187  51.126  1.00  0.00     0.213 C 
ENDROOT
BRANCH   1   6
HETATM    6  C1  UNL     1      23.452   3.094  49.050  1.00  0.00     0.283 C 
HETATM    7  O1  UNL     1      22.762   3.006  48.074  1.00  0.00    -0.304 OA
ENDBRANCH   1   6
BRANCH   1   8
HETATM    8  N1  UNL     1      22.482   2.510  51.201  1.00  0.00     0.113 N 
HETATM    9  H2  UNL     1      21.829   2.882  51.901  1.00  0.00     0.318 HD
BRANCH   8  10
HETATM   10  C3  UNL     1      23.486   1.643  51.735  1.00  0.00     0.307 C 
BRANCH  10  11
HETATM   11  C4  UNL     1      22.834   0.554  52.546  1.00  0.00    -0.031 A 
HETATM   12  C5  UNL     1      23.479  -0.359  53.254  1.00  0.00     0.025 A 
HETATM   13  C6  UNL     1      22.386  -1.140  53.821  1.00  0.00     0.111 A 
HETATM   14  N2  UNL     1      21.206  -0.739  53.490  1.00  0.00    -0.297 NA
HETATM   15  C7  UNL     1      21.358   0.412  52.622  1.00  0.00     0.184 A 
ENDBRANCH  10  11
ENDBRANCH   8  10
ENDBRANCH   1   8
BRANCH   2  16
HETATM   16  O2  UNL     1      21.035   4.812  49.447  1.00  0.00    -0.360 OA
HETATM   17  H9  UNL     1      20.119   4.670  49.828  1.00  0.00     0.217 HD
ENDBRANCH   2  16
BRANCH   5  18
HETATM   18  C11 UNL     1      25.311   4.715  50.229  1.00  0.00    -0.026 A 
HETATM   19  C12 UNL     1      26.326   3.908  49.758  1.00  0.00     0.010 A 
HETATM   20  C13 UNL     1      27.333   4.352  48.925  1.00  0.00     0.001 A 
HETATM   21  C14 UNL     1      27.352   5.669  48.527  1.00  0.00     0.000 A 
HETATM   22  C15 UNL     1      26.364   6.505  48.971  1.00  0.00     0.001 A 
HETATM   23  C16 UNL     1      25.371   6.044  49.799  1.00  0.00     0.010 A 
ENDBRANCH   5  18
TORSDOF 6
ENDMDL
MODEL 6
REMARK VINA RESULT:      -5.9      1.953      2.665
REMARK  6 active torsions:
REMARK  status: ('A' for Active; 'I' for Inactive)
REMARK    1  A    between atoms: C1_2  and  C2_3 
REMARK    2  A    between atoms: C2_3  and  N1_4 
REMARK    3  A    between atoms: N1_4  and  C3_5 
REMARK    4  A    between atoms: C3_5  and  C4_6 
REMARK    5  A    between atoms: C8_11  and  O2_12 
REMARK    6  A    between atoms: C10_15  and  C11_16 
ROOT
HETATM    1  C2  UNL     1      24.477   1.350  52.252  1.00  0.00     0.289 C 
HETATM    2  C8  UNL     1      24.726   2.768  52.630  1.00  0.00     0.114 C 
HETATM    3  C9  UNL     1      24.378   3.541  51.609  1.00  0.00     0.170 C 
HETATM    4  O3  UNL     1      23.905   2.751  50.549  1.00  0.00    -0.347 OA
HETATM    5  C10 UNL     1      23.584   1.474  51.067  1.00  0.00     0.213 C 
ENDROOT
BRANCH   1   6
HETATM    6  C1  UNL     1      23.819   0.650  53.391  1.00  0.00     0.283 C 
HETATM    7  O1  UNL     1      23.693  -0.526  53.581  1.00  0.00    -0.304 OA
ENDBRANCH   1   6
BRANCH   1   8
HETATM    8  N1  UNL     1      25.738   0.703  51.901  1.00  0.00     0.113 N 
HETATM    9  H2  UNL     1      25.587  -0.234  51.509  1.00  0.00     0.318 HD
BRANCH   8  10
HETATM   10  C3  UNL     1      26.648   0.741  53.002  1.00  0.00     0.307 C 
BRANCH  10  11
HETATM   11  C4  UNL     1      27.482  -0.513  53.013  1.00  0.00    -0.031 A 
HETATM   12  C5  UNL     1      28.760  -0.577  53.350  1.00  0.00     0.025 A 
HETATM   13  C6  UNL     1      29.053  -1.995  53.185  1.00  0.00     0.111 A 
HETATM   14  N2  UNL     1      28.057  -2.712  52.790  1.00  0.00    -0.297 NA
HETATM   15  C7  UNL     1      26.916  -1.832  52.632  1.00  0.00     0.184 A 
ENDBRANCH  10  11
ENDBRANCH   8  10
ENDBRANCH   1   8
BRANCH   2  16
HETATM   16  O2  UNL     1      25.234   3.250  53.833  1.00  0.00    -0.360 OA
HETATM   17  H9  UNL     1      25.245   4.238  53.995  1.00  0.00     0.217 HD
ENDBRANCH   2  16
BRANCH   5  18
HETATM   18  C11 UNL     1      22.130   1.432  51.388  1.00  0.00    -0.026 A 
HETATM   19  C12 UNL     1      21.495   2.490  52.004  1.00  0.00     0.010 A 
HETATM   20  C13 UNL     1      20.151   2.496  52.321  1.00  0.00     0.001 A 
HETATM   21  C14 UNL     1      19.378   1.399  52.018  1.00  0.00     0.000 A 
HETATM   22  C15 UNL     1      19.969   0.326  51.408  1.00  0.00     0.001 A 
HETATM   23  C16 UNL     1      21.307   0.339  51.101  1.00  0.00     0.010 A 
ENDBRANCH   5  18
TORSDOF 6
ENDMDL
MODEL 7
REMARK VINA RESULT:      -5.9      2.728      3.628
REMARK  6 active torsions:
REMARK  status: ('A' for Active; 'I' for Inactive)
REMARK    1  A    between atoms: C1_2  and  C2_3 
REMARK    2  A    between atoms: C2_3  and  N1_4 
REMARK    3  A    between atoms: N1_4  and  C3_5 
REMARK    4  A    between atoms: C3_5  and  C4_6 
REMARK    5  A    between atoms: C8_11  and  O2_12 
REMARK    6  A    between atoms: C10_15  and  C11_16 
ROOT
HETATM    1  C2  UNL     1      21.571   2.093  51.448  1.00  0.00     0.289 C 
HETATM    2  C8  UNL     1      21.339   2.824  50.172  1.00  0.00     0.114 C 
HETATM    3  C9  UNL     1      21.313   1.942  49.181  1.00  0.00     0.170 C 
HETATM    4  O3  UNL     1      21.513   0.648  49.688  1.00  0.00    -0.347 OA
HETATM    5  C10 UNL     1      21.270   0.682  51.081  1.00  0.00     0.213 C 
ENDROOT
BRANCH   1   6
HETATM    6  C1  UNL     1      20.647   2.623  52.489  1.00  0.00     0.283 C 
HETATM    7  O1  UNL     1      19.826   3.490  52.396  1.00  0.00    -0.304 OA
ENDBRANCH   1   6
BRANCH   1   8
HETATM    8  N1  UNL     1      22.964   2.248  51.858  1.00  0.00     0.113 N 
HETATM    9  H2  UNL     1      23.610   2.103  51.072  1.00  0.00     0.318 HD
BRANCH   8  10
HETATM   10  C3  UNL     1      23.244   1.443  53.005  1.00  0.00     0.307 C 
BRANCH  10  11
HETATM   11  C4  UNL     1      24.541   0.704  52.801  1.00  0.00    -0.031 A 
HETATM   12  C5  UNL     1      25.496   1.058  51.956  1.00  0.00     0.025 A 
HETATM   13  C6  UNL     1      26.495   0.016  52.163  1.00  0.00     0.111 A 
HETATM   14  N2  UNL     1      26.175  -0.873  53.040  1.00  0.00    -0.297 NA
HETATM   15  C7  UNL     1      24.866  -0.530  53.560  1.00  0.00     0.184 A 
ENDBRANCH  10  11
ENDBRANCH   8  10
ENDBRANCH   1   8
BRANCH   2  16
HETATM   16  O2  UNL     1      21.170   4.195  49.997  1.00  0.00    -0.360 OA
HETATM   17  H9  UNL     1      20.394   4.650  50.438  1.00  0.00     0.217 HD
ENDBRANCH   2  16
BRANCH   5  18
HETATM   18  C11 UNL     1      19.862   0.271  51.338  1.00  0.00    -0.026 A 
HETATM   19  C12 UNL     1      19.495  -0.361  52.508  1.00  0.00     0.010 A 
HETATM   20  C13 UNL     1      18.203  -0.759  52.790  1.00  0.00     0.001 A 
HETATM   21  C14 UNL     1      17.206  -0.528  51.871  1.00  0.00     0.000 A 
HETATM   22  C15 UNL     1      17.527   0.096  50.695  1.00  0.00     0.001 A 
HETATM   23  C16 UNL     1      18.817   0.485  50.434  1.00  0.00     0.010 A 
ENDBRANCH   5  18
TORSDOF 6
ENDMDL
MODEL 8
REMARK VINA RESULT:      -5.9      3.430      4.032
REMARK  6 active torsions:
REMARK  status: ('A' for Active; 'I' for Inactive)
REMARK    1  A    between atoms: C1_2  and  C2_3 
REMARK    2  A    between atoms: C2_3  and  N1_4 
REMARK    3  A    between atoms: N1_4  and  C3_5 
REMARK    4  A    between atoms: C3_5  and  C4_6 
REMARK    5  A    between atoms: C8_11  and  O2_12 
REMARK    6  A    between atoms: C10_15  and  C11_16 
ROOT
HETATM    1  C2  UNL     1      21.932   2.569  50.804  1.00  0.00     0.289 C 
HETATM    2  C8  UNL     1      20.623   2.597  50.094  1.00  0.00     0.114 C 
HETATM    3  C9  UNL     1      20.454   1.434  49.480  1.00  0.00     0.170 C 
HETATM    4  O3  UNL     1      21.560   0.602  49.718  1.00  0.00    -0.347 OA
HETATM    5  C10 UNL     1      22.263   1.118  50.831  1.00  0.00     0.213 C 
ENDROOT
BRANCH   1   6
HETATM    6  C1  UNL     1      21.760   3.142  52.168  1.00  0.00     0.283 C 
HETATM    7  O1  UNL     1      20.787   3.643  52.657  1.00  0.00    -0.304 OA
ENDBRANCH   1   6
BRANCH   1   8
HETATM    8  N1  UNL     1      22.922   3.325  50.042  1.00  0.00     0.113 N 
HETATM    9  H2  UNL     1      22.698   3.340  49.039  1.00  0.00     0.318 HD
BRANCH   8  10
HETATM   10  C3  UNL     1      24.244   2.871  50.343  1.00  0.00     0.307 C 
BRANCH  10  11
HETATM   11  C4  UNL     1      25.253   3.807  49.731  1.00  0.00    -0.031 A 
HETATM   12  C5  UNL     1      26.534   3.533  49.545  1.00  0.00     0.025 A 
HETATM   13  C6  UNL     1      27.028   4.762  48.936  1.00  0.00     0.111 A 
HETATM   14  N2  UNL     1      26.138   5.681  48.772  1.00  0.00    -0.297 NA
HETATM   15  C7  UNL     1      24.877   5.168  49.270  1.00  0.00     0.184 A 
ENDBRANCH  10  11
ENDBRANCH   8  10
ENDBRANCH   1   8
BRANCH   2  16
HETATM   16  O2  UNL     1      19.702   3.640  50.053  1.00  0.00    -0.360 OA
HETATM   17  H9  UNL     1      19.563   4.199  50.873  1.00  0.00     0.217 HD
ENDBRANCH   2  16
BRANCH   5  18
HETATM   18  C11 UNL     1      21.811   0.410  52.061  1.00  0.00    -0.026 A 
HETATM   19  C12 UNL     1      22.704   0.003  53.031  1.00  0.00     0.010 A 
HETATM   20  C13 UNL     1      22.331  -0.655  54.186  1.00  0.00     0.001 A 
HETATM   21  C14 UNL     1      21.003  -0.934  54.409  1.00  0.00     0.000 A 
HETATM   22  C15 UNL     1      20.083  -0.547  53.472  1.00  0.00     0.001 A 
HETATM   23  C16 UNL     1      20.473   0.106  52.330  1.00  0.00     0.010 A 
ENDBRANCH   5  18
TORSDOF 6
ENDMDL
MODEL 9
REMARK VINA RESULT:      -5.8      3.484      4.832
REMARK  6 active torsions:
REMARK  status: ('A' for Active; 'I' for Inactive)
REMARK    1  A    between atoms: C1_2  and  C2_3 
REMARK    2  A    between atoms: C2_3  and  N1_4 
REMARK    3  A    between atoms: N1_4  and  C3_5 
REMARK    4  A    between atoms: C3_5  and  C4_6 
REMARK    5  A    between atoms: C8_11  and  O2_12 
REMARK    6  A    between atoms: C10_15  and  C11_16 
ROOT
HETATM    1  C2  UNL     1      21.072   2.136  51.289  1.00  0.00     0.289 C 
HETATM    2  C8  UNL     1      19.655   2.304  51.713  1.00  0.00     0.114 C 
HETATM    3  C9  UNL     1      19.023   1.153  51.529  1.00  0.00     0.170 C 
HETATM    4  O3  UNL     1      19.909   0.198  51.005  1.00  0.00    -0.347 OA
HETATM    5  C10 UNL     1      21.228   0.656  51.232  1.00  0.00     0.213 C 
ENDROOT
BRANCH   1   6
HETATM    6  C1  UNL     1      21.963   2.765  52.303  1.00  0.00     0.283 C 
HETATM    7  O1  UNL     1      22.303   3.910  52.400  1.00  0.00    -0.304 OA
ENDBRANCH   1   6
BRANCH   1   8
HETATM    8  N1  UNL     1      21.269   2.741  49.974  1.00  0.00     0.113 N 
HETATM    9  H2  UNL     1      20.426   2.664  49.392  1.00  0.00     0.318 HD
BRANCH   8  10
HETATM   10  C3  UNL     1      22.457   2.238  49.360  1.00  0.00     0.307 C 
BRANCH  10  11
HETATM   11  C4  UNL     1      23.459   3.352  49.207  1.00  0.00    -0.031 A 
HETATM   12  C5  UNL     1      24.735   3.283  49.551  1.00  0.00     0.025 A 
HETATM   13  C6  UNL     1      25.224   4.609  49.194  1.00  0.00     0.111 A 
HETATM   14  N2  UNL     1      24.336   5.395  48.688  1.00  0.00    -0.297 NA
HETATM   15  C7  UNL     1      23.082   4.669  48.636  1.00  0.00     0.184 A 
ENDBRANCH  10  11
ENDBRANCH   8  10
ENDBRANCH   1   8
BRANCH   2  16
HETATM   16  O2  UNL     1      19.051   3.450  52.222  1.00  0.00    -0.360 OA
HETATM   17  H9  UNL     1      19.541   3.996  52.904  1.00  0.00     0.217 HD
ENDBRANCH   2  16
BRANCH   5  18
HETATM   18  C11 UNL     1      21.745   0.047  52.488  1.00  0.00    -0.026 A 
HETATM   19  C12 UNL     1      20.895  -0.472  53.443  1.00  0.00     0.010 A 
HETATM   20  C13 UNL     1      21.327  -1.046  54.622  1.00  0.00     0.001 A 
HETATM   21  C14 UNL     1      22.675  -1.119  54.886  1.00  0.00     0.000 A 
HETATM   22  C15 UNL     1      23.555  -0.615  53.965  1.00  0.00     0.001 A 
HETATM   23  C16 UNL     1      23.105  -0.048  52.799  1.00  0.00     0.010 A 
ENDBRANCH   5  18
TORSDOF 6
ENDMDL
