MODEL 1
REMARK VINA RESULT:      -9.7      0.000      0.000
REMARK  1 active torsions:
REMARK  status: ('A' for Active; 'I' for Inactive)
REMARK    1  A    between atoms: C4_4  and  C5_5 
ROOT
HETATM    1  C5  UNL     1      24.579   1.866  51.633  1.00  0.00     0.059 C 
HETATM    2  N1  UNL     1      23.427   2.315  51.870  1.00  0.00    -0.245 NA
HETATM    3  C6  UNL     1      22.457   1.659  52.602  1.00  0.00     0.232 C 
HETATM    4  N2  UNL     1      22.318   0.522  51.983  1.00  0.00    -0.253 NA
HETATM    5  C7  UNL     1      21.358  -0.421  52.512  1.00  0.00     0.131 C 
HETATM    6  C8  UNL     1      21.735  -0.951  53.698  1.00  0.00     0.010 A 
HETATM    7  C9  UNL     1      22.259  -1.435  54.957  1.00  0.00     0.045 A 
HETATM    8  C10 UNL     1      22.930  -0.517  54.256  1.00  0.00     0.041 A 
HETATM    9  N3  UNL     1      24.114   0.293  54.237  1.00  0.00    -0.379 N 
HETATM   10  C11 UNL     1      25.362   0.204  53.684  1.00  0.00     0.040 C 
HETATM   11  C12 UNL     1      25.868   1.479  52.897  1.00  0.00     0.043 A 
HETATM   12  C13 UNL     1      25.568   0.823  51.798  1.00  0.00     0.038 A 
HETATM   13  C14 UNL     1      26.658   0.317  52.641  1.00  0.00    -0.007 A 
HETATM   14  C15 UNL     1      26.943  -0.757  51.958  1.00  0.00    -0.039 A 
HETATM   15  C16 UNL     1      25.835  -1.014  52.979  1.00  0.00     0.063 A 
HETATM   16  C17 UNL     1      27.612   0.551  53.942  1.00  0.00    -0.003 C 
HETATM   17  C18 UNL     1      28.736  -0.319  53.954  1.00  0.00     0.011 C 
HETATM   18  C19 UNL     1      26.448   0.233  54.920  1.00  0.00     0.037 C 
HETATM   19  H8  UNL     1      24.196   1.226  54.753  1.00  0.00     0.160 HD
ENDROOT
BRANCH   1  20
HETATM   20  C4  UNL     1      25.480   2.752  50.805  1.00  0.00     0.008 A 
HETATM   21  C3  UNL     1      26.792   3.337  50.439  1.00  0.00     0.023 A 
HETATM   22  C2  UNL     1      26.356   4.153  49.515  1.00  0.00    -0.043 A 
HETATM   23  C1  UNL     1      27.173   5.074  48.705  1.00  0.00     0.049 C 
HETATM   24  C20 UNL     1      25.072   3.588  49.866  1.00  0.00     0.029 A 
HETATM   25 BR1  UNL     1      23.480   4.202  48.958  1.00  0.00    -0.050 Br
ENDBRANCH   1  20
TORSDOF 1
ENDMDL
MODEL 2
REMARK VINA RESULT:      -9.5      2.151      4.738
REMARK  1 active torsions:
REMARK  status: ('A' for Active; 'I' for Inactive)
REMARK    1  A    between atoms: C4_4  and  C5_5 
ROOT
HETATM    1  C5  UNL     1      24.081   0.304  53.371  1.00  0.00     0.059 C 
HETATM    2  N1  UNL     1      23.568  -0.846  53.408  1.00  0.00    -0.245 NA
HETATM    3  C6  UNL     1      22.269  -1.144  53.048  1.00  0.00     0.232 C 
HETATM    4  N2  UNL     1      21.551  -0.365  53.806  1.00  0.00    -0.253 NA
HETATM    5  C7  UNL     1      20.113  -0.431  53.670  1.00  0.00     0.131 C 
HETATM    6  C8  UNL     1      19.669   0.069  52.494  1.00  0.00     0.010 A 
HETATM    7  C9  UNL     1      19.335   0.632  51.202  1.00  0.00     0.045 A 
HETATM    8  C10 UNL     1      20.611   0.533  51.585  1.00  0.00     0.041 A 
HETATM    9  N3  UNL     1      21.966   0.789  51.188  1.00  0.00    -0.379 N 
HETATM   10  C11 UNL     1      22.880   1.787  51.385  1.00  0.00     0.040 C 
HETATM   11  C12 UNL     1      24.319   1.331  51.855  1.00  0.00     0.043 A 
HETATM   12  C13 UNL     1      23.962   1.712  53.061  1.00  0.00     0.038 A 
HETATM   13  C14 UNL     1      24.101   2.733  52.015  1.00  0.00    -0.007 A 
HETATM   14  C15 UNL     1      23.725   3.770  52.712  1.00  0.00    -0.039 A 
HETATM   15  C16 UNL     1      22.534   3.059  52.068  1.00  0.00     0.063 A 
HETATM   16  C17 UNL     1      24.541   3.083  50.485  1.00  0.00    -0.003 C 
HETATM   17  C18 UNL     1      24.674   4.481  50.265  1.00  0.00     0.011 C 
HETATM   18  C19 UNL     1      23.282   2.382  49.905  1.00  0.00     0.037 C 
HETATM   19  H8  UNL     1      22.532   0.127  50.567  1.00  0.00     0.160 HD
ENDROOT
BRANCH   1  20
HETATM   20  C4  UNL     1      25.522   0.402  53.815  1.00  0.00     0.008 A 
HETATM   21  C3  UNL     1      26.654   1.063  54.508  1.00  0.00     0.023 A 
HETATM   22  C2  UNL     1      27.585   0.220  54.142  1.00  0.00    -0.043 A 
HETATM   23  C1  UNL     1      29.012   0.283  54.501  1.00  0.00     0.049 C 
HETATM   24  C20 UNL     1      26.486  -0.430  53.463  1.00  0.00     0.029 A 
HETATM   25 BR1  UNL     1      26.816  -2.035  52.437  1.00  0.00    -0.050 Br
ENDBRANCH   1  20
TORSDOF 1
ENDMDL
MODEL 3
REMARK VINA RESULT:      -9.1      2.500      5.787
REMARK  1 active torsions:
REMARK  status: ('A' for Active; 'I' for Inactive)
REMARK    1  A    between atoms: C4_4  and  C5_5 
ROOT
HETATM    1  C5  UNL     1      23.282   0.602  52.465  1.00  0.00     0.059 C 
HETATM    2  N1  UNL     1      23.806  -0.190  53.292  1.00  0.00    -0.245 NA
HETATM    3  C6  UNL     1      25.122  -0.142  53.707  1.00  0.00     0.232 C 
HETATM    4  N2  UNL     1      25.800  -0.222  52.599  1.00  0.00    -0.253 NA
HETATM    5  C7  UNL     1      27.244  -0.194  52.687  1.00  0.00     0.131 C 
HETATM    6  C8  UNL     1      27.728   1.012  53.062  1.00  0.00     0.010 A 
HETATM    7  C9  UNL     1      28.106   2.349  53.470  1.00  0.00     0.045 A 
HETATM    8  C10 UNL     1      26.817   2.024  53.339  1.00  0.00     0.041 A 
HETATM    9  N3  UNL     1      25.477   2.522  53.451  1.00  0.00    -0.379 N 
HETATM   10  C11 UNL     1      24.544   3.046  52.599  1.00  0.00     0.040 C 
HETATM   11  C12 UNL     1      23.092   2.425  52.687  1.00  0.00     0.043 A 
HETATM   12  C13 UNL     1      23.397   1.755  51.598  1.00  0.00     0.038 A 
HETATM   13  C14 UNL     1      23.288   3.216  51.515  1.00  0.00    -0.007 A 
HETATM   14  C15 UNL     1      23.624   3.360  50.262  1.00  0.00    -0.039 A 
HETATM   15  C16 UNL     1      24.848   3.355  51.179  1.00  0.00     0.063 A 
HETATM   16  C17 UNL     1      22.905   4.612  52.265  1.00  0.00    -0.003 C 
HETATM   17  C18 UNL     1      22.765   5.696  51.357  1.00  0.00     0.011 C 
HETATM   18  C19 UNL     1      24.193   4.563  53.131  1.00  0.00     0.037 C 
HETATM   19  H8  UNL     1      24.943   2.571  54.378  1.00  0.00     0.160 HD
ENDROOT
BRANCH   1  20
HETATM   20  C4  UNL     1      21.824   0.363  52.150  1.00  0.00     0.008 A 
HETATM   21  C3  UNL     1      20.577   0.598  51.383  1.00  0.00     0.023 A 
HETATM   22  C2  UNL     1      19.798  -0.173  52.097  1.00  0.00    -0.043 A 
HETATM   23  C1  UNL     1      18.361  -0.413  51.873  1.00  0.00     0.049 C 
HETATM   24  C20 UNL     1      21.009  -0.406  52.851  1.00  0.00     0.029 A 
HETATM   25 BR1  UNL     1      20.966  -1.582  54.384  1.00  0.00    -0.050 Br
ENDBRANCH   1  20
TORSDOF 1
ENDMDL
MODEL 4
REMARK VINA RESULT:      -8.5      2.323      4.577
REMARK  1 active torsions:
REMARK  status: ('A' for Active; 'I' for Inactive)
REMARK    1  A    between atoms: C4_4  and  C5_5 
ROOT
HETATM    1  C5  UNL     1      23.332   2.713  52.237  1.00  0.00     0.059 C 
HETATM    2  N1  UNL     1      23.053   3.936  52.132  1.00  0.00    -0.245 NA
HETATM    3  C6  UNL     1      21.817   4.437  51.775  1.00  0.00     0.232 C 
HETATM    4  N2  UNL     1      21.576   3.876  50.624  1.00  0.00    -0.253 NA
HETATM    5  C7  UNL     1      20.329   4.195  49.966  1.00  0.00     0.131 C 
HETATM    6  C8  UNL     1      19.250   3.683  50.601  1.00  0.00     0.010 A 
HETATM    7  C9  UNL     1      18.188   3.079  51.379  1.00  0.00     0.045 A 
HETATM    8  C10 UNL     1      19.459   2.974  51.776  1.00  0.00     0.041 A 
HETATM    9  N3  UNL     1      20.318   2.436  52.792  1.00  0.00    -0.379 N 
HETATM   10  C11 UNL     1      21.074   1.307  52.949  1.00  0.00     0.040 C 
HETATM   11  C12 UNL     1      22.565   1.529  53.427  1.00  0.00     0.043 A 
HETATM   12  C13 UNL     1      22.914   1.329  52.176  1.00  0.00     0.038 A 
HETATM   13  C14 UNL     1      22.331   0.211  52.927  1.00  0.00    -0.007 A 
HETATM   14  C15 UNL     1      22.309  -0.672  51.967  1.00  0.00    -0.039 A 
HETATM   15  C16 UNL     1      21.045   0.187  51.975  1.00  0.00     0.063 A 
HETATM   16  C17 UNL     1      21.791  -0.350  54.360  1.00  0.00    -0.003 C 
HETATM   17  C18 UNL     1      21.631  -1.762  54.364  1.00  0.00     0.011 C 
HETATM   18  C19 UNL     1      20.506   0.518  54.277  1.00  0.00     0.037 C 
HETATM   19  H8  UNL     1      20.499   2.923  53.727  1.00  0.00     0.160 HD
ENDROOT
BRANCH   1  20
HETATM   20  C4  UNL     1      24.753   2.389  52.638  1.00  0.00     0.008 A 
HETATM   21  C3  UNL     1      25.793   1.957  53.603  1.00  0.00     0.023 A 
HETATM   22  C2  UNL     1      26.826   2.135  52.820  1.00  0.00    -0.043 A 
HETATM   23  C1  UNL     1      28.236   1.883  53.163  1.00  0.00     0.049 C 
HETATM   24  C20 UNL     1      25.818   2.558  51.874  1.00  0.00     0.029 A 
HETATM   25 BR1  UNL     1      26.351   3.138  50.109  1.00  0.00    -0.050 Br
ENDBRANCH   1  20
TORSDOF 1
ENDMDL
MODEL 5
REMARK VINA RESULT:      -8.4      1.775      5.238
REMARK  1 active torsions:
REMARK  status: ('A' for Active; 'I' for Inactive)
REMARK    1  A    between atoms: C4_4  and  C5_5 
ROOT
HETATM    1  C5  UNL     1      23.450   1.501  51.792  1.00  0.00     0.059 C 
HETATM    2  N1  UNL     1      23.003   1.757  50.643  1.00  0.00    -0.245 NA
HETATM    3  C6  UNL     1      23.613   2.587  49.724  1.00  0.00     0.232 C 
HETATM    4  N2  UNL     1      23.737   3.716  50.360  1.00  0.00    -0.253 NA
HETATM    5  C7  UNL     1      24.358   4.819  49.660  1.00  0.00     0.131 C 
HETATM    6  C8  UNL     1      25.679   4.633  49.445  1.00  0.00     0.010 A 
HETATM    7  C9  UNL     1      27.080   4.304  49.282  1.00  0.00     0.045 A 
HETATM    8  C10 UNL     1      26.249   3.440  49.871  1.00  0.00     0.041 A 
HETATM    9  N3  UNL     1      26.164   2.150  50.492  1.00  0.00    -0.379 N 
HETATM   10  C11 UNL     1      26.199   1.665  51.770  1.00  0.00     0.040 C 
HETATM   11  C12 UNL     1      25.048   0.655  52.165  1.00  0.00     0.043 A 
HETATM   12  C13 UNL     1      24.484   1.663  52.791  1.00  0.00     0.038 A 
HETATM   13  C14 UNL     1      25.764   1.152  53.296  1.00  0.00    -0.007 A 
HETATM   14  C15 UNL     1      25.942   2.007  54.265  1.00  0.00    -0.039 A 
HETATM   15  C16 UNL     1      26.502   2.527  52.940  1.00  0.00     0.063 A 
HETATM   16  C17 UNL     1      26.932   0.019  53.186  1.00  0.00    -0.003 C 
HETATM   17  C18 UNL     1      27.796   0.020  54.315  1.00  0.00     0.011 C 
HETATM   18  C19 UNL     1      27.476   0.631  51.866  1.00  0.00     0.037 C 
HETATM   19  H8  UNL     1      26.057   1.238  49.941  1.00  0.00     0.160 HD
ENDROOT
BRANCH   1  20
HETATM   20  C4  UNL     1      22.616   0.567  52.637  1.00  0.00     0.008 A 
HETATM   21  C3  UNL     1      22.414  -0.391  53.750  1.00  0.00     0.023 A 
HETATM   22  C2  UNL     1      21.167  -0.687  53.488  1.00  0.00    -0.043 A 
HETATM   23  C1  UNL     1      20.313  -1.621  54.242  1.00  0.00     0.049 C 
HETATM   24  C20 UNL     1      21.356   0.246  52.399  1.00  0.00     0.029 A 
HETATM   25 BR1  UNL     1      19.896   0.599  51.182  1.00  0.00    -0.050 Br
ENDBRANCH   1  20
TORSDOF 1
ENDMDL
MODEL 6
REMARK VINA RESULT:      -8.2      2.658      6.710
REMARK  1 active torsions:
REMARK  status: ('A' for Active; 'I' for Inactive)
REMARK    1  A    between atoms: C4_4  and  C5_5 
ROOT
HETATM    1  C5  UNL     1      24.002   1.775  51.766  1.00  0.00     0.059 C 
HETATM    2  N1  UNL     1      25.199   1.963  52.110  1.00  0.00    -0.245 NA
HETATM    3  C6  UNL     1      26.039   2.911  51.560  1.00  0.00     0.232 C 
HETATM    4  N2  UNL     1      26.032   2.630  50.288  1.00  0.00    -0.253 NA
HETATM    5  C7  UNL     1      26.829   3.459  49.410  1.00  0.00     0.131 C 
HETATM    6  C8  UNL     1      26.342   4.713  49.280  1.00  0.00     0.010 A 
HETATM    7  C9  UNL     1      25.713   6.017  49.234  1.00  0.00     0.045 A 
HETATM    8  C10 UNL     1      25.204   5.050  50.003  1.00  0.00     0.041 A 
HETATM    9  N3  UNL     1      24.151   4.732  50.923  1.00  0.00    -0.379 N 
HETATM   10  C11 UNL     1      22.922   4.136  50.849  1.00  0.00     0.040 C 
HETATM   11  C12 UNL     1      22.631   3.003  51.913  1.00  0.00     0.043 A 
HETATM   12  C13 UNL     1      22.868   2.144  50.947  1.00  0.00     0.038 A 
HETATM   13  C14 UNL     1      21.690   3.012  50.839  1.00  0.00    -0.007 A 
HETATM   14  C15 UNL     1      21.274   2.623  49.665  1.00  0.00    -0.039 A 
HETATM   15  C16 UNL     1      22.301   3.751  49.557  1.00  0.00     0.063 A 
HETATM   16  C17 UNL     1      20.738   4.133  51.543  1.00  0.00    -0.003 C 
HETATM   17  C18 UNL     1      19.501   4.299  50.864  1.00  0.00     0.011 C 
HETATM   18  C19 UNL     1      21.812   5.240  51.358  1.00  0.00     0.037 C 
HETATM   19  H8  UNL     1      24.188   4.972  51.965  1.00  0.00     0.160 HD
ENDROOT
BRANCH   1  20
HETATM   20  C4  UNL     1      23.265   0.679  52.500  1.00  0.00     0.008 A 
HETATM   21  C3  UNL     1      22.054  -0.102  52.849  1.00  0.00     0.023 A 
HETATM   22  C2  UNL     1      22.606  -0.862  53.760  1.00  0.00    -0.043 A 
HETATM   23  C1  UNL     1      21.936  -1.915  54.543  1.00  0.00     0.049 C 
HETATM   24  C20 UNL     1      23.791  -0.104  53.426  1.00  0.00     0.029 A 
HETATM   25 BR1  UNL     1      25.450  -0.475  54.347  1.00  0.00    -0.050 Br
ENDBRANCH   1  20
TORSDOF 1
ENDMDL
MODEL 7
REMARK VINA RESULT:      -8.1      3.048      6.122
REMARK  1 active torsions:
REMARK  status: ('A' for Active; 'I' for Inactive)
REMARK    1  A    between atoms: C4_4  and  C5_5 
ROOT
HETATM    1  C5  UNL     1      26.360   5.097  49.280  1.00  0.00     0.059 C 
HETATM    2  N1  UNL     1      26.912   3.997  49.016  1.00  0.00    -0.245 NA
HETATM    3  C6  UNL     1      26.632   2.800  49.645  1.00  0.00     0.232 C 
HETATM    4  N2  UNL     1      26.842   3.056  50.905  1.00  0.00    -0.253 NA
HETATM    5  C7  UNL     1      26.628   1.986  51.855  1.00  0.00     0.131 C 
HETATM    6  C8  UNL     1      25.325   1.654  51.994  1.00  0.00     0.010 A 
HETATM    7  C9  UNL     1      23.900   1.402  52.043  1.00  0.00     0.045 A 
HETATM    8  C10 UNL     1      24.393   2.327  51.214  1.00  0.00     0.041 A 
HETATM    9  N3  UNL     1      24.043   3.302  50.222  1.00  0.00    -0.379 N 
HETATM   10  C11 UNL     1      23.804   4.649  50.203  1.00  0.00     0.040 C 
HETATM   11  C12 UNL     1      24.563   5.476  49.089  1.00  0.00     0.043 A 
HETATM   12  C13 UNL     1      25.388   5.853  50.040  1.00  0.00     0.038 A 
HETATM   13  C14 UNL     1      23.993   6.303  50.103  1.00  0.00    -0.007 A 
HETATM   14  C15 UNL     1      24.052   6.946  51.237  1.00  0.00    -0.039 A 
HETATM   15  C16 UNL     1      23.739   5.463  51.443  1.00  0.00     0.063 A 
HETATM   16  C17 UNL     1      22.534   6.368  49.377  1.00  0.00    -0.003 C 
HETATM   17  C18 UNL     1      21.667   7.317  49.985  1.00  0.00     0.011 C 
HETATM   18  C19 UNL     1      22.265   4.865  49.662  1.00  0.00     0.037 C 
HETATM   19  H8  UNL     1      23.881   3.061  49.192  1.00  0.00     0.160 HD
ENDROOT
BRANCH   1  20
HETATM   20  C4  UNL     1      26.824   6.284  48.469  1.00  0.00     0.008 A 
HETATM   21  C3  UNL     1      26.604   7.534  47.702  1.00  0.00     0.023 A 
HETATM   22  C2  UNL     1      27.842   7.711  47.319  1.00  0.00    -0.043 A 
HETATM   23  C1  UNL     1      28.351   8.819  46.492  1.00  0.00     0.049 C 
HETATM   24  C20 UNL     1      28.064   6.492  48.064  1.00  0.00     0.029 A 
HETATM   25 BR1  UNL     1      29.844   5.742  48.154  1.00  0.00    -0.050 Br
ENDBRANCH   1  20
TORSDOF 1
ENDMDL
MODEL 8
REMARK VINA RESULT:      -8.1      2.232      4.663
REMARK  1 active torsions:
REMARK  status: ('A' for Active; 'I' for Inactive)
REMARK    1  A    between atoms: C4_4  and  C5_5 
ROOT
HETATM    1  C5  UNL     1      25.323   3.691  50.775  1.00  0.00     0.059 C 
HETATM    2  N1  UNL     1      26.432   3.096  50.750  1.00  0.00    -0.245 NA
HETATM    3  C6  UNL     1      26.755   1.993  51.515  1.00  0.00     0.232 C 
HETATM    4  N2  UNL     1      26.547   2.392  52.737  1.00  0.00    -0.253 NA
HETATM    5  C7  UNL     1      26.792   1.449  53.806  1.00  0.00     0.131 C 
HETATM    6  C8  UNL     1      25.897   0.436  53.834  1.00  0.00     0.010 A 
HETATM    7  C9  UNL     1      24.875  -0.586  53.747  1.00  0.00     0.045 A 
HETATM    8  C10 UNL     1      24.913   0.406  52.854  1.00  0.00     0.041 A 
HETATM    9  N3  UNL     1      24.272   0.947  51.690  1.00  0.00    -0.379 N 
HETATM   10  C11 UNL     1      23.332   1.907  51.437  1.00  0.00     0.040 C 
HETATM   11  C12 UNL     1      23.694   2.957  50.310  1.00  0.00     0.043 A 
HETATM   12  C13 UNL     1      23.974   3.791  51.287  1.00  0.00     0.038 A 
HETATM   13  C14 UNL     1      22.582   3.361  51.110  1.00  0.00    -0.007 A 
HETATM   14  C15 UNL     1      22.060   3.982  52.132  1.00  0.00    -0.039 A 
HETATM   15  C16 UNL     1      22.594   2.603  52.521  1.00  0.00     0.063 A 
HETATM   16  C17 UNL     1      21.501   2.535  50.211  1.00  0.00    -0.003 C 
HETATM   17  C18 UNL     1      20.158   2.845  50.557  1.00  0.00     0.011 C 
HETATM   18  C19 UNL     1      22.067   1.169  50.687  1.00  0.00     0.037 C 
HETATM   19  H8  UNL     1      24.468   0.600  50.697  1.00  0.00     0.160 HD
ENDROOT
BRANCH   1  20
HETATM   20  C4  UNL     1      25.189   4.882  49.854  1.00  0.00     0.008 A 
HETATM   21  C3  UNL     1      24.426   5.970  49.196  1.00  0.00     0.023 A 
HETATM   22  C2  UNL     1      25.395   6.412  48.435  1.00  0.00    -0.043 A 
HETATM   23  C1  UNL     1      25.318   7.536  47.486  1.00  0.00     0.049 C 
HETATM   24  C20 UNL     1      26.145   5.352  49.073  1.00  0.00     0.029 A 
HETATM   25 BR1  UNL     1      27.995   5.071  48.589  1.00  0.00    -0.050 Br
ENDBRANCH   1  20
TORSDOF 1
ENDMDL
MODEL 9
REMARK VINA RESULT:      -7.9      2.305      4.611
REMARK  1 active torsions:
REMARK  status: ('A' for Active; 'I' for Inactive)
REMARK    1  A    between atoms: C4_4  and  C5_5 
ROOT
HETATM    1  C5  UNL     1      23.906   1.394  51.882  1.00  0.00     0.059 C 
HETATM    2  N1  UNL     1      24.471   0.313  52.196  1.00  0.00    -0.245 NA
HETATM    3  C6  UNL     1      23.899  -0.686  52.959  1.00  0.00     0.232 C 
HETATM    4  N2  UNL     1      23.563  -0.080  54.061  1.00  0.00    -0.253 NA
HETATM    5  C7  UNL     1      22.919  -0.863  55.093  1.00  0.00     0.131 C 
HETATM    6  C8  UNL     1      21.668  -1.253  54.759  1.00  0.00     0.010 A 
HETATM    7  C9  UNL     1      20.348  -1.599  54.273  1.00  0.00     0.045 A 
HETATM    8  C10 UNL     1      21.186  -0.897  53.505  1.00  0.00     0.041 A 
HETATM    9  N3  UNL     1      21.334  -0.262  52.228  1.00  0.00    -0.379 N 
HETATM   10  C11 UNL     1      21.184   1.004  51.731  1.00  0.00     0.040 C 
HETATM   11  C12 UNL     1      22.380   1.555  50.856  1.00  0.00     0.043 A 
HETATM   12  C13 UNL     1      22.736   2.245  51.917  1.00  0.00     0.038 A 
HETATM   13  C14 UNL     1      21.467   2.578  51.258  1.00  0.00    -0.007 A 
HETATM   14  C15 UNL     1      21.066   3.508  52.080  1.00  0.00    -0.039 A 
HETATM   15  C16 UNL     1      20.632   2.117  52.544  1.00  0.00     0.063 A 
HETATM   16  C17 UNL     1      20.461   2.321  50.001  1.00  0.00    -0.003 C 
HETATM   17  C18 UNL     1      19.460   3.324  49.894  1.00  0.00     0.011 C 
HETATM   18  C19 UNL     1      20.033   0.935  50.558  1.00  0.00     0.037 C 
HETATM   19  H8  UNL     1      21.617  -0.787  51.339  1.00  0.00     0.160 HD
ENDROOT
BRANCH   1  20
HETATM   20  C4  UNL     1      24.722   2.349  51.042  1.00  0.00     0.008 A 
HETATM   21  C3  UNL     1      24.922   3.267  49.895  1.00  0.00     0.023 A 
HETATM   22  C2  UNL     1      26.188   3.520  50.107  1.00  0.00    -0.043 A 
HETATM   23  C1  UNL     1      27.050   4.403  49.303  1.00  0.00     0.049 C 
HETATM   24  C20 UNL     1      26.000   2.626  51.228  1.00  0.00     0.029 A 
HETATM   25 BR1  UNL     1      27.493   2.230  52.391  1.00  0.00    -0.050 Br
ENDBRANCH   1  20
TORSDOF 1
ENDMDL
