MODEL 1
REMARK VINA RESULT:      -8.4      0.000      0.000
REMARK  8 active torsions:
REMARK  status: ('A' for Active; 'I' for Inactive)
REMARK    1  A    between atoms: C2_2  and  O1_3 
REMARK    2  A    between atoms: O1_3  and  C3_4 
REMARK    3  A    between atoms: C3_4  and  C4_6 
REMARK    4  A    between atoms: N1_9  and  C7_10 
REMARK    5  A    between atoms: C7_10  and  C8_11 
REMARK    6  A    between atoms: C11_14  and  O3_15 
REMARK    7  A    between atoms: O3_15  and  C12_16 
REMARK    8  A    between atoms: C13_17  and  O4_18 
ROOT
HETATM    1  C8  UNL     1      26.020   4.313  49.636  1.00  0.00    -0.030 A 
HETATM    2  C9  UNL     1      25.274   5.429  49.997  1.00  0.00     0.012 A 
HETATM    3  C10 UNL     1      25.640   6.725  49.635  1.00  0.00     0.038 A 
HETATM    4  C11 UNL     1      26.792   6.917  48.886  1.00  0.00     0.075 A 
HETATM    5  C19 UNL     1      27.539   5.813  48.524  1.00  0.00     0.038 A 
HETATM    6  C20 UNL     1      27.163   4.532  48.890  1.00  0.00     0.012 A 
ENDROOT
BRANCH   1   7
HETATM    7  C7  UNL     1      25.561   2.953  50.064  1.00  0.00     0.311 C 
BRANCH   7   8
HETATM    8  N1  UNL     1      25.673   2.747  51.474  1.00  0.00     0.092 N 
HETATM    9  C6  UNL     1      24.684   1.760  51.869  1.00  0.00     0.273 C 
HETATM   10  C5  UNL     1      25.361   0.585  52.578  1.00  0.00     0.045 C 
HETATM   11  C4  UNL     1      26.046   1.167  53.807  1.00  0.00     0.089 C 
HETATM   12  C22 UNL     1      27.171   2.035  53.279  1.00  0.00     0.045 C 
HETATM   13  C21 UNL     1      27.021   2.340  51.821  1.00  0.00     0.273 C 
BRANCH  11  14
HETATM   14  C3  UNL     1      26.547   0.116  54.722  1.00  0.00     0.263 C 
HETATM   15  O2  UNL     1      26.000  -0.626  55.593  1.00  0.00    -0.265 OA
BRANCH  14  16
HETATM   16  O1  UNL     1      27.904  -0.167  54.660  1.00  0.00    -0.322 OA
BRANCH  16  17
HETATM   17  C2  UNL     1      28.405  -1.007  53.633  1.00  0.00     0.174 C 
HETATM   18  C1  UNL     1      29.919  -0.928  53.618  1.00  0.00     0.034 C 
ENDBRANCH  16  17
ENDBRANCH  14  16
ENDBRANCH  11  14
ENDBRANCH   7   8
ENDBRANCH   1   7
BRANCH   4  19
HETATM   19  O3  UNL     1      27.099   8.232  48.559  1.00  0.00    -0.312 OA
BRANCH  19  20
HETATM   20  C12 UNL     1      28.436   8.528  48.321  1.00  0.00     0.090 C 
HETATM   21  C13 UNL     1      29.093   9.119  49.306  1.00  0.00     0.095 C 
HETATM   22  C14 UNL     1      30.489   9.539  49.331  1.00  0.00     0.039 C 
HETATM   23  C15 UNL     1      31.513   9.118  48.570  1.00  0.00     0.003 C 
HETATM   24  C16 UNL     1      31.397   8.095  47.514  1.00  0.00    -0.004 C 
HETATM   25  C17 UNL     1      30.289   7.721  46.892  1.00  0.00    -0.020 C 
HETATM   26  C18 UNL     1      28.852   8.101  46.960  1.00  0.00     0.095 C 
BRANCH  21  27
HETATM   27  O4  UNL     1      28.343   9.363  50.454  1.00  0.00    -0.358 OA
HETATM   28  H15 UNL     1      28.801   9.904  51.179  1.00  0.00     0.217 HD
ENDBRANCH  21  27
ENDBRANCH  19  20
ENDBRANCH   4  19
TORSDOF 8
ENDMDL
MODEL 2
REMARK VINA RESULT:      -8.1      1.250      1.957
REMARK  8 active torsions:
REMARK  status: ('A' for Active; 'I' for Inactive)
REMARK    1  A    between atoms: C2_2  and  O1_3 
REMARK    2  A    between atoms: O1_3  and  C3_4 
REMARK    3  A    between atoms: C3_4  and  C4_6 
REMARK    4  A    between atoms: N1_9  and  C7_10 
REMARK    5  A    between atoms: C7_10  and  C8_11 
REMARK    6  A    between atoms: C11_14  and  O3_15 
REMARK    7  A    between atoms: O3_15  and  C12_16 
REMARK    8  A    between atoms: C13_17  and  O4_18 
ROOT
HETATM    1  C8  UNL     1      26.066   4.532  49.426  1.00  0.00    -0.030 A 
HETATM    2  C9  UNL     1      25.431   5.764  49.526  1.00  0.00     0.012 A 
HETATM    3  C10 UNL     1      26.017   6.948  49.080  1.00  0.00     0.038 A 
HETATM    4  C11 UNL     1      27.283   6.904  48.514  1.00  0.00     0.075 A 
HETATM    5  C19 UNL     1      27.921   5.683  48.411  1.00  0.00     0.038 A 
HETATM    6  C20 UNL     1      27.326   4.515  48.857  1.00  0.00     0.012 A 
ENDROOT
BRANCH   1   7
HETATM    7  C7  UNL     1      25.371   3.304  49.928  1.00  0.00     0.311 C 
BRANCH   7   8
HETATM    8  N1  UNL     1      25.740   2.965  51.267  1.00  0.00     0.092 N 
HETATM    9  C6  UNL     1      24.527   2.710  52.023  1.00  0.00     0.273 C 
HETATM   10  C5  UNL     1      24.570   1.310  52.640  1.00  0.00     0.045 C 
HETATM   11  C4  UNL     1      25.781   1.291  53.563  1.00  0.00     0.089 C 
HETATM   12  C22 UNL     1      26.993   1.380  52.656  1.00  0.00     0.045 C 
HETATM   13  C21 UNL     1      26.637   1.826  51.272  1.00  0.00     0.273 C 
BRANCH  11  14
HETATM   14  C3  UNL     1      25.820   0.078  54.413  1.00  0.00     0.263 C 
HETATM   15  O2  UNL     1      26.615  -0.345  55.307  1.00  0.00    -0.265 OA
BRANCH  14  16
HETATM   16  O1  UNL     1      24.788  -0.834  54.242  1.00  0.00    -0.322 OA
BRANCH  16  17
HETATM   17  C2  UNL     1      24.024  -1.253  55.360  1.00  0.00     0.174 C 
HETATM   18  C1  UNL     1      22.550  -1.175  55.013  1.00  0.00     0.034 C 
ENDBRANCH  16  17
ENDBRANCH  14  16
ENDBRANCH  11  14
ENDBRANCH   7   8
ENDBRANCH   1   7
BRANCH   4  19
HETATM   19  O3  UNL     1      27.809   8.119  48.090  1.00  0.00    -0.312 OA
BRANCH  19  20
HETATM   20  C12 UNL     1      29.193   8.219  48.025  1.00  0.00     0.090 C 
HETATM   21  C13 UNL     1      29.792   8.786  49.059  1.00  0.00     0.095 C 
HETATM   22  C14 UNL     1      31.218   9.019  49.256  1.00  0.00     0.039 C 
HETATM   23  C15 UNL     1      32.264   8.415  48.667  1.00  0.00     0.003 C 
HETATM   24  C16 UNL     1      32.145   7.345  47.659  1.00  0.00    -0.004 C 
HETATM   25  C17 UNL     1      31.086   7.077  46.910  1.00  0.00    -0.020 C 
HETATM   26  C18 UNL     1      29.719   7.646  46.759  1.00  0.00     0.095 C 
BRANCH  21  27
HETATM   27  O4  UNL     1      28.941   9.206  50.079  1.00  0.00    -0.358 OA
HETATM   28  H15 UNL     1      29.289   9.096  51.024  1.00  0.00     0.217 HD
ENDBRANCH  21  27
ENDBRANCH  19  20
ENDBRANCH   4  19
TORSDOF 8
ENDMDL
MODEL 3
REMARK VINA RESULT:      -8.1      6.617     10.122
REMARK  8 active torsions:
REMARK  status: ('A' for Active; 'I' for Inactive)
REMARK    1  A    between atoms: C2_2  and  O1_3 
REMARK    2  A    between atoms: O1_3  and  C3_4 
REMARK    3  A    between atoms: C3_4  and  C4_6 
REMARK    4  A    between atoms: N1_9  and  C7_10 
REMARK    5  A    between atoms: C7_10  and  C8_11 
REMARK    6  A    between atoms: C11_14  and  O3_15 
REMARK    7  A    between atoms: O3_15  and  C12_16 
REMARK    8  A    between atoms: C13_17  and  O4_18 
ROOT
HETATM    1  C8  UNL     1      22.257   0.967  51.538  1.00  0.00    -0.030 A 
HETATM    2  C9  UNL     1      21.984  -0.083  52.407  1.00  0.00     0.012 A 
HETATM    3  C10 UNL     1      22.938  -0.596  53.286  1.00  0.00     0.038 A 
HETATM    4  C11 UNL     1      24.210  -0.044  53.300  1.00  0.00     0.075 A 
HETATM    5  C19 UNL     1      24.490   1.000  52.439  1.00  0.00     0.038 A 
HETATM    6  C20 UNL     1      23.532   1.499  51.572  1.00  0.00     0.012 A 
ENDROOT
BRANCH   1   7
HETATM    7  C7  UNL     1      21.180   1.462  50.623  1.00  0.00     0.311 C 
BRANCH   7   8
HETATM    8  N1  UNL     1      19.872   1.343  51.189  1.00  0.00     0.092 N 
HETATM    9  C6  UNL     1      19.553   2.589  51.862  1.00  0.00     0.273 C 
HETATM   10  C5  UNL     1      18.252   3.174  51.307  1.00  0.00     0.045 C 
HETATM   11  C4  UNL     1      17.171   2.135  51.576  1.00  0.00     0.089 C 
HETATM   12  C22 UNL     1      17.504   0.953  50.688  1.00  0.00     0.045 C 
HETATM   13  C21 UNL     1      18.905   1.012  50.161  1.00  0.00     0.273 C 
BRANCH  11  14
HETATM   14  C3  UNL     1      15.811   2.657  51.306  1.00  0.00     0.263 C 
HETATM   15  O2  UNL     1      15.191   2.994  50.252  1.00  0.00    -0.265 OA
BRANCH  14  16
HETATM   16  O1  UNL     1      14.986   2.839  52.407  1.00  0.00    -0.322 OA
BRANCH  16  17
HETATM   17  C2  UNL     1      15.073   4.033  53.166  1.00  0.00     0.174 C 
HETATM   18  C1  UNL     1      13.696   4.393  53.689  1.00  0.00     0.034 C 
ENDBRANCH  16  17
ENDBRANCH  14  16
ENDBRANCH  11  14
ENDBRANCH   7   8
ENDBRANCH   1   7
BRANCH   4  19
HETATM   19  O3  UNL     1      25.112  -0.601  54.199  1.00  0.00    -0.312 OA
BRANCH  19  20
HETATM   20  C12 UNL     1      26.431  -0.717  53.780  1.00  0.00     0.090 C 
HETATM   21  C13 UNL     1      27.305   0.098  54.351  1.00  0.00     0.095 C 
HETATM   22  C14 UNL     1      28.739   0.193  54.106  1.00  0.00     0.039 C 
HETATM   23  C15 UNL     1      29.567  -0.715  53.565  1.00  0.00     0.003 C 
HETATM   24  C16 UNL     1      29.145  -2.049  53.097  1.00  0.00    -0.004 C 
HETATM   25  C17 UNL     1      27.917  -2.423  52.776  1.00  0.00    -0.020 C 
HETATM   26  C18 UNL     1      26.580  -1.769  52.742  1.00  0.00     0.095 C 
BRANCH  21  27
HETATM   27  O4  UNL     1      26.771   0.965  55.302  1.00  0.00    -0.358 OA
HETATM   28  H15 UNL     1      25.832   0.754  55.619  1.00  0.00     0.217 HD
ENDBRANCH  21  27
ENDBRANCH  19  20
ENDBRANCH   4  19
TORSDOF 8
ENDMDL
MODEL 4
REMARK VINA RESULT:      -8.0      1.220      1.491
REMARK  8 active torsions:
REMARK  status: ('A' for Active; 'I' for Inactive)
REMARK    1  A    between atoms: C2_2  and  O1_3 
REMARK    2  A    between atoms: O1_3  and  C3_4 
REMARK    3  A    between atoms: C3_4  and  C4_6 
REMARK    4  A    between atoms: N1_9  and  C7_10 
REMARK    5  A    between atoms: C7_10  and  C8_11 
REMARK    6  A    between atoms: C11_14  and  O3_15 
REMARK    7  A    between atoms: O3_15  and  C12_16 
REMARK    8  A    between atoms: C13_17  and  O4_18 
ROOT
HETATM    1  C8  UNL     1      24.672   4.954  50.436  1.00  0.00    -0.030 A 
HETATM    2  C9  UNL     1      24.218   6.075  51.121  1.00  0.00     0.012 A 
HETATM    3  C10 UNL     1      24.600   7.372  50.774  1.00  0.00     0.038 A 
HETATM    4  C11 UNL     1      25.465   7.558  49.706  1.00  0.00     0.075 A 
HETATM    5  C19 UNL     1      25.922   6.448  49.021  1.00  0.00     0.038 A 
HETATM    6  C20 UNL     1      25.533   5.167  49.376  1.00  0.00     0.012 A 
ENDROOT
BRANCH   1   7
HETATM    7  C7  UNL     1      24.217   3.595  50.869  1.00  0.00     0.311 C 
BRANCH   7   8
HETATM    8  N1  UNL     1      25.072   3.010  51.854  1.00  0.00     0.092 N 
HETATM    9  C6  UNL     1      24.246   2.278  52.797  1.00  0.00     0.273 C 
HETATM   10  C5  UNL     1      24.697   0.817  52.876  1.00  0.00     0.045 C 
HETATM   11  C4  UNL     1      26.144   0.844  53.350  1.00  0.00     0.089 C 
HETATM   12  C22 UNL     1      26.938   1.462  52.217  1.00  0.00     0.045 C 
HETATM   13  C21 UNL     1      26.065   2.162  51.223  1.00  0.00     0.273 C 
BRANCH  11  14
HETATM   14  C3  UNL     1      26.645  -0.505  53.701  1.00  0.00     0.263 C 
HETATM   15  O2  UNL     1      26.468  -1.663  53.215  1.00  0.00    -0.265 OA
BRANCH  14  16
HETATM   16  O1  UNL     1      27.501  -0.586  54.790  1.00  0.00    -0.322 OA
BRANCH  16  17
HETATM   17  C2  UNL     1      28.758   0.069  54.751  1.00  0.00     0.174 C 
HETATM   18  C1  UNL     1      29.676  -0.669  53.796  1.00  0.00     0.034 C 
ENDBRANCH  16  17
ENDBRANCH  14  16
ENDBRANCH  11  14
ENDBRANCH   7   8
ENDBRANCH   1   7
BRANCH   4  19
HETATM   19  O3  UNL     1      25.806   8.873  49.414  1.00  0.00    -0.312 OA
BRANCH  19  20
HETATM   20  C12 UNL     1      27.071   9.095  48.886  1.00  0.00     0.090 C 
HETATM   21  C13 UNL     1      28.025   9.403  49.752  1.00  0.00     0.095 C 
HETATM   22  C14 UNL     1      29.430   9.685  49.479  1.00  0.00     0.039 C 
HETATM   23  C15 UNL     1      30.168   9.349  48.409  1.00  0.00     0.003 C 
HETATM   24  C16 UNL     1      29.657   8.590  47.252  1.00  0.00    -0.004 C 
HETATM   25  C17 UNL     1      28.390   8.455  46.891  1.00  0.00    -0.020 C 
HETATM   26  C18 UNL     1      27.080   8.935  47.409  1.00  0.00     0.095 C 
BRANCH  21  27
HETATM   27  O4  UNL     1      27.619   9.459  51.083  1.00  0.00    -0.358 OA
HETATM   28  H15 UNL     1      28.358   9.558  51.770  1.00  0.00     0.217 HD
ENDBRANCH  21  27
ENDBRANCH  19  20
ENDBRANCH   4  19
TORSDOF 8
ENDMDL
MODEL 5
REMARK VINA RESULT:      -7.8      1.782      8.933
REMARK  8 active torsions:
REMARK  status: ('A' for Active; 'I' for Inactive)
REMARK    1  A    between atoms: C2_2  and  O1_3 
REMARK    2  A    between atoms: O1_3  and  C3_4 
REMARK    3  A    between atoms: C3_4  and  C4_6 
REMARK    4  A    between atoms: N1_9  and  C7_10 
REMARK    5  A    between atoms: C7_10  and  C8_11 
REMARK    6  A    between atoms: C11_14  and  O3_15 
REMARK    7  A    between atoms: O3_15  and  C12_16 
REMARK    8  A    between atoms: C13_17  and  O4_18 
ROOT
HETATM    1  C8  UNL     1      25.316   3.861  50.338  1.00  0.00    -0.030 A 
HETATM    2  C9  UNL     1      24.425   3.559  51.361  1.00  0.00     0.012 A 
HETATM    3  C10 UNL     1      24.562   2.426  52.164  1.00  0.00     0.038 A 
HETATM    4  C11 UNL     1      25.624   1.563  51.940  1.00  0.00     0.075 A 
HETATM    5  C19 UNL     1      26.514   1.856  50.924  1.00  0.00     0.038 A 
HETATM    6  C20 UNL     1      26.366   2.984  50.135  1.00  0.00     0.012 A 
ENDROOT
BRANCH   1   7
HETATM    7  C7  UNL     1      25.102   5.095  49.519  1.00  0.00     0.311 C 
BRANCH   7   8
HETATM    8  N1  UNL     1      26.102   6.092  49.744  1.00  0.00     0.092 N 
HETATM    9  C6  UNL     1      26.867   6.254  48.520  1.00  0.00     0.273 C 
HETATM   10  C5  UNL     1      26.833   7.714  48.061  1.00  0.00     0.045 C 
HETATM   11  C4  UNL     1      27.458   8.527  49.187  1.00  0.00     0.089 C 
HETATM   12  C22 UNL     1      26.490   8.436  50.349  1.00  0.00     0.045 C 
HETATM   13  C21 UNL     1      25.491   7.334  50.175  1.00  0.00     0.273 C 
BRANCH  11  14
HETATM   14  C3  UNL     1      27.711   9.932  48.791  1.00  0.00     0.263 C 
HETATM   15  O2  UNL     1      27.211  11.046  49.135  1.00  0.00    -0.265 OA
BRANCH  14  16
HETATM   16  O1  UNL     1      28.700  10.142  47.841  1.00  0.00    -0.322 OA
BRANCH  16  17
HETATM   17  C2  UNL     1      30.015   9.665  48.073  1.00  0.00     0.174 C 
HETATM   18  C1  UNL     1      30.626  10.433  49.230  1.00  0.00     0.034 C 
ENDBRANCH  16  17
ENDBRANCH  14  16
ENDBRANCH  11  14
ENDBRANCH   7   8
ENDBRANCH   1   7
BRANCH   4  19
HETATM   19  O3  UNL     1      25.702   0.455  52.774  1.00  0.00    -0.312 OA
BRANCH  19  20
HETATM   20  C12 UNL     1      26.966   0.082  53.213  1.00  0.00     0.090 C 
HETATM   21  C13 UNL     1      27.371  -1.134  52.878  1.00  0.00     0.095 C 
HETATM   22  C14 UNL     1      28.639  -1.779  53.199  1.00  0.00     0.039 C 
HETATM   23  C15 UNL     1      29.807  -1.220  53.556  1.00  0.00     0.003 C 
HETATM   24  C16 UNL     1      30.025   0.232  53.693  1.00  0.00    -0.004 C 
HETATM   25  C17 UNL     1      29.096   1.159  53.869  1.00  0.00    -0.020 C 
HETATM   26  C18 UNL     1      27.613   1.168  53.992  1.00  0.00     0.095 C 
BRANCH  21  27
HETATM   27  O4  UNL     1      26.462  -1.873  52.125  1.00  0.00    -0.358 OA
HETATM   28  H15 UNL     1      25.520  -1.929  52.493  1.00  0.00     0.217 HD
ENDBRANCH  21  27
ENDBRANCH  19  20
ENDBRANCH   4  19
TORSDOF 8
ENDMDL
MODEL 6
REMARK VINA RESULT:      -7.8      2.235      9.051
REMARK  8 active torsions:
REMARK  status: ('A' for Active; 'I' for Inactive)
REMARK    1  A    between atoms: C2_2  and  O1_3 
REMARK    2  A    between atoms: O1_3  and  C3_4 
REMARK    3  A    between atoms: C3_4  and  C4_6 
REMARK    4  A    between atoms: N1_9  and  C7_10 
REMARK    5  A    between atoms: C7_10  and  C8_11 
REMARK    6  A    between atoms: C11_14  and  O3_15 
REMARK    7  A    between atoms: O3_15  and  C12_16 
REMARK    8  A    between atoms: C13_17  and  O4_18 
ROOT
HETATM    1  C8  UNL     1      23.821   2.682  51.672  1.00  0.00    -0.030 A 
HETATM    2  C9  UNL     1      25.094   2.210  51.373  1.00  0.00     0.012 A 
HETATM    3  C10 UNL     1      25.596   1.019  51.899  1.00  0.00     0.038 A 
HETATM    4  C11 UNL     1      24.800   0.270  52.753  1.00  0.00     0.075 A 
HETATM    5  C19 UNL     1      23.533   0.732  53.056  1.00  0.00     0.038 A 
HETATM    6  C20 UNL     1      23.049   1.916  52.526  1.00  0.00     0.012 A 
ENDROOT
BRANCH   1   7
HETATM    7  C7  UNL     1      23.355   3.970  51.068  1.00  0.00     0.311 C 
BRANCH   7   8
HETATM    8  N1  UNL     1      24.378   4.639  50.327  1.00  0.00     0.092 N 
HETATM    9  C6  UNL     1      24.002   4.631  48.924  1.00  0.00     0.273 C 
HETATM   10  C5  UNL     1      23.960   6.060  48.378  1.00  0.00     0.045 C 
HETATM   11  C4  UNL     1      25.366   6.621  48.545  1.00  0.00     0.089 C 
HETATM   12  C22 UNL     1      25.581   6.756  50.040  1.00  0.00     0.045 C 
HETATM   13  C21 UNL     1      24.573   5.983  50.833  1.00  0.00     0.273 C 
BRANCH  11  14
HETATM   14  C3  UNL     1      25.541   7.915  47.846  1.00  0.00     0.263 C 
HETATM   15  O2  UNL     1      25.436   8.283  46.637  1.00  0.00    -0.265 OA
BRANCH  14  16
HETATM   16  O1  UNL     1      25.899   9.002  48.632  1.00  0.00    -0.322 OA
BRANCH  16  17
HETATM   17  C2  UNL     1      27.124   9.673  48.394  1.00  0.00     0.174 C 
HETATM   18  C1  UNL     1      28.035   9.489  49.592  1.00  0.00     0.034 C 
ENDBRANCH  16  17
ENDBRANCH  14  16
ENDBRANCH  11  14
ENDBRANCH   7   8
ENDBRANCH   1   7
BRANCH   4  19
HETATM   19  O3  UNL     1      25.359  -0.905  53.241  1.00  0.00    -0.312 OA
BRANCH  19  20
HETATM   20  C12 UNL     1      26.708  -0.873  53.570  1.00  0.00     0.090 C 
HETATM   21  C13 UNL     1      27.492  -1.726  52.928  1.00  0.00     0.095 C 
HETATM   22  C14 UNL     1      28.931  -1.908  53.073  1.00  0.00     0.039 C 
HETATM   23  C15 UNL     1      29.846  -1.059  53.569  1.00  0.00     0.003 C 
HETATM   24  C16 UNL     1      29.536   0.288  54.084  1.00  0.00    -0.004 C 
HETATM   25  C17 UNL     1      28.356   0.726  54.495  1.00  0.00    -0.020 C 
HETATM   26  C18 UNL     1      26.989   0.149  54.611  1.00  0.00     0.095 C 
BRANCH  21  27
HETATM   27  O4  UNL     1      26.845  -2.542  52.004  1.00  0.00    -0.358 OA
HETATM   28  H15 UNL     1      25.965  -2.193  51.640  1.00  0.00     0.217 HD
ENDBRANCH  21  27
ENDBRANCH  19  20
ENDBRANCH   4  19
TORSDOF 8
ENDMDL
MODEL 7
REMARK VINA RESULT:      -7.8      2.226      8.965
REMARK  8 active torsions:
REMARK  status: ('A' for Active; 'I' for Inactive)
REMARK    1  A    between atoms: C2_2  and  O1_3 
REMARK    2  A    between atoms: O1_3  and  C3_4 
REMARK    3  A    between atoms: C3_4  and  C4_6 
REMARK    4  A    between atoms: N1_9  and  C7_10 
REMARK    5  A    between atoms: C7_10  and  C8_11 
REMARK    6  A    between atoms: C11_14  and  O3_15 
REMARK    7  A    between atoms: O3_15  and  C12_16 
REMARK    8  A    between atoms: C13_17  and  O4_18 
ROOT
HETATM    1  C8  UNL     1      25.383   4.697  49.848  1.00  0.00    -0.030 A 
HETATM    2  C9  UNL     1      24.466   4.540  50.881  1.00  0.00     0.012 A 
HETATM    3  C10 UNL     1      24.568   3.520  51.827  1.00  0.00     0.038 A 
HETATM    4  C11 UNL     1      25.623   2.624  51.742  1.00  0.00     0.075 A 
HETATM    5  C19 UNL     1      26.539   2.772  50.718  1.00  0.00     0.038 A 
HETATM    6  C20 UNL     1      26.425   3.790  49.786  1.00  0.00     0.012 A 
ENDROOT
BRANCH   1   7
HETATM    7  C7  UNL     1      25.204   5.817  48.871  1.00  0.00     0.311 C 
BRANCH   7   8
HETATM    8  N1  UNL     1      26.249   6.790  48.943  1.00  0.00     0.092 N 
HETATM    9  C6  UNL     1      26.457   7.333  47.613  1.00  0.00     0.273 C 
HETATM   10  C5  UNL     1      26.300   8.856  47.631  1.00  0.00     0.045 C 
HETATM   11  C4  UNL     1      27.361   9.381  48.588  1.00  0.00     0.089 C 
HETATM   12  C22 UNL     1      26.945   8.906  49.966  1.00  0.00     0.045 C 
HETATM   13  C21 UNL     1      25.917   7.819  49.909  1.00  0.00     0.273 C 
BRANCH  11  14
HETATM   14  C3  UNL     1      27.488  10.855  48.531  1.00  0.00     0.263 C 
HETATM   15  O2  UNL     1      26.734  11.818  48.870  1.00  0.00    -0.265 OA
BRANCH  14  16
HETATM   16  O1  UNL     1      28.669  11.357  48.002  1.00  0.00    -0.322 OA
BRANCH  16  17
HETATM   17  C2  UNL     1      29.898  10.704  48.272  1.00  0.00     0.174 C 
HETATM   18  C1  UNL     1      30.766  11.608  49.125  1.00  0.00     0.034 C 
ENDBRANCH  16  17
ENDBRANCH  14  16
ENDBRANCH  11  14
ENDBRANCH   7   8
ENDBRANCH   1   7
BRANCH   4  19
HETATM   19  O3  UNL     1      25.667   1.633  52.715  1.00  0.00    -0.312 OA
BRANCH  19  20
HETATM   20  C12 UNL     1      26.844   0.901  52.819  1.00  0.00     0.090 C 
HETATM   21  C13 UNL     1      27.818   1.449  53.528  1.00  0.00     0.095 C 
HETATM   22  C14 UNL     1      29.145   0.910  53.800  1.00  0.00     0.039 C 
HETATM   23  C15 UNL     1      29.570  -0.363  53.740  1.00  0.00     0.003 C 
HETATM   24  C16 UNL     1      28.717  -1.507  53.368  1.00  0.00    -0.004 C 
HETATM   25  C17 UNL     1      27.580  -1.459  52.692  1.00  0.00    -0.020 C 
HETATM   26  C18 UNL     1      26.750  -0.385  52.081  1.00  0.00     0.095 C 
BRANCH  21  27
HETATM   27  O4  UNL     1      27.521   2.694  54.078  1.00  0.00    -0.358 OA
HETATM   28  H15 UNL     1      28.303   3.328  54.194  1.00  0.00     0.217 HD
ENDBRANCH  21  27
ENDBRANCH  19  20
ENDBRANCH   4  19
TORSDOF 8
ENDMDL
MODEL 8
REMARK VINA RESULT:      -7.7      3.440      8.477
REMARK  8 active torsions:
REMARK  status: ('A' for Active; 'I' for Inactive)
REMARK    1  A    between atoms: C2_2  and  O1_3 
REMARK    2  A    between atoms: O1_3  and  C3_4 
REMARK    3  A    between atoms: C3_4  and  C4_6 
REMARK    4  A    between atoms: N1_9  and  C7_10 
REMARK    5  A    between atoms: C7_10  and  C8_11 
REMARK    6  A    between atoms: C11_14  and  O3_15 
REMARK    7  A    between atoms: O3_15  and  C12_16 
REMARK    8  A    between atoms: C13_17  and  O4_18 
ROOT
HETATM    1  C8  UNL     1      27.290   5.899  48.671  1.00  0.00    -0.030 A 
HETATM    2  C9  UNL     1      26.372   6.820  49.163  1.00  0.00     0.012 A 
HETATM    3  C10 UNL     1      25.281   6.445  49.947  1.00  0.00     0.038 A 
HETATM    4  C11 UNL     1      25.097   5.104  50.252  1.00  0.00     0.075 A 
HETATM    5  C19 UNL     1      26.004   4.183  49.766  1.00  0.00     0.038 A 
HETATM    6  C20 UNL     1      27.083   4.570  48.989  1.00  0.00     0.012 A 
ENDROOT
BRANCH   1   7
HETATM    7  C7  UNL     1      28.436   6.379  47.836  1.00  0.00     0.311 C 
BRANCH   7   8
HETATM    8  N1  UNL     1      29.688   6.320  48.524  1.00  0.00     0.092 N 
HETATM    9  C6  UNL     1      30.541   5.370  47.833  1.00  0.00     0.273 C 
HETATM   10  C5  UNL     1      31.854   6.039  47.418  1.00  0.00     0.045 C 
HETATM   11  C4  UNL     1      32.518   6.508  48.706  1.00  0.00     0.089 C 
HETATM   12  C22 UNL     1      31.639   7.620  49.242  1.00  0.00     0.045 C 
HETATM   13  C21 UNL     1      30.287   7.639  48.599  1.00  0.00     0.273 C 
BRANCH  11  14
HETATM   14  C3  UNL     1      33.909   6.966  48.485  1.00  0.00     0.263 C 
HETATM   15  O2  UNL     1      34.526   8.050  48.718  1.00  0.00    -0.265 OA
BRANCH  14  16
HETATM   16  O1  UNL     1      34.778   6.055  47.901  1.00  0.00    -0.322 OA
BRANCH  16  17
HETATM   17  C2  UNL     1      35.161   4.889  48.610  1.00  0.00     0.174 C 
HETATM   18  C1  UNL     1      34.835   3.667  47.774  1.00  0.00     0.034 C 
ENDBRANCH  16  17
ENDBRANCH  14  16
ENDBRANCH  11  14
ENDBRANCH   7   8
ENDBRANCH   1   7
BRANCH   4  19
HETATM   19  O3  UNL     1      23.991   4.799  51.036  1.00  0.00    -0.312 OA
BRANCH  19  20
HETATM   20  C12 UNL     1      23.722   3.453  51.253  1.00  0.00     0.090 C 
HETATM   21  C13 UNL     1      23.953   2.996  52.474  1.00  0.00     0.095 C 
HETATM   22  C14 UNL     1      23.762   1.640  52.976  1.00  0.00     0.039 C 
HETATM   23  C15 UNL     1      22.990   0.656  52.486  1.00  0.00     0.003 C 
HETATM   24  C16 UNL     1      22.147   0.783  51.282  1.00  0.00    -0.004 C 
HETATM   25  C17 UNL     1      22.285   1.672  50.310  1.00  0.00    -0.020 C 
HETATM   26  C18 UNL     1      23.217   2.795  50.021  1.00  0.00     0.095 C 
BRANCH  21  27
HETATM   27  O4  UNL     1      24.436   3.939  53.377  1.00  0.00    -0.358 OA
HETATM   28  H15 UNL     1      23.969   3.974  54.277  1.00  0.00     0.217 HD
ENDBRANCH  21  27
ENDBRANCH  19  20
ENDBRANCH   4  19
TORSDOF 8
ENDMDL
MODEL 9
REMARK VINA RESULT:      -7.7      5.701      9.710
REMARK  8 active torsions:
REMARK  status: ('A' for Active; 'I' for Inactive)
REMARK    1  A    between atoms: C2_2  and  O1_3 
REMARK    2  A    between atoms: O1_3  and  C3_4 
REMARK    3  A    between atoms: C3_4  and  C4_6 
REMARK    4  A    between atoms: N1_9  and  C7_10 
REMARK    5  A    between atoms: C7_10  and  C8_11 
REMARK    6  A    between atoms: C11_14  and  O3_15 
REMARK    7  A    between atoms: O3_15  and  C12_16 
REMARK    8  A    between atoms: C13_17  and  O4_18 
ROOT
HETATM    1  C8  UNL     1      22.678   1.769  51.591  1.00  0.00    -0.030 A 
HETATM    2  C9  UNL     1      22.203   0.726  52.378  1.00  0.00     0.012 A 
HETATM    3  C10 UNL     1      23.040  -0.043  53.187  1.00  0.00     0.038 A 
HETATM    4  C11 UNL     1      24.398   0.236  53.213  1.00  0.00     0.075 A 
HETATM    5  C19 UNL     1      24.878   1.271  52.433  1.00  0.00     0.038 A 
HETATM    6  C20 UNL     1      24.035   2.026  51.635  1.00  0.00     0.012 A 
ENDROOT
BRANCH   1   7
HETATM    7  C7  UNL     1      21.717   2.549  50.748  1.00  0.00     0.311 C 
BRANCH   7   8
HETATM    8  N1  UNL     1      22.124   2.640  49.381  1.00  0.00     0.092 N 
HETATM    9  C6  UNL     1      21.189   1.875  48.576  1.00  0.00     0.273 C 
HETATM   10  C5  UNL     1      20.575   2.761  47.489  1.00  0.00     0.045 C 
HETATM   11  C4  UNL     1      21.736   3.247  46.631  1.00  0.00     0.089 C 
HETATM   12  C22 UNL     1      22.542   4.177  47.517  1.00  0.00     0.045 C 
HETATM   13  C21 UNL     1      22.195   4.028  48.966  1.00  0.00     0.273 C 
BRANCH  11  14
HETATM   14  C3  UNL     1      21.278   3.925  45.397  1.00  0.00     0.263 C 
HETATM   15  O2  UNL     1      21.343   3.644  44.162  1.00  0.00    -0.265 OA
BRANCH  14  16
HETATM   16  O1  UNL     1      20.625   5.139  45.561  1.00  0.00    -0.322 OA
BRANCH  16  17
HETATM   17  C2  UNL     1      19.488   5.442  44.770  1.00  0.00     0.174 C 
HETATM   18  C1  UNL     1      18.822   6.691  45.312  1.00  0.00     0.034 C 
ENDBRANCH  16  17
ENDBRANCH  14  16
ENDBRANCH  11  14
ENDBRANCH   7   8
ENDBRANCH   1   7
BRANCH   4  19
HETATM   19  O3  UNL     1      25.175  -0.567  54.039  1.00  0.00    -0.312 OA
BRANCH  19  20
HETATM   20  C12 UNL     1      26.517  -0.703  53.708  1.00  0.00     0.090 C 
HETATM   21  C13 UNL     1      27.368   0.069  54.366  1.00  0.00     0.095 C 
HETATM   22  C14 UNL     1      28.817   0.134  54.223  1.00  0.00     0.039 C 
HETATM   23  C15 UNL     1      29.659  -0.777  53.708  1.00  0.00     0.003 C 
HETATM   24  C16 UNL     1      29.240  -2.083  53.166  1.00  0.00    -0.004 C 
HETATM   25  C17 UNL     1      28.027  -2.413  52.748  1.00  0.00    -0.020 C 
HETATM   26  C18 UNL     1      26.713  -1.723  52.646  1.00  0.00     0.095 C 
BRANCH  21  27
HETATM   27  O4  UNL     1      26.790   0.916  55.308  1.00  0.00    -0.358 OA
HETATM   28  H15 UNL     1      27.081   1.886  55.273  1.00  0.00     0.217 HD
ENDBRANCH  21  27
ENDBRANCH  19  20
ENDBRANCH   4  19
TORSDOF 8
ENDMDL
