MODEL 1
REMARK VINA RESULT:      -9.2      0.000      0.000
REMARK  3 active torsions:
REMARK  status: ('A' for Active; 'I' for Inactive)
REMARK    1  A    between atoms: O1_1  and  C1_2 
REMARK    2  A    between atoms: C7_8  and  N1_9 
REMARK    3  A    between atoms: N1_9  and  C8_10 
ROOT
HETATM    1  C1  UNL     1      27.619  -1.257  52.975  1.00  0.00     0.059 A 
HETATM    2  C2  UNL     1      29.017  -1.380  53.079  1.00  0.00     0.030 A 
HETATM    3  C3  UNL     1      29.796  -0.485  53.847  1.00  0.00    -0.011 A 
HETATM    4  C4  UNL     1      28.891   0.375  54.368  1.00  0.00     0.020 A 
HETATM    5  C5  UNL     1      27.625   0.853  54.566  1.00  0.00     0.030 A 
HETATM    6  C6  UNL     1      27.374  -0.177  53.751  1.00  0.00     0.070 A 
HETATM    7  C7  UNL     1      26.154   0.594  53.444  1.00  0.00     0.040 C 
HETATM    8  C14 UNL     1      25.991   1.677  52.685  1.00  0.00     0.035 C 
HETATM    9  C15 UNL     1      27.053   2.008  52.024  1.00  0.00     0.121 C 
HETATM   10  N2  UNL     1      28.141   1.879  52.659  1.00  0.00    -0.176 NA
HETATM   11  N3  UNL     1      28.176   2.546  53.919  1.00  0.00    -0.312 N 
HETATM   12  C16 UNL     1      29.341   1.818  54.650  1.00  0.00     0.157 C 
HETATM   13  H10 UNL     1      27.602   3.308  54.272  1.00  0.00     0.182 HD
ENDROOT
BRANCH   7  14
HETATM   14  N1  UNL     1      25.179  -0.115  54.152  1.00  0.00    -0.358 N 
HETATM   15  H5  UNL     1      25.168  -0.668  55.027  1.00  0.00     0.166 HD
BRANCH  14  16
HETATM   16  C8  UNL     1      23.947   0.016  53.460  1.00  0.00     0.034 A 
HETATM   17  C9  UNL     1      23.667   0.813  52.367  1.00  0.00     0.029 A 
HETATM   18  C10 UNL     1      22.377   0.813  51.848  1.00  0.00     0.004 A 
HETATM   19  C11 UNL     1      21.375   0.041  52.396  1.00  0.00     0.024 A 
HETATM   20  C12 UNL     1      21.674  -0.751  53.490  1.00  0.00     0.036 A 
HETATM   21 CL1  UNL     1      20.358  -1.710  54.148  1.00  0.00    -0.084 Cl
HETATM   22  C13 UNL     1      22.977  -0.751  54.013  1.00  0.00     0.053 A 
ENDBRANCH  14  16
ENDBRANCH   7  14
BRANCH   1  23
HETATM   23  O1  UNL     1      26.563  -1.849  52.389  1.00  0.00    -0.364 OA
HETATM   24  H1  UNL     1      25.738  -1.323  52.135  1.00  0.00     0.217 HD
ENDBRANCH   1  23
TORSDOF 3
ENDMDL
MODEL 2
REMARK VINA RESULT:      -9.1      2.361      3.360
REMARK  3 active torsions:
REMARK  status: ('A' for Active; 'I' for Inactive)
REMARK    1  A    between atoms: O1_1  and  C1_2 
REMARK    2  A    between atoms: C7_8  and  N1_9 
REMARK    3  A    between atoms: N1_9  and  C8_10 
ROOT
HETATM    1  C1  UNL     1      28.253   1.615  53.819  1.00  0.00     0.059 A 
HETATM    2  C2  UNL     1      29.348   0.788  54.135  1.00  0.00     0.030 A 
HETATM    3  C3  UNL     1      29.448  -0.541  53.665  1.00  0.00    -0.011 A 
HETATM    4  C4  UNL     1      28.328  -0.713  52.925  1.00  0.00     0.020 A 
HETATM    5  C5  UNL     1      27.148  -0.301  52.372  1.00  0.00     0.030 A 
HETATM    6  C6  UNL     1      27.504   0.801  53.040  1.00  0.00     0.070 A 
HETATM    7  C7  UNL     1      26.056   1.082  52.993  1.00  0.00     0.040 C 
HETATM    8  C14 UNL     1      25.056   0.561  53.703  1.00  0.00     0.035 C 
HETATM    9  C15 UNL     1      25.453  -0.212  54.661  1.00  0.00     0.121 C 
HETATM   10  N2  UNL     1      26.438  -0.955  54.377  1.00  0.00    -0.176 NA
HETATM   11  N3  UNL     1      26.264  -1.753  53.208  1.00  0.00    -0.312 N 
HETATM   12  C16 UNL     1      27.728  -2.126  52.838  1.00  0.00     0.157 C 
HETATM   13  H10 UNL     1      25.412  -2.027  52.725  1.00  0.00     0.182 HD
ENDROOT
BRANCH   7  14
HETATM   14  N1  UNL     1      25.985   2.066  52.002  1.00  0.00    -0.358 N 
HETATM   15  H5  UNL     1      26.666   2.507  51.359  1.00  0.00     0.166 HD
BRANCH  14  16
HETATM   16  C8  UNL     1      24.638   2.499  51.903  1.00  0.00     0.034 A 
HETATM   17  C9  UNL     1      24.019   3.516  52.606  1.00  0.00     0.029 A 
HETATM   18  C10 UNL     1      22.671   3.768  52.376  1.00  0.00     0.004 A 
HETATM   19  C11 UNL     1      21.941   3.032  51.468  1.00  0.00     0.024 A 
HETATM   20  C12 UNL     1      22.578   2.018  50.773  1.00  0.00     0.036 A 
HETATM   21 CL1  UNL     1      21.597   1.111  49.633  1.00  0.00    -0.084 Cl
HETATM   22  C13 UNL     1      23.939   1.765  51.006  1.00  0.00     0.053 A 
ENDBRANCH  14  16
ENDBRANCH   7  14
BRANCH   1  23
HETATM   23  O1  UNL     1      27.788   2.856  54.042  1.00  0.00    -0.364 OA
HETATM   24  H1  UNL     1      27.694   3.527  53.290  1.00  0.00     0.217 HD
ENDBRANCH   1  23
TORSDOF 3
ENDMDL
MODEL 3
REMARK VINA RESULT:      -8.7      2.325      3.284
REMARK  3 active torsions:
REMARK  status: ('A' for Active; 'I' for Inactive)
REMARK    1  A    between atoms: O1_1  and  C1_2 
REMARK    2  A    between atoms: C7_8  and  N1_9 
REMARK    3  A    between atoms: N1_9  and  C8_10 
ROOT
HETATM    1  C1  UNL     1      26.528   2.257  53.430  1.00  0.00     0.059 A 
HETATM    2  C2  UNL     1      27.905   2.266  53.718  1.00  0.00     0.030 A 
HETATM    3  C3  UNL     1      28.742   1.164  53.429  1.00  0.00    -0.011 A 
HETATM    4  C4  UNL     1      27.910   0.258  52.866  1.00  0.00     0.020 A 
HETATM    5  C5  UNL     1      26.696  -0.177  52.414  1.00  0.00     0.030 A 
HETATM    6  C6  UNL     1      26.367   1.035  52.872  1.00  0.00     0.070 A 
HETATM    7  C7  UNL     1      25.021   0.438  52.968  1.00  0.00     0.040 C 
HETATM    8  C14 UNL     1      24.521  -0.414  53.863  1.00  0.00     0.035 C 
HETATM    9  C15 UNL     1      25.311  -0.634  54.862  1.00  0.00     0.121 C 
HETATM   10  N2  UNL     1      26.538  -0.731  54.564  1.00  0.00    -0.176 NA
HETATM   11  N3  UNL     1      26.829  -1.689  53.548  1.00  0.00    -0.312 N 
HETATM   12  C16 UNL     1      28.232  -1.234  53.052  1.00  0.00     0.157 C 
HETATM   13  H10 UNL     1      26.280  -2.479  53.218  1.00  0.00     0.182 HD
ENDROOT
BRANCH   7  14
HETATM   14  N1  UNL     1      24.374   1.006  51.867  1.00  0.00    -0.358 N 
HETATM   15  H5  UNL     1      24.683   1.420  50.970  1.00  0.00     0.166 HD
BRANCH  14  16
HETATM   16  C8  UNL     1      22.975   0.953  52.099  1.00  0.00     0.034 A 
HETATM   17  C9  UNL     1      22.203  -0.156  52.386  1.00  0.00     0.029 A 
HETATM   18  C10 UNL     1      20.832   0.004  52.557  1.00  0.00     0.004 A 
HETATM   19  C11 UNL     1      20.229   1.239  52.449  1.00  0.00     0.024 A 
HETATM   20  C12 UNL     1      21.018   2.339  52.162  1.00  0.00     0.036 A 
HETATM   21 CL1  UNL     1      20.193   3.884  52.032  1.00  0.00    -0.084 Cl
HETATM   22  C13 UNL     1      22.401   2.175  51.989  1.00  0.00     0.053 A 
ENDBRANCH  14  16
ENDBRANCH   7  14
BRANCH   1  23
HETATM   23  O1  UNL     1      25.438   3.036  53.535  1.00  0.00    -0.364 OA
HETATM   24  H1  UNL     1      24.950   3.145  54.415  1.00  0.00     0.217 HD
ENDBRANCH   1  23
TORSDOF 3
ENDMDL
MODEL 4
REMARK VINA RESULT:      -8.3      4.103      5.698
REMARK  3 active torsions:
REMARK  status: ('A' for Active; 'I' for Inactive)
REMARK    1  A    between atoms: O1_1  and  C1_2 
REMARK    2  A    between atoms: C7_8  and  N1_9 
REMARK    3  A    between atoms: N1_9  and  C8_10 
ROOT
HETATM    1  C1  UNL     1      27.661   1.799  52.856  1.00  0.00     0.059 A 
HETATM    2  C2  UNL     1      27.818   0.821  53.857  1.00  0.00     0.030 A 
HETATM    3  C3  UNL     1      26.914  -0.255  54.007  1.00  0.00    -0.011 A 
HETATM    4  C4  UNL     1      26.007  -0.062  53.022  1.00  0.00     0.020 A 
HETATM    5  C5  UNL     1      25.486   0.605  51.947  1.00  0.00     0.030 A 
HETATM    6  C6  UNL     1      26.542   1.376  52.225  1.00  0.00     0.070 A 
HETATM    7  C7  UNL     1      25.751   2.405  51.524  1.00  0.00     0.040 C 
HETATM    8  C14 UNL     1      24.697   3.108  51.938  1.00  0.00     0.035 C 
HETATM    9  C15 UNL     1      24.425   2.939  53.191  1.00  0.00     0.121 C 
HETATM   10  N2  UNL     1      24.557   1.753  53.613  1.00  0.00    -0.176 NA
HETATM   11  N3  UNL     1      23.838   0.773  52.867  1.00  0.00    -0.312 N 
HETATM   12  C16 UNL     1      24.566  -0.545  53.258  1.00  0.00     0.157 C 
HETATM   13  H10 UNL     1      23.045   0.882  52.239  1.00  0.00     0.182 HD
ENDROOT
BRANCH   7  14
HETATM   14  N1  UNL     1      26.400   2.476  50.288  1.00  0.00    -0.358 N 
HETATM   15  H5  UNL     1      27.023   1.847  49.752  1.00  0.00     0.166 HD
BRANCH  14  16
HETATM   16  C8  UNL     1      26.067   3.716  49.683  1.00  0.00     0.034 A 
HETATM   17  C9  UNL     1      24.808   4.244  49.465  1.00  0.00     0.029 A 
HETATM   18  C10 UNL     1      24.696   5.475  48.829  1.00  0.00     0.004 A 
HETATM   19  C11 UNL     1      25.807   6.179  48.414  1.00  0.00     0.024 A 
HETATM   20  C12 UNL     1      27.059   5.635  48.642  1.00  0.00     0.036 A 
HETATM   21 CL1  UNL     1      28.435   6.575  48.088  1.00  0.00    -0.084 Cl
HETATM   22  C13 UNL     1      27.170   4.392  49.284  1.00  0.00     0.053 A 
ENDBRANCH  14  16
ENDBRANCH   7  14
BRANCH   1  23
HETATM   23  O1  UNL     1      28.247   2.916  52.392  1.00  0.00    -0.364 OA
HETATM   24  H1  UNL     1      28.326   3.097  51.400  1.00  0.00     0.217 HD
ENDBRANCH   1  23
TORSDOF 3
ENDMDL
MODEL 5
REMARK VINA RESULT:      -8.1      4.043      6.567
REMARK  3 active torsions:
REMARK  status: ('A' for Active; 'I' for Inactive)
REMARK    1  A    between atoms: O1_1  and  C1_2 
REMARK    2  A    between atoms: C7_8  and  N1_9 
REMARK    3  A    between atoms: N1_9  and  C8_10 
ROOT
HETATM    1  C1  UNL     1      23.053   5.223  52.104  1.00  0.00     0.059 A 
HETATM    2  C2  UNL     1      21.780   5.548  51.598  1.00  0.00     0.030 A 
HETATM    3  C3  UNL     1      20.884   4.562  51.126  1.00  0.00    -0.011 A 
HETATM    4  C4  UNL     1      21.549   3.398  51.308  1.00  0.00     0.020 A 
HETATM    5  C5  UNL     1      22.619   2.647  51.708  1.00  0.00     0.030 A 
HETATM    6  C6  UNL     1      23.062   3.875  51.993  1.00  0.00     0.070 A 
HETATM    7  C7  UNL     1      24.385   3.232  51.875  1.00  0.00     0.040 C 
HETATM    8  C14 UNL     1      25.069   2.866  50.791  1.00  0.00     0.035 C 
HETATM    9  C15 UNL     1      24.529   3.262  49.684  1.00  0.00     0.121 C 
HETATM   10  N2  UNL     1      23.265   3.190  49.648  1.00  0.00    -0.176 NA
HETATM   11  N3  UNL     1      22.733   1.906  49.967  1.00  0.00    -0.312 N 
HETATM   12  C16 UNL     1      21.260   2.239  50.340  1.00  0.00     0.157 C 
HETATM   13  H10 UNL     1      23.180   0.992  49.956  1.00  0.00     0.182 HD
ENDROOT
BRANCH   7  14
HETATM   14  N1  UNL     1      24.766   3.107  53.214  1.00  0.00    -0.358 N 
HETATM   15  H5  UNL     1      24.651   3.685  54.065  1.00  0.00     0.166 HD
BRANCH  14  16
HETATM   16  C8  UNL     1      25.448   1.872  53.367  1.00  0.00     0.034 A 
HETATM   17  C9  UNL     1      24.920   0.596  53.304  1.00  0.00     0.029 A 
HETATM   18  C10 UNL     1      25.763  -0.491  53.506  1.00  0.00     0.004 A 
HETATM   19  C11 UNL     1      27.107  -0.327  53.767  1.00  0.00     0.024 A 
HETATM   20  C12 UNL     1      27.618   0.957  53.826  1.00  0.00     0.036 A 
HETATM   21 CL1  UNL     1      29.334   1.104  54.166  1.00  0.00    -0.084 Cl
HETATM   22  C13 UNL     1      26.765   2.054  53.621  1.00  0.00     0.053 A 
ENDBRANCH  14  16
ENDBRANCH   7  14
BRANCH   1  23
HETATM   23  O1  UNL     1      24.148   5.809  52.619  1.00  0.00    -0.364 OA
HETATM   24  H1  UNL     1      24.081   6.642  53.189  1.00  0.00     0.217 HD
ENDBRANCH   1  23
TORSDOF 3
ENDMDL
MODEL 6
REMARK VINA RESULT:      -8.1      4.275      6.157
REMARK  3 active torsions:
REMARK  status: ('A' for Active; 'I' for Inactive)
REMARK    1  A    between atoms: O1_1  and  C1_2 
REMARK    2  A    between atoms: C7_8  and  N1_9 
REMARK    3  A    between atoms: N1_9  and  C8_10 
ROOT
HETATM    1  C1  UNL     1      26.304   4.874  49.555  1.00  0.00     0.059 A 
HETATM    2  C2  UNL     1      26.184   6.015  48.740  1.00  0.00     0.030 A 
HETATM    3  C3  UNL     1      25.020   6.817  48.737  1.00  0.00    -0.011 A 
HETATM    4  C4  UNL     1      24.206   6.221  49.638  1.00  0.00     0.020 A 
HETATM    5  C5  UNL     1      23.893   5.264  50.564  1.00  0.00     0.030 A 
HETATM    6  C6  UNL     1      25.117   4.865  50.203  1.00  0.00     0.070 A 
HETATM    7  C7  UNL     1      24.640   3.557  50.689  1.00  0.00     0.040 C 
HETATM    8  C14 UNL     1      23.813   2.678  50.121  1.00  0.00     0.035 C 
HETATM    9  C15 UNL     1      23.497   2.982  48.904  1.00  0.00     0.121 C 
HETATM   10  N2  UNL     1      23.299   4.214  48.693  1.00  0.00    -0.176 NA
HETATM   11  N3  UNL     1      22.346   4.821  49.563  1.00  0.00    -0.312 N 
HETATM   12  C16 UNL     1      22.687   6.333  49.429  1.00  0.00     0.157 C 
HETATM   13  H10 UNL     1      21.617   4.397  50.132  1.00  0.00     0.182 HD
ENDROOT
BRANCH   7  14
HETATM   14  N1  UNL     1      25.293   3.450  51.921  1.00  0.00    -0.358 N 
HETATM   15  H5  UNL     1      25.606   4.123  52.643  1.00  0.00     0.166 HD
BRANCH  14  16
HETATM   16  C8  UNL     1      25.533   2.076  52.178  1.00  0.00     0.034 A 
HETATM   17  C9  UNL     1      26.584   1.299  51.728  1.00  0.00     0.029 A 
HETATM   18  C10 UNL     1      26.623  -0.047  52.077  1.00  0.00     0.004 A 
HETATM   19  C11 UNL     1      25.643  -0.621  52.858  1.00  0.00     0.024 A 
HETATM   20  C12 UNL     1      24.599   0.173  53.300  1.00  0.00     0.036 A 
HETATM   21 CL1  UNL     1      23.378  -0.614  54.287  1.00  0.00    -0.084 Cl
HETATM   22  C13 UNL     1      24.561   1.531  52.946  1.00  0.00     0.053 A 
ENDBRANCH  14  16
ENDBRANCH   7  14
BRANCH   1  23
HETATM   23  O1  UNL     1      27.175   3.892  49.848  1.00  0.00    -0.364 OA
HETATM   24  H1  UNL     1      27.631   3.358  49.120  1.00  0.00     0.217 HD
ENDBRANCH   1  23
TORSDOF 3
ENDMDL
MODEL 7
REMARK VINA RESULT:      -8.0      2.900      5.937
REMARK  3 active torsions:
REMARK  status: ('A' for Active; 'I' for Inactive)
REMARK    1  A    between atoms: O1_1  and  C1_2 
REMARK    2  A    between atoms: C7_8  and  N1_9 
REMARK    3  A    between atoms: N1_9  and  C8_10 
ROOT
HETATM    1  C1  UNL     1      23.365  -0.021  53.448  1.00  0.00     0.059 A 
HETATM    2  C2  UNL     1      21.971  -0.208  53.412  1.00  0.00     0.030 A 
HETATM    3  C3  UNL     1      21.170   0.302  52.365  1.00  0.00    -0.011 A 
HETATM    4  C4  UNL     1      22.053   0.917  51.545  1.00  0.00     0.020 A 
HETATM    5  C5  UNL     1      23.306   1.312  51.167  1.00  0.00     0.030 A 
HETATM    6  C6  UNL     1      23.583   0.682  52.313  1.00  0.00     0.070 A 
HETATM    7  C7  UNL     1      24.782   1.541  52.289  1.00  0.00     0.040 C 
HETATM    8  C14 UNL     1      24.916   2.838  52.570  1.00  0.00     0.035 C 
HETATM    9  C15 UNL     1      23.845   3.371  53.061  1.00  0.00     0.121 C 
HETATM   10  N2  UNL     1      22.762   2.981  52.534  1.00  0.00    -0.176 NA
HETATM   11  N3  UNL     1      22.710   3.110  51.115  1.00  0.00    -0.312 N 
HETATM   12  C16 UNL     1      21.566   2.128  50.732  1.00  0.00     0.157 C 
HETATM   13  H10 UNL     1      23.265   3.691  50.491  1.00  0.00     0.182 HD
ENDROOT
BRANCH   7  14
HETATM   14  N1  UNL     1      25.776   0.639  51.899  1.00  0.00    -0.358 N 
HETATM   15  H5  UNL     1      25.824  -0.156  51.238  1.00  0.00     0.166 HD
BRANCH  14  16
HETATM   16  C8  UNL     1      26.966   0.959  52.604  1.00  0.00     0.034 A 
HETATM   17  C9  UNL     1      27.410   2.208  52.997  1.00  0.00     0.029 A 
HETATM   18  C10 UNL     1      28.627   2.309  53.663  1.00  0.00     0.004 A 
HETATM   19  C11 UNL     1      29.396   1.199  53.940  1.00  0.00     0.024 A 
HETATM   20  C12 UNL     1      28.934  -0.043  53.539  1.00  0.00     0.036 A 
HETATM   21 CL1  UNL     1      29.958  -1.419  53.915  1.00  0.00    -0.084 Cl
HETATM   22  C13 UNL     1      27.706  -0.143  52.867  1.00  0.00     0.053 A 
ENDBRANCH  14  16
ENDBRANCH   7  14
BRANCH   1  23
HETATM   23  O1  UNL     1      24.435  -0.315  54.208  1.00  0.00    -0.364 OA
HETATM   24  H1  UNL     1      24.718   0.282  54.973  1.00  0.00     0.217 HD
ENDBRANCH   1  23
TORSDOF 3
ENDMDL
MODEL 8
REMARK VINA RESULT:      -7.9      4.307      6.132
REMARK  3 active torsions:
REMARK  status: ('A' for Active; 'I' for Inactive)
REMARK    1  A    between atoms: O1_1  and  C1_2 
REMARK    2  A    between atoms: C7_8  and  N1_9 
REMARK    3  A    between atoms: N1_9  and  C8_10 
ROOT
HETATM    1  C1  UNL     1      23.251   3.483  49.217  1.00  0.00     0.059 A 
HETATM    2  C2  UNL     1      22.887   4.548  48.372  1.00  0.00     0.030 A 
HETATM    3  C3  UNL     1      23.438   5.842  48.512  1.00  0.00    -0.011 A 
HETATM    4  C4  UNL     1      24.296   5.723  49.551  1.00  0.00     0.020 A 
HETATM    5  C5  UNL     1      24.933   5.030  50.543  1.00  0.00     0.030 A 
HETATM    6  C6  UNL     1      24.156   4.069  50.033  1.00  0.00     0.070 A 
HETATM    7  C7  UNL     1      24.327   3.468  51.370  1.00  0.00     0.040 C 
HETATM    8  C14 UNL     1      23.759   3.785  52.533  1.00  0.00     0.035 C 
HETATM    9  C15 UNL     1      22.823   4.671  52.425  1.00  0.00     0.121 C 
HETATM   10  N2  UNL     1      23.060   5.602  51.600  1.00  0.00    -0.176 NA
HETATM   11  N3  UNL     1      24.294   6.285  51.812  1.00  0.00    -0.312 N 
HETATM   12  C16 UNL     1      24.543   6.959  50.432  1.00  0.00     0.157 C 
HETATM   13  H10 UNL     1      24.878   6.337  52.643  1.00  0.00     0.182 HD
ENDROOT
BRANCH   7  14
HETATM   14  N1  UNL     1      25.247   2.448  51.112  1.00  0.00    -0.358 N 
HETATM   15  H5  UNL     1      25.968   2.279  50.389  1.00  0.00     0.166 HD
BRANCH  14  16
HETATM   16  C8  UNL     1      25.112   1.463  52.124  1.00  0.00     0.034 A 
HETATM   17  C9  UNL     1      23.994   0.712  52.435  1.00  0.00     0.029 A 
HETATM   18  C10 UNL     1      24.063  -0.192  53.489  1.00  0.00     0.004 A 
HETATM   19  C11 UNL     1      25.215  -0.356  54.228  1.00  0.00     0.024 A 
HETATM   20  C12 UNL     1      26.324   0.404  53.902  1.00  0.00     0.036 A 
HETATM   21 CL1  UNL     1      27.761   0.155  54.881  1.00  0.00    -0.084 Cl
HETATM   22  C13 UNL     1      26.253   1.316  52.837  1.00  0.00     0.053 A 
ENDBRANCH  14  16
ENDBRANCH   7  14
BRANCH   1  23
HETATM   23  O1  UNL     1      22.987   2.180  49.422  1.00  0.00    -0.364 OA
HETATM   24  H1  UNL     1      22.328   1.881  50.129  1.00  0.00     0.217 HD
ENDBRANCH   1  23
TORSDOF 3
ENDMDL
MODEL 9
REMARK VINA RESULT:      -7.9      3.893      5.890
REMARK  3 active torsions:
REMARK  status: ('A' for Active; 'I' for Inactive)
REMARK    1  A    between atoms: O1_1  and  C1_2 
REMARK    2  A    between atoms: C7_8  and  N1_9 
REMARK    3  A    between atoms: N1_9  and  C8_10 
ROOT
HETATM    1  C1  UNL     1      21.874   3.740  49.506  1.00  0.00     0.059 A 
HETATM    2  C2  UNL     1      22.005   4.747  48.530  1.00  0.00     0.030 A 
HETATM    3  C3  UNL     1      23.262   5.279  48.163  1.00  0.00    -0.011 A 
HETATM    4  C4  UNL     1      24.145   4.599  48.930  1.00  0.00     0.020 A 
HETATM    5  C5  UNL     1      24.491   3.666  49.868  1.00  0.00     0.030 A 
HETATM    6  C6  UNL     1      23.161   3.526  49.862  1.00  0.00     0.070 A 
HETATM    7  C7  UNL     1      23.390   2.989  51.217  1.00  0.00     0.040 C 
HETATM    8  C14 UNL     1      23.662   3.622  52.358  1.00  0.00     0.035 C 
HETATM    9  C15 UNL     1      23.579   4.910  52.265  1.00  0.00     0.121 C 
HETATM   10  N2  UNL     1      24.027   5.399  51.186  1.00  0.00    -0.176 NA
HETATM   11  N3  UNL     1      25.364   5.016  50.870  1.00  0.00    -0.312 N 
HETATM   12  C16 UNL     1      25.444   5.310  49.344  1.00  0.00     0.157 C 
HETATM   13  H10 UNL     1      26.099   4.649  51.470  1.00  0.00     0.182 HD
ENDROOT
BRANCH   7  14
HETATM   14  N1  UNL     1      23.237   1.614  51.012  1.00  0.00    -0.358 N 
HETATM   15  H5  UNL     1      22.737   1.029  50.320  1.00  0.00     0.166 HD
BRANCH  14  16
HETATM   16  C8  UNL     1      23.979   0.932  52.011  1.00  0.00     0.034 A 
HETATM   17  C9  UNL     1      25.352   0.849  52.141  1.00  0.00     0.029 A 
HETATM   18  C10 UNL     1      25.885   0.104  53.188  1.00  0.00     0.004 A 
HETATM   19  C11 UNL     1      25.078  -0.550  54.095  1.00  0.00     0.024 A 
HETATM   20  C12 UNL     1      23.705  -0.455  53.949  1.00  0.00     0.036 A 
HETATM   21 CL1  UNL     1      22.729  -1.312  55.130  1.00  0.00    -0.084 Cl
HETATM   22  C13 UNL     1      23.170   0.298  52.892  1.00  0.00     0.053 A 
ENDBRANCH  14  16
ENDBRANCH   7  14
BRANCH   1  23
HETATM   23  O1  UNL     1      20.932   3.002  50.119  1.00  0.00    -0.364 OA
HETATM   24  H1  UNL     1      21.121   2.526  50.991  1.00  0.00     0.217 HD
ENDBRANCH   1  23
TORSDOF 3
ENDMDL
