MODEL 1
REMARK VINA RESULT:      -8.1      0.000      0.000
REMARK  3 active torsions:
REMARK  status: ('A' for Active; 'I' for Inactive)
REMARK    1  A    between atoms: C3_3  and  C4_5 
REMARK    2  A    between atoms: C8_10  and  N2_11 
REMARK    3  A    between atoms: N2_11  and  C9_12 
ROOT
HETATM    1  C4  UNL     1      21.256   0.865  51.423  1.00  0.00     0.053 C 
HETATM    2  C5  UNL     1      22.353   1.582  51.707  1.00  0.00     0.074 C 
HETATM    3  C6  UNL     1      23.021   1.775  53.017  1.00  0.00     0.185 C 
HETATM    4  N1  UNL     1      24.436   1.429  52.810  1.00  0.00    -0.377 N 
HETATM    5  C7  UNL     1      25.157   2.116  51.782  1.00  0.00     0.129 A 
HETATM    6  C8  UNL     1      26.525   2.365  51.838  1.00  0.00     0.160 A 
HETATM    7  N3  UNL     1      27.043   3.009  50.807  1.00  0.00    -0.222 NA
HETATM    8  C15 UNL     1      26.290   3.395  49.777  1.00  0.00     0.238 A 
HETATM    9  N4  UNL     1      24.949   3.159  49.706  1.00  0.00    -0.215 NA
HETATM   10  C16 UNL     1      24.345   2.497  50.738  1.00  0.00     0.201 A 
HETATM   11  O1  UNL     1      22.987   2.251  50.677  1.00  0.00    -0.293 OA
HETATM   12  H8  UNL     1      24.972   0.702  53.365  1.00  0.00     0.160 HD
ENDROOT
BRANCH   6  13
HETATM   13  N2  UNL     1      27.217   1.920  52.989  1.00  0.00    -0.339 N 
HETATM   14  H9  UNL     1      27.228   2.486  53.861  1.00  0.00     0.167 HD
BRANCH  13  15
HETATM   15  C9  UNL     1      27.956   0.719  53.123  1.00  0.00     0.033 A 
HETATM   16  C10 UNL     1      29.261   0.619  53.536  1.00  0.00     0.029 A 
HETATM   17  C11 UNL     1      29.964  -0.542  53.666  1.00  0.00     0.002 A 
HETATM   18  C12 UNL     1      29.371  -1.735  53.372  1.00  0.00     0.000 A 
HETATM   19  C13 UNL     1      28.070  -1.715  52.953  1.00  0.00     0.002 A 
HETATM   20  C14 UNL     1      27.412  -0.517  52.842  1.00  0.00     0.029 A 
ENDBRANCH  13  15
ENDBRANCH   6  13
BRANCH   1  21
HETATM   21  C3  UNL     1      20.377   0.063  52.259  1.00  0.00     0.009 C 
HETATM   22  C2  UNL     1      19.075  -0.081  51.950  1.00  0.00    -0.012 C 
HETATM   23  C1  UNL     1      18.581   0.610  50.725  1.00  0.00     0.037 C 
HETATM   24 BR1  UNL     1      20.831  -0.897  53.870  1.00  0.00    -0.051 Br
ENDBRANCH   1  21
TORSDOF 3
ENDMDL
MODEL 2
REMARK VINA RESULT:      -7.9      3.041      7.182
REMARK  3 active torsions:
REMARK  status: ('A' for Active; 'I' for Inactive)
REMARK    1  A    between atoms: C3_3  and  C4_5 
REMARK    2  A    between atoms: C8_10  and  N2_11 
REMARK    3  A    between atoms: N2_11  and  C9_12 
ROOT
HETATM    1  C4  UNL     1      27.424  -0.271  54.191  1.00  0.00     0.053 C 
HETATM    2  C5  UNL     1      26.178   0.222  54.242  1.00  0.00     0.074 C 
HETATM    3  C6  UNL     1      25.714   1.602  53.962  1.00  0.00     0.185 C 
HETATM    4  N1  UNL     1      24.624   1.476  52.981  1.00  0.00    -0.377 N 
HETATM    5  C7  UNL     1      23.511   0.639  53.311  1.00  0.00     0.129 A 
HETATM    6  C8  UNL     1      22.219   0.860  52.844  1.00  0.00     0.160 A 
HETATM    7  N3  UNL     1      21.301  -0.005  53.237  1.00  0.00    -0.222 NA
HETATM    8  C15 UNL     1      21.606  -1.030  54.035  1.00  0.00     0.238 A 
HETATM    9  N4  UNL     1      22.866  -1.260  54.501  1.00  0.00    -0.215 NA
HETATM   10  C16 UNL     1      23.867  -0.404  54.135  1.00  0.00     0.201 A 
HETATM   11  O1  UNL     1      25.148  -0.629  54.600  1.00  0.00    -0.293 OA
HETATM   12  H8  UNL     1      24.596   1.960  52.038  1.00  0.00     0.160 HD
ENDROOT
BRANCH   6  13
HETATM   13  N2  UNL     1      22.015   1.987  52.014  1.00  0.00    -0.339 N 
HETATM   14  H9  UNL     1      21.710   2.899  52.411  1.00  0.00     0.167 HD
BRANCH  13  15
HETATM   15  C9  UNL     1      22.177   2.046  50.608  1.00  0.00     0.033 A 
HETATM   16  C10 UNL     1      22.999   2.908  49.927  1.00  0.00     0.029 A 
HETATM   17  C11 UNL     1      23.152   2.954  48.572  1.00  0.00     0.002 A 
HETATM   18  C12 UNL     1      22.452   2.094  47.778  1.00  0.00     0.000 A 
HETATM   19  C13 UNL     1      21.611   1.204  48.386  1.00  0.00     0.002 A 
HETATM   20  C14 UNL     1      21.498   1.203  49.752  1.00  0.00     0.029 A 
ENDBRANCH  13  15
ENDBRANCH   6  13
BRANCH   1  21
HETATM   21  C3  UNL     1      28.698   0.345  53.858  1.00  0.00     0.009 C 
HETATM   22  C2  UNL     1      29.749  -0.406  53.476  1.00  0.00    -0.012 C 
HETATM   23  C1  UNL     1      29.547  -1.882  53.410  1.00  0.00     0.037 C 
HETATM   24 BR1  UNL     1      29.145   2.222  53.885  1.00  0.00    -0.051 Br
ENDBRANCH   1  21
TORSDOF 3
ENDMDL
MODEL 3
REMARK VINA RESULT:      -7.9      3.120      5.286
REMARK  3 active torsions:
REMARK  status: ('A' for Active; 'I' for Inactive)
REMARK    1  A    between atoms: C3_3  and  C4_5 
REMARK    2  A    between atoms: C8_10  and  N2_11 
REMARK    3  A    between atoms: N2_11  and  C9_12 
ROOT
HETATM    1  C4  UNL     1      25.631   5.360  49.252  1.00  0.00     0.053 C 
HETATM    2  C5  UNL     1      25.598   4.116  49.753  1.00  0.00     0.074 C 
HETATM    3  C6  UNL     1      26.725   3.277  50.227  1.00  0.00     0.185 C 
HETATM    4  N1  UNL     1      26.361   2.831  51.581  1.00  0.00    -0.377 N 
HETATM    5  C7  UNL     1      25.122   2.136  51.755  1.00  0.00     0.129 A 
HETATM    6  C8  UNL     1      24.911   1.175  52.738  1.00  0.00     0.160 A 
HETATM    7  N3  UNL     1      23.709   0.627  52.770  1.00  0.00    -0.222 NA
HETATM    8  C15 UNL     1      22.759   0.981  51.904  1.00  0.00     0.238 A 
HETATM    9  N4  UNL     1      22.949   1.921  50.934  1.00  0.00    -0.215 NA
HETATM   10  C16 UNL     1      24.169   2.530  50.843  1.00  0.00     0.201 A 
HETATM   11  O1  UNL     1      24.373   3.484  49.865  1.00  0.00    -0.293 OA
HETATM   12  H8  UNL     1      26.949   2.985  52.450  1.00  0.00     0.160 HD
ENDROOT
BRANCH   6  13
HETATM   13  N2  UNL     1      25.999   0.874  53.592  1.00  0.00    -0.339 N 
HETATM   14  H9  UNL     1      26.171   1.424  54.457  1.00  0.00     0.167 HD
BRANCH  13  15
HETATM   15  C9  UNL     1      26.961  -0.150  53.410  1.00  0.00     0.033 A 
HETATM   16  C10 UNL     1      28.284  -0.082  53.764  1.00  0.00     0.029 A 
HETATM   17  C11 UNL     1      29.203  -1.075  53.589  1.00  0.00     0.002 A 
HETATM   18  C12 UNL     1      28.830  -2.256  53.017  1.00  0.00     0.000 A 
HETATM   19  C13 UNL     1      27.525  -2.398  52.638  1.00  0.00     0.002 A 
HETATM   20  C14 UNL     1      26.645  -1.365  52.839  1.00  0.00     0.029 A 
ENDBRANCH  13  15
ENDBRANCH   6  13
BRANCH   1  21
HETATM   21  C3  UNL     1      26.731   6.279  49.008  1.00  0.00     0.009 C 
HETATM   22  C2  UNL     1      26.627   7.581  49.336  1.00  0.00    -0.012 C 
HETATM   23  C1  UNL     1      25.347   8.032  49.954  1.00  0.00     0.037 C 
HETATM   24 BR1  UNL     1      28.449   5.883  48.224  1.00  0.00    -0.051 Br
ENDBRANCH   1  21
TORSDOF 3
ENDMDL
MODEL 4
REMARK VINA RESULT:      -7.9      2.710      3.754
REMARK  3 active torsions:
REMARK  status: ('A' for Active; 'I' for Inactive)
REMARK    1  A    between atoms: C3_3  and  C4_5 
REMARK    2  A    between atoms: C8_10  and  N2_11 
REMARK    3  A    between atoms: N2_11  and  C9_12 
ROOT
HETATM    1  C4  UNL     1      19.595   0.886  52.409  1.00  0.00     0.053 C 
HETATM    2  C5  UNL     1      20.759   0.233  52.542  1.00  0.00     0.074 C 
HETATM    3  C6  UNL     1      21.890   0.150  51.587  1.00  0.00     0.185 C 
HETATM    4  N1  UNL     1      23.092   0.538  52.342  1.00  0.00    -0.377 N 
HETATM    5  C7  UNL     1      23.403  -0.183  53.538  1.00  0.00     0.129 A 
HETATM    6  C8  UNL     1      24.699  -0.374  54.006  1.00  0.00     0.160 A 
HETATM    7  N3  UNL     1      24.819  -1.060  55.129  1.00  0.00    -0.222 NA
HETATM    8  C15 UNL     1      23.752  -1.540  55.769  1.00  0.00     0.238 A 
HETATM    9  N4  UNL     1      22.475  -1.363  55.324  1.00  0.00    -0.215 NA
HETATM   10  C16 UNL     1      22.276  -0.662  54.168  1.00  0.00     0.201 A 
HETATM   11  O1  UNL     1      20.987  -0.475  53.708  1.00  0.00    -0.293 OA
HETATM   12  H8  UNL     1      23.755   1.320  52.069  1.00  0.00     0.160 HD
ENDROOT
BRANCH   6  13
HETATM   13  N2  UNL     1      25.752   0.171  53.234  1.00  0.00    -0.339 N 
HETATM   14  H9  UNL     1      25.563   0.864  52.481  1.00  0.00     0.167 HD
BRANCH  13  15
HETATM   15  C9  UNL     1      27.132  -0.125  53.352  1.00  0.00     0.033 A 
HETATM   16  C10 UNL     1      28.109   0.742  53.771  1.00  0.00     0.029 A 
HETATM   17  C11 UNL     1      29.435   0.446  53.885  1.00  0.00     0.002 A 
HETATM   18  C12 UNL     1      29.885  -0.802  53.568  1.00  0.00     0.000 A 
HETATM   19  C13 UNL     1      28.968  -1.722  53.142  1.00  0.00     0.002 A 
HETATM   20  C14 UNL     1      27.647  -1.368  53.047  1.00  0.00     0.029 A 
ENDBRANCH  13  15
ENDBRANCH   6  13
BRANCH   1  21
HETATM   21  C3  UNL     1      19.059   1.703  51.333  1.00  0.00     0.009 C 
HETATM   22  C2  UNL     1      18.090   1.231  50.526  1.00  0.00    -0.012 C 
HETATM   23  C1  UNL     1      17.597  -0.152  50.785  1.00  0.00     0.037 C 
HETATM   24 BR1  UNL     1      19.567   3.500  50.848  1.00  0.00    -0.051 Br
ENDBRANCH   1  21
TORSDOF 3
ENDMDL
MODEL 5
REMARK VINA RESULT:      -7.9      3.242      7.824
REMARK  3 active torsions:
REMARK  status: ('A' for Active; 'I' for Inactive)
REMARK    1  A    between atoms: C3_3  and  C4_5 
REMARK    2  A    between atoms: C8_10  and  N2_11 
REMARK    3  A    between atoms: N2_11  and  C9_12 
ROOT
HETATM    1  C4  UNL     1      27.478  -0.169  54.552  1.00  0.00     0.053 C 
HETATM    2  C5  UNL     1      26.166   0.096  54.466  1.00  0.00     0.074 C 
HETATM    3  C6  UNL     1      25.482   1.154  53.684  1.00  0.00     0.185 C 
HETATM    4  N1  UNL     1      24.447   0.472  52.891  1.00  0.00    -0.377 N 
HETATM    5  C7  UNL     1      23.485  -0.331  53.581  1.00  0.00     0.129 A 
HETATM    6  C8  UNL     1      22.183  -0.527  53.131  1.00  0.00     0.160 A 
HETATM    7  N3  UNL     1      21.416  -1.299  53.881  1.00  0.00    -0.222 NA
HETATM    8  C15 UNL     1      21.874  -1.854  55.004  1.00  0.00     0.238 A 
HETATM    9  N4  UNL     1      23.146  -1.673  55.459  1.00  0.00    -0.215 NA
HETATM   10  C16 UNL     1      23.995  -0.885  54.733  1.00  0.00     0.201 A 
HETATM   11  O1  UNL     1      25.287  -0.695  55.184  1.00  0.00    -0.293 OA
HETATM   12  H8  UNL     1      24.356   0.526  51.836  1.00  0.00     0.160 HD
ENDROOT
BRANCH   6  13
HETATM   13  N2  UNL     1      21.808   0.125  51.933  1.00  0.00    -0.339 N 
HETATM   14  H9  UNL     1      22.118  -0.233  51.007  1.00  0.00     0.167 HD
BRANCH  13  15
HETATM   15  C9  UNL     1      21.013   1.291  51.814  1.00  0.00     0.033 A 
HETATM   16  C10 UNL     1      19.692   1.330  51.445  1.00  0.00     0.029 A 
HETATM   17  C11 UNL     1      18.932   2.458  51.338  1.00  0.00     0.002 A 
HETATM   18  C12 UNL     1      19.481   3.677  51.607  1.00  0.00     0.000 A 
HETATM   19  C13 UNL     1      20.794   3.718  51.982  1.00  0.00     0.002 A 
HETATM   20  C14 UNL     1      21.509   2.552  52.073  1.00  0.00     0.029 A 
ENDBRANCH  13  15
ENDBRANCH   6  13
BRANCH   1  21
HETATM   21  C3  UNL     1      28.636   0.460  53.938  1.00  0.00     0.009 C 
HETATM   22  C2  UNL     1      29.619  -0.285  53.397  1.00  0.00    -0.012 C 
HETATM   23  C1  UNL     1      29.467  -1.767  53.455  1.00  0.00     0.037 C 
HETATM   24 BR1  UNL     1      29.006   2.346  53.770  1.00  0.00    -0.051 Br
ENDBRANCH   1  21
TORSDOF 3
ENDMDL
MODEL 6
REMARK VINA RESULT:      -7.7      3.570      6.047
REMARK  3 active torsions:
REMARK  status: ('A' for Active; 'I' for Inactive)
REMARK    1  A    between atoms: C3_3  and  C4_5 
REMARK    2  A    between atoms: C8_10  and  N2_11 
REMARK    3  A    between atoms: N2_11  and  C9_12 
ROOT
HETATM    1  C4  UNL     1      23.521   0.892  52.624  1.00  0.00     0.053 C 
HETATM    2  C5  UNL     1      23.391   2.225  52.691  1.00  0.00     0.074 C 
HETATM    3  C6  UNL     1      24.322   3.219  53.276  1.00  0.00     0.185 C 
HETATM    4  N1  UNL     1      24.552   4.229  52.231  1.00  0.00    -0.377 N 
HETATM    5  C7  UNL     1      23.416   4.890  51.666  1.00  0.00     0.129 A 
HETATM    6  C8  UNL     1      23.450   6.189  51.171  1.00  0.00     0.160 A 
HETATM    7  N3  UNL     1      22.316   6.657  50.679  1.00  0.00    -0.222 NA
HETATM    8  C15 UNL     1      21.207   5.917  50.663  1.00  0.00     0.238 A 
HETATM    9  N4  UNL     1      21.156   4.642  51.144  1.00  0.00    -0.215 NA
HETATM   10  C16 UNL     1      22.293   4.094  51.668  1.00  0.00     0.201 A 
HETATM   11  O1  UNL     1      22.253   2.803  52.158  1.00  0.00    -0.293 OA
HETATM   12  H8  UNL     1      25.504   4.509  51.855  1.00  0.00     0.160 HD
ENDROOT
BRANCH   6  13
HETATM   13  N2  UNL     1      24.682   6.881  51.254  1.00  0.00    -0.339 N 
HETATM   14  H9  UNL     1      24.943   7.412  52.109  1.00  0.00     0.167 HD
BRANCH  13  15
HETATM   15  C9  UNL     1      25.680   6.958  50.253  1.00  0.00     0.033 A 
HETATM   16  C10 UNL     1      26.048   5.945  49.404  1.00  0.00     0.029 A 
HETATM   17  C11 UNL     1      27.009   6.030  48.439  1.00  0.00     0.002 A 
HETATM   18  C12 UNL     1      27.694   7.196  48.260  1.00  0.00     0.000 A 
HETATM   19  C13 UNL     1      27.382   8.251  49.070  1.00  0.00     0.002 A 
HETATM   20  C14 UNL     1      26.407   8.108  50.023  1.00  0.00     0.029 A 
ENDBRANCH  13  15
ENDBRANCH   6  13
BRANCH   1  21
HETATM   21  C3  UNL     1      24.571  -0.005  53.080  1.00  0.00     0.009 C 
HETATM   22  C2  UNL     1      24.341  -0.889  54.069  1.00  0.00    -0.012 C 
HETATM   23  C1  UNL     1      22.976  -0.908  54.668  1.00  0.00     0.037 C 
HETATM   24 BR1  UNL     1      26.385  -0.125  52.433  1.00  0.00    -0.051 Br
ENDBRANCH   1  21
TORSDOF 3
ENDMDL
MODEL 7
REMARK VINA RESULT:      -7.6      3.430      5.512
REMARK  3 active torsions:
REMARK  status: ('A' for Active; 'I' for Inactive)
REMARK    1  A    between atoms: C3_3  and  C4_5 
REMARK    2  A    between atoms: C8_10  and  N2_11 
REMARK    3  A    between atoms: N2_11  and  C9_12 
ROOT
HETATM    1  C4  UNL     1      23.972   0.105  53.065  1.00  0.00     0.053 C 
HETATM    2  C5  UNL     1      23.770   1.320  52.533  1.00  0.00     0.074 C 
HETATM    3  C6  UNL     1      24.247   2.636  53.021  1.00  0.00     0.185 C 
HETATM    4  N1  UNL     1      24.923   3.275  51.880  1.00  0.00    -0.377 N 
HETATM    5  C7  UNL     1      24.189   3.436  50.662  1.00  0.00     0.129 A 
HETATM    6  C8  UNL     1      24.411   4.474  49.763  1.00  0.00     0.160 A 
HETATM    7  N3  UNL     1      23.651   4.481  48.682  1.00  0.00    -0.222 NA
HETATM    8  C15 UNL     1      22.728   3.542  48.473  1.00  0.00     0.238 A 
HETATM    9  N4  UNL     1      22.497   2.519  49.343  1.00  0.00    -0.215 NA
HETATM   10  C16 UNL     1      23.247   2.448  50.484  1.00  0.00     0.201 A 
HETATM   11  O1  UNL     1      23.024   1.414  51.373  1.00  0.00    -0.293 OA
HETATM   12  H8  UNL     1      25.923   3.628  51.886  1.00  0.00     0.160 HD
ENDROOT
BRANCH   6  13
HETATM   13  N2  UNL     1      25.409   5.418  50.099  1.00  0.00    -0.339 N 
HETATM   14  H9  UNL     1      25.397   5.909  51.015  1.00  0.00     0.167 HD
BRANCH  13  15
HETATM   15  C9  UNL     1      26.502   5.820  49.293  1.00  0.00     0.033 A 
HETATM   16  C10 UNL     1      26.681   7.064  48.742  1.00  0.00     0.029 A 
HETATM   17  C11 UNL     1      27.740   7.443  47.969  1.00  0.00     0.002 A 
HETATM   18  C12 UNL     1      28.733   6.552  47.689  1.00  0.00     0.000 A 
HETATM   19  C13 UNL     1      28.624   5.291  48.204  1.00  0.00     0.002 A 
HETATM   20  C14 UNL     1      27.537   4.965  48.974  1.00  0.00     0.029 A 
ENDBRANCH  13  15
ENDBRANCH   6  13
BRANCH   1  21
HETATM   21  C3  UNL     1      24.694  -0.327  54.251  1.00  0.00     0.009 C 
HETATM   22  C2  UNL     1      24.081  -1.053  55.205  1.00  0.00    -0.012 C 
HETATM   23  C1  UNL     1      22.644  -1.390  54.992  1.00  0.00     0.037 C 
HETATM   24 BR1  UNL     1      26.540   0.011  54.698  1.00  0.00    -0.051 Br
ENDBRANCH   1  21
TORSDOF 3
ENDMDL
MODEL 8
REMARK VINA RESULT:      -7.3      3.515      5.382
REMARK  3 active torsions:
REMARK  status: ('A' for Active; 'I' for Inactive)
REMARK    1  A    between atoms: C3_3  and  C4_5 
REMARK    2  A    between atoms: C8_10  and  N2_11 
REMARK    3  A    between atoms: N2_11  and  C9_12 
ROOT
HETATM    1  C4  UNL     1      24.602   6.229  48.402  1.00  0.00     0.053 C 
HETATM    2  C5  UNL     1      24.937   5.053  48.952  1.00  0.00     0.074 C 
HETATM    3  C6  UNL     1      26.279   4.565  49.352  1.00  0.00     0.185 C 
HETATM    4  N1  UNL     1      26.154   4.125  50.751  1.00  0.00    -0.377 N 
HETATM    5  C7  UNL     1      25.158   3.146  51.066  1.00  0.00     0.129 A 
HETATM    6  C8  UNL     1      25.286   2.227  52.102  1.00  0.00     0.160 A 
HETATM    7  N3  UNL     1      24.277   1.390  52.267  1.00  0.00    -0.222 NA
HETATM    8  C15 UNL     1      23.202   1.432  51.479  1.00  0.00     0.238 A 
HETATM    9  N4  UNL     1      23.061   2.326  50.460  1.00  0.00    -0.215 NA
HETATM   10  C16 UNL     1      24.066   3.223  50.231  1.00  0.00     0.201 A 
HETATM   11  O1  UNL     1      23.934   4.134  49.202  1.00  0.00    -0.293 OA
HETATM   12  H8  UNL     1      26.747   4.480  51.554  1.00  0.00     0.160 HD
ENDROOT
BRANCH   6  13
HETATM   13  N2  UNL     1      26.479   2.270  52.862  1.00  0.00    -0.339 N 
HETATM   14  H9  UNL     1      26.769   3.137  53.357  1.00  0.00     0.167 HD
BRANCH  13  15
HETATM   15  C9  UNL     1      27.405   1.215  53.048  1.00  0.00     0.033 A 
HETATM   16  C10 UNL     1      28.709   1.350  53.452  1.00  0.00     0.029 A 
HETATM   17  C11 UNL     1      29.593   0.327  53.633  1.00  0.00     0.002 A 
HETATM   18  C12 UNL     1      29.201  -0.960  53.407  1.00  0.00     0.000 A 
HETATM   19  C13 UNL     1      27.914  -1.174  53.001  1.00  0.00     0.002 A 
HETATM   20  C14 UNL     1      27.069  -0.107  52.836  1.00  0.00     0.029 A 
ENDBRANCH  13  15
ENDBRANCH   6  13
BRANCH   1  21
HETATM   21  C3  UNL     1      25.399   7.384  48.021  1.00  0.00     0.009 C 
HETATM   22  C2  UNL     1      25.078   8.116  46.937  1.00  0.00    -0.012 C 
HETATM   23  C1  UNL     1      23.881   7.694  46.155  1.00  0.00     0.037 C 
HETATM   24 BR1  UNL     1      26.969   8.078  48.902  1.00  0.00    -0.051 Br
ENDBRANCH   1  21
TORSDOF 3
ENDMDL
MODEL 9
REMARK VINA RESULT:      -7.3      3.479      6.849
REMARK  3 active torsions:
REMARK  status: ('A' for Active; 'I' for Inactive)
REMARK    1  A    between atoms: C3_3  and  C4_5 
REMARK    2  A    between atoms: C8_10  and  N2_11 
REMARK    3  A    between atoms: N2_11  and  C9_12 
ROOT
HETATM    1  C4  UNL     1      25.952  -0.036  53.026  1.00  0.00     0.053 C 
HETATM    2  C5  UNL     1      25.199   1.044  53.281  1.00  0.00     0.074 C 
HETATM    3  C6  UNL     1      25.616   2.354  53.838  1.00  0.00     0.185 C 
HETATM    4  N1  UNL     1      25.109   3.374  52.906  1.00  0.00    -0.377 N 
HETATM    5  C7  UNL     1      23.709   3.386  52.611  1.00  0.00     0.129 A 
HETATM    6  C8  UNL     1      23.002   4.539  52.285  1.00  0.00     0.160 A 
HETATM    7  N3  UNL     1      21.714   4.384  52.037  1.00  0.00    -0.222 NA
HETATM    8  C15 UNL     1      21.134   3.184  52.097  1.00  0.00     0.238 A 
HETATM    9  N4  UNL     1      21.811   2.045  52.414  1.00  0.00    -0.215 NA
HETATM   10  C16 UNL     1      23.148   2.131  52.684  1.00  0.00     0.201 A 
HETATM   11  O1  UNL     1      23.845   0.983  53.005  1.00  0.00    -0.293 OA
HETATM   12  H8  UNL     1      25.705   4.110  52.428  1.00  0.00     0.160 HD
ENDROOT
BRANCH   6  13
HETATM   13  N2  UNL     1      23.724   5.756  52.266  1.00  0.00    -0.339 N 
HETATM   14  H9  UNL     1      24.025   6.216  53.149  1.00  0.00     0.167 HD
BRANCH  13  15
HETATM   15  C9  UNL     1      24.116   6.492  51.121  1.00  0.00     0.033 A 
HETATM   16  C10 UNL     1      25.157   6.181  50.282  1.00  0.00     0.029 A 
HETATM   17  C11 UNL     1      25.525   6.893  49.179  1.00  0.00     0.002 A 
HETATM   18  C12 UNL     1      24.836   8.019  48.833  1.00  0.00     0.000 A 
HETATM   19  C13 UNL     1      23.785   8.392  49.622  1.00  0.00     0.002 A 
HETATM   20  C14 UNL     1      23.460   7.637  50.720  1.00  0.00     0.029 A 
ENDBRANCH  13  15
ENDBRANCH   6  13
BRANCH   1  21
HETATM   21  C3  UNL     1      27.373  -0.291  53.198  1.00  0.00     0.009 C 
HETATM   22  C2  UNL     1      27.905  -1.483  52.864  1.00  0.00    -0.012 C 
HETATM   23  C1  UNL     1      26.980  -2.516  52.315  1.00  0.00     0.037 C 
HETATM   24 BR1  UNL     1      28.714   0.912  53.888  1.00  0.00    -0.051 Br
ENDBRANCH   1  21
TORSDOF 3
ENDMDL
