MODEL 1
REMARK VINA RESULT:      -6.8      0.000      0.000
REMARK  5 active torsions:
REMARK  status: ('A' for Active; 'I' for Inactive)
REMARK    1  A    between atoms: C3_4  and  C4_6 
REMARK    2  A    between atoms: N1_8  and  C6_9 
REMARK    3  A    between atoms: C11_16  and  C12_17 
REMARK    4  A    between atoms: C12_17  and  C13_18 
REMARK    5  A    between atoms: C13_18  and  N3_19 
ROOT
HETATM    1  C6  UNL     1      22.832  -0.133  52.981  1.00  0.00     0.033 C 
HETATM    2  C7  UNL     1      21.700   0.507  52.744  1.00  0.00    -0.027 C 
HETATM    3  C8  UNL     1      21.213   1.679  53.631  1.00  0.00     0.214 C 
HETATM    4  O1  UNL     1      20.384   0.807  54.592  1.00  0.00    -0.330 OA
HETATM    5  C9  UNL     1      20.267  -0.402  53.723  1.00  0.00     0.167 C 
HETATM    6  N2  UNL     1      21.015  -1.528  53.994  1.00  0.00    -0.260 NA
HETATM    7  C10 UNL     1      22.484  -1.407  53.723  1.00  0.00     0.208 C 
HETATM    8  C11 UNL     1      19.324  -0.169  52.653  1.00  0.00     0.001 C 
HETATM    9  C16 UNL     1      20.593   0.065  51.750  1.00  0.00     0.081 C 
ENDROOT
BRANCH   1  10
HETATM   10  N1  UNL     1      24.311  -0.291  52.962  1.00  0.00    -0.363 N 
HETATM   11  C5  UNL     1      24.834  -0.567  54.127  1.00  0.00     0.136 A 
HETATM   12  C4  UNL     1      25.730  -0.433  52.872  1.00  0.00     0.226 A 
BRANCH  12  13
HETATM   13  C3  UNL     1      27.061  -0.718  53.052  1.00  0.00     0.104 A 
HETATM   14  C2  UNL     1      28.398  -1.224  53.172  1.00  0.00     0.170 A 
HETATM   15  C1  UNL     1      28.482   0.125  53.571  1.00  0.00     0.178 A 
HETATM   16 CL1  UNL     1      29.990  -0.760  53.653  1.00  0.00    -0.174 Cl
HETATM   17  F1  UNL     1      27.358  -2.071  52.790  1.00  0.00    -0.372 F 
ENDBRANCH  12  13
ENDBRANCH   1  10
BRANCH   8  18
HETATM   18  C12 UNL     1      18.573   0.037  51.573  1.00  0.00     0.040 C 
BRANCH  18  19
HETATM   19  C13 UNL     1      17.760   0.194  50.405  1.00  0.00     0.022 C 
HETATM   20  C14 UNL     1      16.628  -0.365  50.336  1.00  0.00    -0.002 C 
HETATM   21  C15 UNL     1      15.905  -1.214  51.309  1.00  0.00     0.038 C 
BRANCH  19  22
HETATM   22  N3  UNL     1      18.169   0.999  49.272  1.00  0.00    -0.399 N 
HETATM   23  H10 UNL     1      18.996   0.612  48.746  1.00  0.00     0.156 HD
HETATM   24  H11 UNL     1      18.421   1.595  48.485  1.00  0.00     0.156 HD
ENDBRANCH  19  22
ENDBRANCH  18  19
ENDBRANCH   8  18
TORSDOF 5
ENDMDL
MODEL 2
REMARK VINA RESULT:      -6.8      2.167      2.660
REMARK  5 active torsions:
REMARK  status: ('A' for Active; 'I' for Inactive)
REMARK    1  A    between atoms: C3_4  and  C4_6 
REMARK    2  A    between atoms: N1_8  and  C6_9 
REMARK    3  A    between atoms: C11_16  and  C12_17 
REMARK    4  A    between atoms: C12_17  and  C13_18 
REMARK    5  A    between atoms: C13_18  and  N3_19 
ROOT
HETATM    1  C6  UNL     1      22.977   1.002  51.921  1.00  0.00     0.033 C 
HETATM    2  C7  UNL     1      21.833   0.579  51.412  1.00  0.00    -0.027 C 
HETATM    3  C8  UNL     1      21.489   0.735  49.911  1.00  0.00     0.214 C 
HETATM    4  O1  UNL     1      20.787   2.097  50.058  1.00  0.00    -0.330 OA
HETATM    5  C9  UNL     1      20.534   2.040  51.529  1.00  0.00     0.167 C 
HETATM    6  N2  UNL     1      21.295   2.797  52.395  1.00  0.00    -0.260 NA
HETATM    7  C10 UNL     1      22.715   2.349  52.565  1.00  0.00     0.208 C 
HETATM    8  C11 UNL     1      19.457   1.123  51.824  1.00  0.00     0.001 C 
HETATM    9  C16 UNL     1      20.594   0.108  52.221  1.00  0.00     0.081 C 
ENDROOT
BRANCH   1  10
HETATM   10  N1  UNL     1      24.437   0.914  52.192  1.00  0.00    -0.363 N 
HETATM   11  C5  UNL     1      24.734   0.536  53.408  1.00  0.00     0.136 A 
HETATM   12  C4  UNL     1      25.851   0.848  52.383  1.00  0.00     0.226 A 
BRANCH  12  13
HETATM   13  C3  UNL     1      27.136   0.605  52.806  1.00  0.00     0.104 A 
HETATM   14  C2  UNL     1      28.499   0.576  53.250  1.00  0.00     0.170 A 
HETATM   15  C1  UNL     1      28.123  -0.778  53.141  1.00  0.00     0.178 A 
HETATM   16 CL1  UNL     1      29.779  -0.515  53.643  1.00  0.00    -0.174 Cl
HETATM   17  F1  UNL     1      27.876   1.793  52.973  1.00  0.00    -0.372 F 
ENDBRANCH  12  13
ENDBRANCH   1  10
BRANCH   8  18
HETATM   18  C12 UNL     1      18.569   0.191  52.164  1.00  0.00     0.040 C 
BRANCH  18  19
HETATM   19  C13 UNL     1      17.569  -0.766  52.532  1.00  0.00     0.022 C 
HETATM   20  C14 UNL     1      16.617  -1.028  51.742  1.00  0.00    -0.002 C 
HETATM   21  C15 UNL     1      16.307  -0.510  50.391  1.00  0.00     0.038 C 
BRANCH  19  22
HETATM   22  N3  UNL     1      17.601  -1.484  53.790  1.00  0.00    -0.399 N 
HETATM   23  H10 UNL     1      17.551  -0.864  54.639  1.00  0.00     0.156 HD
HETATM   24  H11 UNL     1      17.627  -2.030  54.649  1.00  0.00     0.156 HD
ENDBRANCH  19  22
ENDBRANCH  18  19
ENDBRANCH   8  18
TORSDOF 5
ENDMDL
MODEL 3
REMARK VINA RESULT:      -6.7      4.329      8.290
REMARK  5 active torsions:
REMARK  status: ('A' for Active; 'I' for Inactive)
REMARK    1  A    between atoms: C3_4  and  C4_6 
REMARK    2  A    between atoms: N1_8  and  C6_9 
REMARK    3  A    between atoms: C11_16  and  C12_17 
REMARK    4  A    between atoms: C12_17  and  C13_18 
REMARK    5  A    between atoms: C13_18  and  N3_19 
ROOT
HETATM    1  C6  UNL     1      22.782   1.464  52.521  1.00  0.00     0.033 C 
HETATM    2  C7  UNL     1      23.876   2.044  52.984  1.00  0.00    -0.027 C 
HETATM    3  C8  UNL     1      23.933   3.557  53.311  1.00  0.00     0.214 C 
HETATM    4  O1  UNL     1      24.428   3.993  51.921  1.00  0.00    -0.330 OA
HETATM    5  C9  UNL     1      24.931   2.666  51.455  1.00  0.00     0.167 C 
HETATM    6  N2  UNL     1      24.217   1.940  50.525  1.00  0.00    -0.260 NA
HETATM    7  C10 UNL     1      22.935   1.343  51.019  1.00  0.00     0.208 C 
HETATM    8  C11 UNL     1      26.172   2.333  52.116  1.00  0.00     0.001 C 
HETATM    9  C16 UNL     1      25.292   1.409  53.039  1.00  0.00     0.081 C 
ENDROOT
BRANCH   1  10
HETATM   10  N1  UNL     1      21.420   0.878  52.648  1.00  0.00    -0.363 N 
HETATM   11  C5  UNL     1      21.055   0.150  51.626  1.00  0.00     0.136 A 
HETATM   12  C4  UNL     1      20.108   0.345  52.835  1.00  0.00     0.226 A 
BRANCH  12  13
HETATM   13  C3  UNL     1      18.934  -0.367  52.797  1.00  0.00     0.104 A 
HETATM   14  C2  UNL     1      17.805  -1.244  52.911  1.00  0.00     0.170 A 
HETATM   15  C1  UNL     1      17.421  -0.279  51.959  1.00  0.00     0.178 A 
HETATM   16 CL1  UNL     1      16.223  -1.516  52.274  1.00  0.00    -0.174 Cl
HETATM   17  F1  UNL     1      18.973  -1.505  53.627  1.00  0.00    -0.372 F 
ENDBRANCH  12  13
ENDBRANCH   1  10
BRANCH   8  18
HETATM   18  C12 UNL     1      27.239   1.914  52.792  1.00  0.00     0.040 C 
BRANCH  18  19
HETATM   19  C13 UNL     1      28.422   1.506  53.489  1.00  0.00     0.022 C 
HETATM   20  C14 UNL     1      28.719   0.280  53.577  1.00  0.00    -0.002 C 
HETATM   21  C15 UNL     1      28.038  -0.923  53.049  1.00  0.00     0.038 C 
BRANCH  19  22
HETATM   22  N3  UNL     1      29.333   2.452  54.101  1.00  0.00    -0.399 N 
HETATM   23  H10 UNL     1      28.860   3.173  54.705  1.00  0.00     0.156 HD
HETATM   24  H11 UNL     1      30.009   3.094  54.510  1.00  0.00     0.156 HD
ENDBRANCH  19  22
ENDBRANCH  18  19
ENDBRANCH   8  18
TORSDOF 5
ENDMDL
MODEL 4
REMARK VINA RESULT:      -6.7      5.244      6.365
REMARK  5 active torsions:
REMARK  status: ('A' for Active; 'I' for Inactive)
REMARK    1  A    between atoms: C3_4  and  C4_6 
REMARK    2  A    between atoms: N1_8  and  C6_9 
REMARK    3  A    between atoms: C11_16  and  C12_17 
REMARK    4  A    between atoms: C12_17  and  C13_18 
REMARK    5  A    between atoms: C13_18  and  N3_19 
ROOT
HETATM    1  C6  UNL     1      24.435   3.228  50.559  1.00  0.00     0.033 C 
HETATM    2  C7  UNL     1      23.694   2.176  50.863  1.00  0.00    -0.027 C 
HETATM    3  C8  UNL     1      22.515   1.713  49.973  1.00  0.00     0.214 C 
HETATM    4  O1  UNL     1      21.440   2.537  50.705  1.00  0.00    -0.330 OA
HETATM    5  C9  UNL     1      22.196   2.784  51.969  1.00  0.00     0.167 C 
HETATM    6  N2  UNL     1      22.741   4.026  52.223  1.00  0.00    -0.260 NA
HETATM    7  C10 UNL     1      23.922   4.395  51.379  1.00  0.00     0.208 C 
HETATM    8  C11 UNL     1      22.243   1.585  52.775  1.00  0.00     0.001 C 
HETATM    9  C16 UNL     1      23.704   1.413  52.215  1.00  0.00     0.081 C 
ENDROOT
BRANCH   1  10
HETATM   10  N1  UNL     1      25.502   3.944  49.809  1.00  0.00    -0.363 N 
HETATM   11  C5  UNL     1      25.496   5.240  49.976  1.00  0.00     0.136 A 
HETATM   12  C4  UNL     1      26.551   4.566  49.066  1.00  0.00     0.226 A 
BRANCH  12  13
HETATM   13  C3  UNL     1      27.513   5.399  48.546  1.00  0.00     0.104 A 
HETATM   14  C2  UNL     1      28.643   6.082  47.987  1.00  0.00     0.170 A 
HETATM   15  C1  UNL     1      27.676   7.086  48.192  1.00  0.00     0.178 A 
HETATM   16 CL1  UNL     1      29.196   7.654  47.537  1.00  0.00    -0.174 Cl
HETATM   17  F1  UNL     1      28.712   4.715  48.260  1.00  0.00    -0.372 F 
ENDBRANCH  12  13
ENDBRANCH   1  10
BRANCH   8  18
HETATM   18  C12 UNL     1      22.436   0.479  53.491  1.00  0.00     0.040 C 
BRANCH  18  19
HETATM   19  C13 UNL     1      22.581  -0.711  54.274  1.00  0.00     0.022 C 
HETATM   20  C14 UNL     1      21.596  -1.485  54.446  1.00  0.00    -0.002 C 
HETATM   21  C15 UNL     1      20.205  -1.409  53.947  1.00  0.00     0.038 C 
BRANCH  19  22
HETATM   22  N3  UNL     1      23.838  -1.096  54.883  1.00  0.00    -0.399 N 
HETATM   23  H10 UNL     1      24.564  -1.426  54.196  1.00  0.00     0.156 HD
HETATM   24  H11 UNL     1      24.703  -1.355  55.354  1.00  0.00     0.156 HD
ENDBRANCH  19  22
ENDBRANCH  18  19
ENDBRANCH   8  18
TORSDOF 5
ENDMDL
MODEL 5
REMARK VINA RESULT:      -6.7      6.532      8.619
REMARK  5 active torsions:
REMARK  status: ('A' for Active; 'I' for Inactive)
REMARK    1  A    between atoms: C3_4  and  C4_6 
REMARK    2  A    between atoms: N1_8  and  C6_9 
REMARK    3  A    between atoms: C11_16  and  C12_17 
REMARK    4  A    between atoms: C12_17  and  C13_18 
REMARK    5  A    between atoms: C13_18  and  N3_19 
ROOT
HETATM    1  C6  UNL     1      24.190   3.640  50.604  1.00  0.00     0.033 C 
HETATM    2  C7  UNL     1      24.869   4.768  50.481  1.00  0.00    -0.027 C 
HETATM    3  C8  UNL     1      24.407   6.086  51.151  1.00  0.00     0.214 C 
HETATM    4  O1  UNL     1      23.584   6.585  49.949  1.00  0.00    -0.330 OA
HETATM    5  C9  UNL     1      24.200   5.715  48.903  1.00  0.00     0.167 C 
HETATM    6  N2  UNL     1      23.509   4.630  48.406  1.00  0.00    -0.260 NA
HETATM    7  C10 UNL     1      23.353   3.478  49.351  1.00  0.00     0.208 C 
HETATM    8  C11 UNL     1      25.525   6.186  48.566  1.00  0.00     0.001 C 
HETATM    9  C16 UNL     1      26.041   5.025  49.496  1.00  0.00     0.081 C 
ENDROOT
BRANCH   1  10
HETATM   10  N1  UNL     1      23.741   2.417  51.323  1.00  0.00    -0.363 N 
HETATM   11  C5  UNL     1      23.781   2.518  52.625  1.00  0.00     0.136 A 
HETATM   12  C4  UNL     1      23.295   1.213  51.949  1.00  0.00     0.226 A 
BRANCH  12  13
HETATM   13  C3  UNL     1      22.828   0.237  52.795  1.00  0.00     0.104 A 
HETATM   14  C2  UNL     1      22.545  -0.872  53.660  1.00  0.00     0.170 A 
HETATM   15  C1  UNL     1      21.348  -0.130  53.617  1.00  0.00     0.178 A 
HETATM   16 CL1  UNL     1      21.277  -1.582  54.591  1.00  0.00    -0.174 Cl
HETATM   17  F1  UNL     1      23.787  -0.768  53.033  1.00  0.00    -0.372 F 
ENDBRANCH  12  13
ENDBRANCH   1  10
BRANCH   8  18
HETATM   18  C12 UNL     1      26.796   6.491  48.318  1.00  0.00     0.040 C 
BRANCH  18  19
HETATM   19  C13 UNL     1      28.159   6.868  48.090  1.00  0.00     0.022 C 
HETATM   20  C14 UNL     1      28.451   7.667  47.154  1.00  0.00    -0.002 C 
HETATM   21  C15 UNL     1      27.592   8.362  46.169  1.00  0.00     0.038 C 
BRANCH  19  22
HETATM   22  N3  UNL     1      29.251   6.383  48.909  1.00  0.00    -0.399 N 
HETATM   23  H10 UNL     1      28.990   5.581  49.540  1.00  0.00     0.156 HD
HETATM   24  H11 UNL     1      30.046   6.074  49.464  1.00  0.00     0.156 HD
ENDBRANCH  19  22
ENDBRANCH  18  19
ENDBRANCH   8  18
TORSDOF 5
ENDMDL
MODEL 6
REMARK VINA RESULT:      -6.4      2.589      3.163
REMARK  5 active torsions:
REMARK  status: ('A' for Active; 'I' for Inactive)
REMARK    1  A    between atoms: C3_4  and  C4_6 
REMARK    2  A    between atoms: N1_8  and  C6_9 
REMARK    3  A    between atoms: C11_16  and  C12_17 
REMARK    4  A    between atoms: C12_17  and  C13_18 
REMARK    5  A    between atoms: C13_18  and  N3_19 
ROOT
HETATM    1  C6  UNL     1      24.360   1.517  51.636  1.00  0.00     0.033 C 
HETATM    2  C7  UNL     1      23.502   1.927  50.718  1.00  0.00    -0.027 C 
HETATM    3  C8  UNL     1      23.854   3.033  49.693  1.00  0.00     0.214 C 
HETATM    4  O1  UNL     1      23.325   4.202  50.544  1.00  0.00    -0.330 OA
HETATM    5  C9  UNL     1      22.463   3.408  51.470  1.00  0.00     0.167 C 
HETATM    6  N2  UNL     1      22.865   3.177  52.769  1.00  0.00    -0.260 NA
HETATM    7  C10 UNL     1      24.011   2.225  52.929  1.00  0.00     0.208 C 
HETATM    8  C11 UNL     1      21.262   2.970  50.795  1.00  0.00     0.001 C 
HETATM    9  C16 UNL     1      21.990   1.580  50.663  1.00  0.00     0.081 C 
ENDROOT
BRANCH   1  10
HETATM   10  N1  UNL     1      25.542   0.754  52.120  1.00  0.00    -0.363 N 
HETATM   11  C5  UNL     1      26.680   1.158  51.620  1.00  0.00     0.136 A 
HETATM   12  C4  UNL     1      26.633  -0.016  52.627  1.00  0.00     0.226 A 
BRANCH  12  13
HETATM   13  C3  UNL     1      27.850  -0.518  53.020  1.00  0.00     0.104 A 
HETATM   14  C2  UNL     1      29.043  -1.239  53.354  1.00  0.00     0.170 A 
HETATM   15  C1  UNL     1      29.290   0.084  53.768  1.00  0.00     0.178 A 
HETATM   16 CL1  UNL     1      30.592  -1.040  54.090  1.00  0.00    -0.174 Cl
HETATM   17  F1  UNL     1      27.949  -1.907  52.804  1.00  0.00    -0.372 F 
ENDBRANCH  12  13
ENDBRANCH   1  10
BRANCH   8  18
HETATM   18  C12 UNL     1      20.210   2.426  50.189  1.00  0.00     0.040 C 
BRANCH  18  19
HETATM   19  C13 UNL     1      19.051   1.831  49.594  1.00  0.00     0.022 C 
HETATM   20  C14 UNL     1      18.470   0.861  50.160  1.00  0.00    -0.002 C 
HETATM   21  C15 UNL     1      18.764   0.164  51.432  1.00  0.00     0.038 C 
BRANCH  19  22
HETATM   22  N3  UNL     1      18.481   2.307  48.350  1.00  0.00    -0.399 N 
HETATM   23  H10 UNL     1      19.075   3.018  47.850  1.00  0.00     0.156 HD
HETATM   24  H11 UNL     1      18.043   2.612  47.482  1.00  0.00     0.156 HD
ENDBRANCH  19  22
ENDBRANCH  18  19
ENDBRANCH   8  18
TORSDOF 5
ENDMDL
MODEL 7
REMARK VINA RESULT:      -6.4      5.573      8.721
REMARK  5 active torsions:
REMARK  status: ('A' for Active; 'I' for Inactive)
REMARK    1  A    between atoms: C3_4  and  C4_6 
REMARK    2  A    between atoms: N1_8  and  C6_9 
REMARK    3  A    between atoms: C11_16  and  C12_17 
REMARK    4  A    between atoms: C12_17  and  C13_18 
REMARK    5  A    between atoms: C13_18  and  N3_19 
ROOT
HETATM    1  C6  UNL     1      24.047   2.675  50.764  1.00  0.00     0.033 C 
HETATM    2  C7  UNL     1      24.694   1.831  51.551  1.00  0.00    -0.027 C 
HETATM    3  C8  UNL     1      23.991   0.628  52.226  1.00  0.00     0.214 C 
HETATM    4  O1  UNL     1      23.625   1.375  53.521  1.00  0.00    -0.330 OA
HETATM    5  C9  UNL     1      24.590   2.506  53.387  1.00  0.00     0.167 C 
HETATM    6  N2  UNL     1      24.146   3.759  53.020  1.00  0.00    -0.260 NA
HETATM    7  C10 UNL     1      23.703   3.895  51.595  1.00  0.00     0.208 C 
HETATM    8  C11 UNL     1      25.935   2.063  53.675  1.00  0.00     0.001 C 
HETATM    9  C16 UNL     1      26.128   2.026  52.113  1.00  0.00     0.081 C 
ENDROOT
BRANCH   1  10
HETATM   10  N1  UNL     1      23.410   3.097  49.488  1.00  0.00    -0.363 N 
HETATM   11  C5  UNL     1      22.559   4.081  49.614  1.00  0.00     0.136 A 
HETATM   12  C4  UNL     1      22.840   3.453  48.228  1.00  0.00     0.226 A 
BRANCH  12  13
HETATM   13  C3  UNL     1      22.222   4.059  47.160  1.00  0.00     0.104 A 
HETATM   14  C2  UNL     1      21.483   4.490  46.009  1.00  0.00     0.170 A 
HETATM   15  C1  UNL     1      22.196   5.629  46.431  1.00  0.00     0.178 A 
HETATM   16 CL1  UNL     1      21.218   5.864  44.999  1.00  0.00    -0.174 Cl
HETATM   17  F1  UNL     1      21.427   3.158  46.423  1.00  0.00    -0.372 F 
ENDBRANCH  12  13
ENDBRANCH   1  10
BRANCH   8  18
HETATM   18  C12 UNL     1      27.205   1.681  53.795  1.00  0.00     0.040 C 
BRANCH  18  19
HETATM   19  C13 UNL     1      28.580   1.318  53.964  1.00  0.00     0.022 C 
HETATM   20  C14 UNL     1      28.970   0.149  53.682  1.00  0.00    -0.002 C 
HETATM   21  C15 UNL     1      28.231  -1.019  53.153  1.00  0.00     0.038 C 
BRANCH  19  22
HETATM   22  N3  UNL     1      29.580   2.252  54.439  1.00  0.00    -0.399 N 
HETATM   23  H10 UNL     1      30.379   2.404  53.770  1.00  0.00     0.156 HD
HETATM   24  H11 UNL     1      30.258   2.914  54.813  1.00  0.00     0.156 HD
ENDBRANCH  19  22
ENDBRANCH  18  19
ENDBRANCH   8  18
TORSDOF 5
ENDMDL
MODEL 8
REMARK VINA RESULT:      -6.2      4.357      4.928
REMARK  5 active torsions:
REMARK  status: ('A' for Active; 'I' for Inactive)
REMARK    1  A    between atoms: C3_4  and  C4_6 
REMARK    2  A    between atoms: N1_8  and  C6_9 
REMARK    3  A    between atoms: C11_16  and  C12_17 
REMARK    4  A    between atoms: C12_17  and  C13_18 
REMARK    5  A    between atoms: C13_18  and  N3_19 
ROOT
HETATM    1  C6  UNL     1      24.759   2.966  51.416  1.00  0.00     0.033 C 
HETATM    2  C7  UNL     1      24.171   3.548  50.384  1.00  0.00    -0.027 C 
HETATM    3  C8  UNL     1      24.574   4.959  49.892  1.00  0.00     0.214 C 
HETATM    4  O1  UNL     1      23.552   5.719  50.756  1.00  0.00    -0.330 OA
HETATM    5  C9  UNL     1      22.641   4.573  51.052  1.00  0.00     0.167 C 
HETATM    6  N2  UNL     1      22.647   3.983  52.298  1.00  0.00    -0.260 NA
HETATM    7  C10 UNL     1      23.864   3.171  52.621  1.00  0.00     0.208 C 
HETATM    8  C11 UNL     1      21.850   4.240  49.888  1.00  0.00     0.001 C 
HETATM    9  C16 UNL     1      22.875   3.062  49.680  1.00  0.00     0.081 C 
ENDROOT
BRANCH   1  10
HETATM   10  N1  UNL     1      25.863   2.231  52.089  1.00  0.00    -0.363 N 
HETATM   11  C5  UNL     1      26.676   1.619  51.269  1.00  0.00     0.136 A 
HETATM   12  C4  UNL     1      26.898   1.550  52.799  1.00  0.00     0.226 A 
BRANCH  12  13
HETATM   13  C3  UNL     1      28.038   0.902  53.210  1.00  0.00     0.104 A 
HETATM   14  C2  UNL     1      29.308   0.431  53.682  1.00  0.00     0.170 A 
HETATM   15  C1  UNL     1      28.597  -0.733  53.331  1.00  0.00     0.178 A 
HETATM   16 CL1  UNL     1      30.221  -1.015  53.918  1.00  0.00    -0.174 Cl
HETATM   17  F1  UNL     1      29.052   1.800  53.599  1.00  0.00    -0.372 F 
ENDBRANCH  12  13
ENDBRANCH   1  10
BRANCH   8  18
HETATM   18  C12 UNL     1      21.198   3.802  48.813  1.00  0.00     0.040 C 
BRANCH  18  19
HETATM   19  C13 UNL     1      20.450   3.371  47.671  1.00  0.00     0.022 C 
HETATM   20  C14 UNL     1      20.818   3.699  46.507  1.00  0.00    -0.002 C 
HETATM   21  C15 UNL     1      21.976   4.496  46.045  1.00  0.00     0.038 C 
BRANCH  19  22
HETATM   22  N3  UNL     1      19.268   2.541  47.781  1.00  0.00    -0.399 N 
HETATM   23  H10 UNL     1      18.811   2.568  48.729  1.00  0.00     0.156 HD
HETATM   24  H11 UNL     1      18.443   1.945  47.812  1.00  0.00     0.156 HD
ENDBRANCH  19  22
ENDBRANCH  18  19
ENDBRANCH   8  18
TORSDOF 5
ENDMDL
MODEL 9
REMARK VINA RESULT:      -6.2      4.601      5.358
REMARK  5 active torsions:
REMARK  status: ('A' for Active; 'I' for Inactive)
REMARK    1  A    between atoms: C3_4  and  C4_6 
REMARK    2  A    between atoms: N1_8  and  C6_9 
REMARK    3  A    between atoms: C11_16  and  C12_17 
REMARK    4  A    between atoms: C12_17  and  C13_18 
REMARK    5  A    between atoms: C13_18  and  N3_19 
ROOT
HETATM    1  C6  UNL     1      22.016   2.818  50.589  1.00  0.00     0.033 C 
HETATM    2  C7  UNL     1      21.199   1.778  50.602  1.00  0.00    -0.027 C 
HETATM    3  C8  UNL     1      20.357   1.375  49.367  1.00  0.00     0.214 C 
HETATM    4  O1  UNL     1      19.119   2.206  49.751  1.00  0.00    -0.330 OA
HETATM    5  C9  UNL     1      19.438   2.392  51.199  1.00  0.00     0.167 C 
HETATM    6  N2  UNL     1      19.894   3.609  51.660  1.00  0.00    -0.260 NA
HETATM    7  C10 UNL     1      21.288   3.972  51.249  1.00  0.00     0.208 C 
HETATM    8  C11 UNL     1      19.207   1.167  51.931  1.00  0.00     0.001 C 
HETATM    9  C16 UNL     1      20.768   0.972  51.856  1.00  0.00     0.081 C 
ENDROOT
BRANCH   1  10
HETATM   10  N1  UNL     1      23.277   3.527  50.244  1.00  0.00    -0.363 N 
HETATM   11  C5  UNL     1      23.797   3.167  49.101  1.00  0.00     0.136 A 
HETATM   12  C4  UNL     1      24.481   4.246  49.974  1.00  0.00     0.226 A 
BRANCH  12  13
HETATM   13  C3  UNL     1      25.586   4.851  49.424  1.00  0.00     0.104 A 
HETATM   14  C2  UNL     1      26.611   5.667  48.841  1.00  0.00     0.170 A 
HETATM   15  C1  UNL     1      27.201   4.397  48.996  1.00  0.00     0.178 A 
HETATM   16 CL1  UNL     1      28.236   5.602  48.262  1.00  0.00    -0.174 Cl
HETATM   17  F1  UNL     1      25.338   6.191  49.066  1.00  0.00    -0.372 F 
ENDBRANCH  12  13
ENDBRANCH   1  10
BRANCH   8  18
HETATM   18  C12 UNL     1      19.144   0.034  52.627  1.00  0.00     0.040 C 
BRANCH  18  19
HETATM   19  C13 UNL     1      19.051  -1.152  53.425  1.00  0.00     0.022 C 
HETATM   20  C14 UNL     1      17.992  -1.843  53.416  1.00  0.00    -0.002 C 
HETATM   21  C15 UNL     1      16.724  -1.666  52.675  1.00  0.00     0.038 C 
BRANCH  19  22
HETATM   22  N3  UNL     1      20.142  -1.625  54.251  1.00  0.00    -0.399 N 
HETATM   23  H10 UNL     1      20.193  -2.673  54.336  1.00  0.00     0.156 HD
HETATM   24  H11 UNL     1      20.922  -1.912  54.839  1.00  0.00     0.156 HD
ENDBRANCH  19  22
ENDBRANCH  18  19
ENDBRANCH   8  18
TORSDOF 5
ENDMDL
