MODEL 1
REMARK VINA RESULT:      -7.8      0.000      0.000
REMARK  2 active torsions:
REMARK  status: ('A' for Active; 'I' for Inactive)
REMARK    1  A    between atoms: N1_1  and  N2_2 
REMARK    2  A    between atoms: C9_14  and  C10_15 
ROOT
HETATM    1  N2  UNL     1      33.174   3.783  46.534  1.00  0.00    -0.231 NA
HETATM    2  C1  UNL     1      32.950   3.966  47.975  1.00  0.00     0.137 C 
HETATM    3  C2  UNL     1      31.738   4.850  48.131  1.00  0.00    -0.006 C 
HETATM    4  C3  UNL     1      31.992   5.978  48.779  1.00  0.00     0.073 C 
HETATM    5  C4  UNL     1      31.860   7.278  49.414  1.00  0.00     0.266 C 
HETATM    6  O1  UNL     1      31.942   8.375  50.017  1.00  0.00    -0.266 OA
HETATM    7  N3  UNL     1      30.510   7.570  49.043  1.00  0.00    -0.212 NA
HETATM    8  C5  UNL     1      30.193   7.700  47.776  1.00  0.00     0.080 A 
HETATM    9  C6  UNL     1      30.985   7.603  46.517  1.00  0.00     0.099 A 
HETATM   10  N4  UNL     1      30.408   7.824  45.397  1.00  0.00    -0.258 NA
HETATM   11  C7  UNL     1      29.036   8.160  45.250  1.00  0.00     0.114 A 
HETATM   12  C8  UNL     1      28.301   8.246  46.343  1.00  0.00     0.008 A 
HETATM   13  C9  UNL     1      28.776   8.021  47.727  1.00  0.00     0.097 A 
HETATM   14  C16 UNL     1      32.409   7.249  46.292  1.00  0.00     0.145 C 
HETATM   15  N5  UNL     1      32.439   5.970  46.197  1.00  0.00    -0.284 NA
HETATM   16  C17 UNL     1      33.537   5.093  45.984  1.00  0.00     0.256 C 
ENDROOT
BRANCH  13  17
HETATM   17  C10 UNL     1      27.894   6.994  48.325  1.00  0.00    -0.043 A 
HETATM   18  C11 UNL     1      28.202   5.653  48.188  1.00  0.00     0.008 A 
HETATM   19  C12 UNL     1      27.418   4.627  48.725  1.00  0.00     0.002 A 
HETATM   20  C13 UNL     1      26.283   4.957  49.423  1.00  0.00     0.019 A 
HETATM   21  C14 UNL     1      25.941   6.277  49.584  1.00  0.00     0.011 A 
HETATM   22 BR1  UNL     1      24.360   6.748  50.558  1.00  0.00    -0.051 Br
HETATM   23  C15 UNL     1      26.731   7.297  49.044  1.00  0.00     0.027 A 
ENDBRANCH  13  17
BRANCH   1  24
HETATM   24  N1  UNL     1      32.037   3.263  45.916  1.00  0.00    -0.267 NA
HETATM   25  H1  UNL     1      32.289   2.330  45.477  1.00  0.00     0.137 HD
HETATM   26  H2  UNL     1      31.711   3.959  45.212  1.00  0.00     0.137 HD
ENDBRANCH   1  24
TORSDOF 2
ENDMDL
MODEL 2
REMARK VINA RESULT:      -7.8      7.396      9.825
REMARK  2 active torsions:
REMARK  status: ('A' for Active; 'I' for Inactive)
REMARK    1  A    between atoms: N1_1  and  N2_2 
REMARK    2  A    between atoms: C9_14  and  C10_15 
ROOT
HETATM    1  N2  UNL     1      26.598   1.719  52.243  1.00  0.00    -0.231 NA
HETATM    2  C1  UNL     1      25.720   2.272  53.284  1.00  0.00     0.137 C 
HETATM    3  C2  UNL     1      24.300   2.124  52.797  1.00  0.00    -0.006 C 
HETATM    4  C3  UNL     1      23.662   3.280  52.685  1.00  0.00     0.073 C 
HETATM    5  C4  UNL     1      22.651   4.293  52.431  1.00  0.00     0.266 C 
HETATM    6  O1  UNL     1      21.917   5.299  52.287  1.00  0.00    -0.266 OA
HETATM    7  N3  UNL     1      21.643   3.459  51.851  1.00  0.00    -0.212 NA
HETATM    8  C5  UNL     1      21.883   2.830  50.726  1.00  0.00     0.080 A 
HETATM    9  C6  UNL     1      23.071   2.773  49.828  1.00  0.00     0.099 A 
HETATM   10  N4  UNL     1      23.006   2.094  48.746  1.00  0.00    -0.258 NA
HETATM   11  C7  UNL     1      21.864   1.365  48.320  1.00  0.00     0.114 A 
HETATM   12  C8  UNL     1      20.794   1.385  49.095  1.00  0.00     0.008 A 
HETATM   13  C9  UNL     1      20.671   2.102  50.384  1.00  0.00     0.097 A 
HETATM   14  C16 UNL     1      24.421   3.375  49.968  1.00  0.00     0.145 C 
HETATM   15  N5  UNL     1      25.112   2.527  50.637  1.00  0.00    -0.284 NA
HETATM   16  C17 UNL     1      26.467   2.582  51.065  1.00  0.00     0.256 C 
ENDROOT
BRANCH  13  17
HETATM   17  C10 UNL     1      20.250   1.107  51.394  1.00  0.00    -0.043 A 
HETATM   18  C11 UNL     1      18.937   0.678  51.437  1.00  0.00     0.008 A 
HETATM   19  C12 UNL     1      18.465  -0.259  52.362  1.00  0.00     0.002 A 
HETATM   20  C13 UNL     1      19.342  -0.785  53.278  1.00  0.00     0.019 A 
HETATM   21  C14 UNL     1      20.655  -0.387  53.270  1.00  0.00     0.011 A 
HETATM   22 BR1  UNL     1      21.887  -1.115  54.544  1.00  0.00    -0.051 Br
HETATM   23  C15 UNL     1      21.119   0.551  52.341  1.00  0.00     0.027 A 
ENDBRANCH  13  17
BRANCH   1  24
HETATM   24  N1  UNL     1      26.256   0.399  51.953  1.00  0.00    -0.267 NA
HETATM   25  H1  UNL     1      26.602  -0.220  52.743  1.00  0.00     0.137 HD
HETATM   26  H2  UNL     1      26.686   0.152  51.037  1.00  0.00     0.137 HD
ENDBRANCH   1  24
TORSDOF 2
ENDMDL
MODEL 3
REMARK VINA RESULT:      -7.6      8.963     11.267
REMARK  2 active torsions:
REMARK  status: ('A' for Active; 'I' for Inactive)
REMARK    1  A    between atoms: N1_1  and  N2_2 
REMARK    2  A    between atoms: C9_14  and  C10_15 
ROOT
HETATM    1  N2  UNL     1      17.495   1.777  50.561  1.00  0.00    -0.231 NA
HETATM    2  C1  UNL     1      18.337   0.753  49.926  1.00  0.00     0.137 C 
HETATM    3  C2  UNL     1      19.764   1.034  50.327  1.00  0.00    -0.006 C 
HETATM    4  C3  UNL     1      20.561   1.271  49.295  1.00  0.00     0.073 C 
HETATM    5  C4  UNL     1      21.719   1.577  48.473  1.00  0.00     0.266 C 
HETATM    6  O1  UNL     1      22.593   1.807  47.603  1.00  0.00    -0.266 OA
HETATM    7  N3  UNL     1      22.655   1.878  49.512  1.00  0.00    -0.212 NA
HETATM    8  C5  UNL     1      22.441   2.896  50.311  1.00  0.00     0.080 A 
HETATM    9  C6  UNL     1      21.346   3.904  50.398  1.00  0.00     0.099 A 
HETATM   10  N4  UNL     1      21.422   4.835  51.273  1.00  0.00    -0.258 NA
HETATM   11  C7  UNL     1      22.490   4.987  52.196  1.00  0.00     0.114 A 
HETATM   12  C8  UNL     1      23.473   4.106  52.154  1.00  0.00     0.008 A 
HETATM   13  C9  UNL     1      23.569   2.958  51.225  1.00  0.00     0.097 A 
HETATM   14  C16 UNL     1      20.084   4.033  49.629  1.00  0.00     0.145 C 
HETATM   15  N5  UNL     1      19.223   3.312  50.249  1.00  0.00    -0.284 NA
HETATM   16  C17 UNL     1      17.854   3.065  49.957  1.00  0.00     0.256 C 
ENDROOT
BRANCH  13  17
HETATM   17  C10 UNL     1      23.754   1.746  52.053  1.00  0.00    -0.043 A 
HETATM   18  C11 UNL     1      24.990   1.131  52.114  1.00  0.00     0.008 A 
HETATM   19  C12 UNL     1      25.240  -0.016  52.874  1.00  0.00     0.002 A 
HETATM   20  C13 UNL     1      24.213  -0.567  53.599  1.00  0.00     0.019 A 
HETATM   21  C14 UNL     1      22.969   0.013  53.568  1.00  0.00     0.011 A 
HETATM   22 BR1  UNL     1      21.529  -0.748  54.577  1.00  0.00    -0.051 Br
HETATM   23  C15 UNL     1      22.728   1.160  52.805  1.00  0.00     0.027 A 
ENDBRANCH  13  17
BRANCH   1  24
HETATM   24  N1  UNL     1      17.681   1.788  51.942  1.00  0.00    -0.267 NA
HETATM   25  H1  UNL     1      17.493   0.812  52.315  1.00  0.00     0.137 HD
HETATM   26  H2  UNL     1      17.035   2.499  52.345  1.00  0.00     0.137 HD
ENDBRANCH   1  24
TORSDOF 2
ENDMDL
MODEL 4
REMARK VINA RESULT:      -7.5      7.059      9.489
REMARK  2 active torsions:
REMARK  status: ('A' for Active; 'I' for Inactive)
REMARK    1  A    between atoms: N1_1  and  N2_2 
REMARK    2  A    between atoms: C9_14  and  C10_15 
ROOT
HETATM    1  N2  UNL     1      25.112   6.705  50.165  1.00  0.00    -0.231 NA
HETATM    2  C1  UNL     1      24.255   6.593  51.354  1.00  0.00     0.137 C 
HETATM    3  C2  UNL     1      23.552   5.260  51.275  1.00  0.00    -0.006 C 
HETATM    4  C3  UNL     1      22.232   5.366  51.245  1.00  0.00     0.073 C 
HETATM    5  C4  UNL     1      20.812   5.060  51.189  1.00  0.00     0.266 C 
HETATM    6  O1  UNL     1      19.559   4.999  51.165  1.00  0.00    -0.266 OA
HETATM    7  N3  UNL     1      20.897   3.650  50.966  1.00  0.00    -0.212 NA
HETATM    8  C5  UNL     1      21.457   3.193  49.871  1.00  0.00     0.080 A 
HETATM    9  C6  UNL     1      22.086   3.864  48.697  1.00  0.00     0.099 A 
HETATM   10  N4  UNL     1      22.522   3.150  47.729  1.00  0.00    -0.258 NA
HETATM   11  C7  UNL     1      22.460   1.732  47.682  1.00  0.00     0.114 A 
HETATM   12  C8  UNL     1      21.917   1.103  48.709  1.00  0.00     0.008 A 
HETATM   13  C9  UNL     1      21.363   1.744  49.922  1.00  0.00     0.097 A 
HETATM   14  C16 UNL     1      22.345   5.300  48.425  1.00  0.00     0.145 C 
HETATM   15  N5  UNL     1      23.486   5.554  48.952  1.00  0.00    -0.284 NA
HETATM   16  C17 UNL     1      24.224   6.768  48.999  1.00  0.00     0.256 C 
ENDROOT
BRANCH  13  17
HETATM   17  C10 UNL     1      22.040   1.127  51.084  1.00  0.00    -0.043 A 
HETATM   18  C11 UNL     1      23.363   1.425  51.352  1.00  0.00     0.008 A 
HETATM   19  C12 UNL     1      24.069   0.882  52.430  1.00  0.00     0.002 A 
HETATM   20  C13 UNL     1      23.426   0.008  53.270  1.00  0.00     0.019 A 
HETATM   21  C14 UNL     1      22.112  -0.315  53.041  1.00  0.00     0.011 A 
HETATM   22 BR1  UNL     1      21.204  -1.535  54.208  1.00  0.00    -0.051 Br
HETATM   23  C15 UNL     1      21.413   0.233  51.960  1.00  0.00     0.027 A 
ENDBRANCH  13  17
BRANCH   1  24
HETATM   24  N1  UNL     1      25.993   5.628  50.083  1.00  0.00    -0.267 NA
HETATM   25  H1  UNL     1      25.500   4.762  50.449  1.00  0.00     0.137 HD
HETATM   26  H2  UNL     1      26.842   5.867  50.637  1.00  0.00     0.137 HD
ENDBRANCH   1  24
TORSDOF 2
ENDMDL
MODEL 5
REMARK VINA RESULT:      -7.1      5.405      8.301
REMARK  2 active torsions:
REMARK  status: ('A' for Active; 'I' for Inactive)
REMARK    1  A    between atoms: N1_1  and  N2_2 
REMARK    2  A    between atoms: C9_14  and  C10_15 
ROOT
HETATM    1  N2  UNL     1      22.990   2.107  52.443  1.00  0.00    -0.231 NA
HETATM    2  C1  UNL     1      23.298   1.680  51.070  1.00  0.00     0.137 C 
HETATM    3  C2  UNL     1      23.835   2.884  50.337  1.00  0.00    -0.006 C 
HETATM    4  C3  UNL     1      23.109   3.219  49.280  1.00  0.00     0.073 C 
HETATM    5  C4  UNL     1      22.605   3.892  48.095  1.00  0.00     0.266 C 
HETATM    6  O1  UNL     1      22.031   4.322  47.066  1.00  0.00    -0.266 OA
HETATM    7  N3  UNL     1      23.498   5.010  48.078  1.00  0.00    -0.212 NA
HETATM    8  C5  UNL     1      23.489   5.869  49.070  1.00  0.00     0.080 A 
HETATM    9  C6  UNL     1      22.695   5.958  50.329  1.00  0.00     0.099 A 
HETATM   10  N4  UNL     1      22.873   6.954  51.111  1.00  0.00    -0.258 NA
HETATM   11  C7  UNL     1      23.794   8.008  50.876  1.00  0.00     0.114 A 
HETATM   12  C8  UNL     1      24.522   7.958  49.775  1.00  0.00     0.008 A 
HETATM   13  C9  UNL     1      24.471   6.892  48.749  1.00  0.00     0.097 A 
HETATM   14  C16 UNL     1      21.683   5.036  50.903  1.00  0.00     0.145 C 
HETATM   15  N5  UNL     1      22.344   4.181  51.594  1.00  0.00    -0.284 NA
HETATM   16  C17 UNL     1      21.888   3.071  52.357  1.00  0.00     0.256 C 
ENDROOT
BRANCH  13  17
HETATM   17  C10 UNL     1      25.851   6.386  48.582  1.00  0.00    -0.043 A 
HETATM   18  C11 UNL     1      26.192   5.134  49.060  1.00  0.00     0.008 A 
HETATM   19  C12 UNL     1      27.474   4.589  48.940  1.00  0.00     0.002 A 
HETATM   20  C13 UNL     1      28.450   5.326  48.319  1.00  0.00     0.019 A 
HETATM   21  C14 UNL     1      28.155   6.574  47.829  1.00  0.00     0.011 A 
HETATM   22 BR1  UNL     1      29.512   7.611  46.959  1.00  0.00    -0.051 Br
HETATM   23  C15 UNL     1      26.870   7.112  47.953  1.00  0.00     0.027 A 
ENDBRANCH  13  17
BRANCH   1  24
HETATM   24  N1  UNL     1      24.112   2.663  53.055  1.00  0.00    -0.267 NA
HETATM   25  H1  UNL     1      23.843   2.972  54.035  1.00  0.00     0.137 HD
HETATM   26  H2  UNL     1      24.438   3.456  52.464  1.00  0.00     0.137 HD
ENDBRANCH   1  24
TORSDOF 2
ENDMDL
MODEL 6
REMARK VINA RESULT:      -7.1      1.617      2.108
REMARK  2 active torsions:
REMARK  status: ('A' for Active; 'I' for Inactive)
REMARK    1  A    between atoms: N1_1  and  N2_2 
REMARK    2  A    between atoms: C9_14  and  C10_15 
ROOT
HETATM    1  N2  UNL     1      32.731   5.210  48.041  1.00  0.00    -0.231 NA
HETATM    2  C1  UNL     1      32.384   5.879  49.303  1.00  0.00     0.137 C 
HETATM    3  C2  UNL     1      31.074   6.594  49.085  1.00  0.00    -0.006 C 
HETATM    4  C3  UNL     1      31.156   7.903  49.273  1.00  0.00     0.073 C 
HETATM    5  C4  UNL     1      30.836   9.317  49.374  1.00  0.00     0.266 C 
HETATM    6  O1  UNL     1      30.754  10.560  49.527  1.00  0.00    -0.266 OA
HETATM    7  N3  UNL     1      29.493   9.276  48.884  1.00  0.00    -0.212 NA
HETATM    8  C5  UNL     1      29.257   8.891  47.652  1.00  0.00     0.080 A 
HETATM    9  C6  UNL     1      30.145   8.442  46.542  1.00  0.00     0.099 A 
HETATM   10  N4  UNL     1      29.631   8.162  45.405  1.00  0.00    -0.258 NA
HETATM   11  C7  UNL     1      28.245   8.240  45.106  1.00  0.00     0.114 A 
HETATM   12  C8  UNL     1      27.426   8.626  46.068  1.00  0.00     0.008 A 
HETATM   13  C9  UNL     1      27.821   8.987  47.448  1.00  0.00     0.097 A 
HETATM   14  C16 UNL     1      31.612   8.217  46.504  1.00  0.00     0.145 C 
HETATM   15  N5  UNL     1      31.788   7.008  46.893  1.00  0.00    -0.284 NA
HETATM   16  C17 UNL     1      32.988   6.262  47.053  1.00  0.00     0.256 C 
ENDROOT
BRANCH  13  17
HETATM   17  C10 UNL     1      27.015   8.147  48.362  1.00  0.00    -0.043 A 
HETATM   18  C11 UNL     1      26.089   8.732  49.205  1.00  0.00     0.008 A 
HETATM   19  C12 UNL     1      25.294   8.004  50.095  1.00  0.00     0.002 A 
HETATM   20  C13 UNL     1      25.431   6.639  50.141  1.00  0.00     0.019 A 
HETATM   21  C14 UNL     1      26.338   6.017  49.321  1.00  0.00     0.011 A 
HETATM   22 BR1  UNL     1      26.538   4.112  49.378  1.00  0.00    -0.051 Br
HETATM   23  C15 UNL     1      27.131   6.753  48.433  1.00  0.00     0.027 A 
ENDBRANCH  13  17
BRANCH   1  24
HETATM   24  N1  UNL     1      31.706   4.359  47.630  1.00  0.00    -0.267 NA
HETATM   25  H1  UNL     1      30.859   4.531  48.246  1.00  0.00     0.137 HD
HETATM   26  H2  UNL     1      32.057   3.380  47.701  1.00  0.00     0.137 HD
ENDBRANCH   1  24
TORSDOF 2
ENDMDL
MODEL 7
REMARK VINA RESULT:      -7.0      5.792      8.852
REMARK  2 active torsions:
REMARK  status: ('A' for Active; 'I' for Inactive)
REMARK    1  A    between atoms: N1_1  and  N2_2 
REMARK    2  A    between atoms: C9_14  and  C10_15 
ROOT
HETATM    1  N2  UNL     1      20.745   6.914  50.369  1.00  0.00    -0.231 NA
HETATM    2  C1  UNL     1      20.405   5.485  50.434  1.00  0.00     0.137 C 
HETATM    3  C2  UNL     1      21.702   4.715  50.421  1.00  0.00    -0.006 C 
HETATM    4  C3  UNL     1      21.808   3.885  49.394  1.00  0.00     0.073 C 
HETATM    5  C4  UNL     1      22.299   2.897  48.448  1.00  0.00     0.266 C 
HETATM    6  O1  UNL     1      22.538   2.063  47.542  1.00  0.00    -0.266 OA
HETATM    7  N3  UNL     1      23.621   2.732  48.966  1.00  0.00    -0.212 NA
HETATM    8  C5  UNL     1      24.455   3.745  48.968  1.00  0.00     0.080 A 
HETATM    9  C6  UNL     1      24.333   5.160  48.516  1.00  0.00     0.099 A 
HETATM   10  N4  UNL     1      25.348   5.933  48.602  1.00  0.00    -0.258 NA
HETATM   11  C7  UNL     1      26.616   5.545  49.111  1.00  0.00     0.114 A 
HETATM   12  C8  UNL     1      26.759   4.301  49.529  1.00  0.00     0.008 A 
HETATM   13  C9  UNL     1      25.709   3.257  49.520  1.00  0.00     0.097 A 
HETATM   14  C16 UNL     1      23.172   5.907  47.971  1.00  0.00     0.145 C 
HETATM   15  N5  UNL     1      22.544   6.367  48.990  1.00  0.00    -0.284 NA
HETATM   16  C17 UNL     1      21.361   7.151  49.060  1.00  0.00     0.256 C 
ENDROOT
BRANCH  13  17
HETATM   17  C10 UNL     1      25.608   2.734  50.900  1.00  0.00    -0.043 A 
HETATM   18  C11 UNL     1      24.738   3.321  51.801  1.00  0.00     0.008 A 
HETATM   19  C12 UNL     1      24.588   2.883  53.120  1.00  0.00     0.002 A 
HETATM   20  C13 UNL     1      25.338   1.818  53.553  1.00  0.00     0.019 A 
HETATM   21  C14 UNL     1      26.214   1.206  52.692  1.00  0.00     0.011 A 
HETATM   22 BR1  UNL     1      27.265  -0.281  53.287  1.00  0.00    -0.051 Br
HETATM   23  C15 UNL     1      26.358   1.651  51.373  1.00  0.00     0.027 A 
ENDBRANCH  13  17
BRANCH   1  24
HETATM   24  N1  UNL     1      21.600   7.269  51.411  1.00  0.00    -0.267 NA
HETATM   25  H1  UNL     1      22.478   6.675  51.344  1.00  0.00     0.137 HD
HETATM   26  H2  UNL     1      21.089   7.124  52.307  1.00  0.00     0.137 HD
ENDBRANCH   1  24
TORSDOF 2
ENDMDL
MODEL 8
REMARK VINA RESULT:      -6.8      7.594     10.472
REMARK  2 active torsions:
REMARK  status: ('A' for Active; 'I' for Inactive)
REMARK    1  A    between atoms: N1_1  and  N2_2 
REMARK    2  A    between atoms: C9_14  and  C10_15 
ROOT
HETATM    1  N2  UNL     1      23.467   6.575  50.469  1.00  0.00    -0.231 NA
HETATM    2  C1  UNL     1      22.616   6.181  49.337  1.00  0.00     0.137 C 
HETATM    3  C2  UNL     1      22.046   4.822  49.658  1.00  0.00    -0.006 C 
HETATM    4  C3  UNL     1      22.379   3.892  48.774  1.00  0.00     0.073 C 
HETATM    5  C4  UNL     1      22.515   2.631  48.065  1.00  0.00     0.266 C 
HETATM    6  O1  UNL     1      22.735   1.652  47.313  1.00  0.00    -0.266 OA
HETATM    7  N3  UNL     1      21.867   1.775  49.010  1.00  0.00    -0.212 NA
HETATM    8  C5  UNL     1      22.372   1.625  50.212  1.00  0.00     0.080 A 
HETATM    9  C6  UNL     1      23.574   2.194  50.886  1.00  0.00     0.099 A 
HETATM   10  N4  UNL     1      23.853   1.828  52.079  1.00  0.00    -0.258 NA
HETATM   11  C7  UNL     1      23.088   0.903  52.838  1.00  0.00     0.114 A 
HETATM   12  C8  UNL     1      22.011   0.385  52.277  1.00  0.00     0.008 A 
HETATM   13  C9  UNL     1      21.516   0.682  50.914  1.00  0.00     0.097 A 
HETATM   14  C16 UNL     1      24.567   3.192  50.416  1.00  0.00     0.145 C 
HETATM   15  N5  UNL     1      24.078   4.339  50.719  1.00  0.00    -0.284 NA
HETATM   16  C17 UNL     1      24.598   5.643  50.503  1.00  0.00     0.256 C 
ENDROOT
BRANCH  13  17
HETATM   17  C10 UNL     1      20.109   1.118  51.050  1.00  0.00    -0.043 A 
HETATM   18  C11 UNL     1      19.819   2.393  51.500  1.00  0.00     0.008 A 
HETATM   19  C12 UNL     1      18.516   2.875  51.655  1.00  0.00     0.002 A 
HETATM   20  C13 UNL     1      17.464   2.049  51.349  1.00  0.00     0.019 A 
HETATM   21  C14 UNL     1      17.706   0.776  50.898  1.00  0.00     0.011 A 
HETATM   22 BR1  UNL     1      16.244  -0.385  50.466  1.00  0.00    -0.051 Br
HETATM   23  C15 UNL     1      19.013   0.301  50.746  1.00  0.00     0.027 A 
ENDBRANCH  13  17
BRANCH   1  24
HETATM   24  N1  UNL     1      22.748   6.554  51.663  1.00  0.00    -0.267 NA
HETATM   25  H1  UNL     1      21.792   6.981  51.488  1.00  0.00     0.137 HD
HETATM   26  H2  UNL     1      23.295   7.083  52.375  1.00  0.00     0.137 HD
ENDBRANCH   1  24
TORSDOF 2
ENDMDL
MODEL 9
REMARK VINA RESULT:      -6.8      2.583      3.191
REMARK  2 active torsions:
REMARK  status: ('A' for Active; 'I' for Inactive)
REMARK    1  A    between atoms: N1_1  and  N2_2 
REMARK    2  A    between atoms: C9_14  and  C10_15 
ROOT
HETATM    1  N2  UNL     1      33.334   3.647  45.688  1.00  0.00    -0.231 NA
HETATM    2  C1  UNL     1      32.248   3.497  46.667  1.00  0.00     0.137 C 
HETATM    3  C2  UNL     1      31.796   4.884  47.050  1.00  0.00    -0.006 C 
HETATM    4  C3  UNL     1      31.929   5.139  48.344  1.00  0.00     0.073 C 
HETATM    5  C4  UNL     1      31.918   5.793  49.642  1.00  0.00     0.266 C 
HETATM    6  O1  UNL     1      31.972   6.175  50.835  1.00  0.00    -0.266 OA
HETATM    7  N3  UNL     1      31.529   7.105  49.226  1.00  0.00    -0.212 NA
HETATM    8  C5  UNL     1      32.307   7.796  48.427  1.00  0.00     0.080 A 
HETATM    9  C6  UNL     1      33.623   7.504  47.790  1.00  0.00     0.099 A 
HETATM   10  N4  UNL     1      34.184   8.404  47.074  1.00  0.00    -0.258 NA
HETATM   11  C7  UNL     1      33.638   9.691  46.826  1.00  0.00     0.114 A 
HETATM   12  C8  UNL     1      32.469   9.982  47.366  1.00  0.00     0.008 A 
HETATM   13  C9  UNL     1      31.660   9.081  48.217  1.00  0.00     0.097 A 
HETATM   14  C16 UNL     1      34.456   6.276  47.806  1.00  0.00     0.145 C 
HETATM   15  N5  UNL     1      34.030   5.554  46.835  1.00  0.00    -0.284 NA
HETATM   16  C17 UNL     1      34.460   4.275  46.387  1.00  0.00     0.256 C 
ENDROOT
BRANCH  13  17
HETATM   17  C10 UNL     1      30.316   8.997  47.602  1.00  0.00    -0.043 A 
HETATM   18  C11 UNL     1      30.145   8.333  46.402  1.00  0.00     0.008 A 
HETATM   19  C12 UNL     1      28.908   8.212  45.761  1.00  0.00     0.002 A 
HETATM   20  C13 UNL     1      27.802   8.779  46.345  1.00  0.00     0.019 A 
HETATM   21  C14 UNL     1      27.927   9.447  47.537  1.00  0.00     0.011 A 
HETATM   22 BR1  UNL     1      26.390  10.241  48.359  1.00  0.00    -0.051 Br
HETATM   23  C15 UNL     1      29.169   9.563  48.171  1.00  0.00     0.027 A 
ENDBRANCH  13  17
BRANCH   1  24
HETATM   24  N1  UNL     1      32.919   4.406  44.596  1.00  0.00    -0.267 NA
HETATM   25  H1  UNL     1      33.769   4.883  44.174  1.00  0.00     0.137 HD
HETATM   26  H2  UNL     1      32.208   5.088  44.933  1.00  0.00     0.137 HD
ENDBRANCH   1  24
TORSDOF 2
ENDMDL
