MODEL 1
REMARK VINA RESULT:      -8.5      0.000      0.000
REMARK  7 active torsions:
REMARK  status: ('A' for Active; 'I' for Inactive)
REMARK    1  A    between atoms: C2_2  and  C3_3 
REMARK    2  A    between atoms: C7_9  and  N3_10 
REMARK    3  A    between atoms: N3_10  and  C8_11 
REMARK    4  A    between atoms: C14_18  and  C15_19 
REMARK    5  A    between atoms: C15_19  and  C16_20 
REMARK    6  A    between atoms: C16_20  and  N4_21 
REMARK       I    between atoms: N4_21  and  C17_22 
REMARK    7  A    between atoms: C17_22  and  C18_24 
ROOT
HETATM    1  C3  UNL     1      26.285   1.122  53.179  1.00  0.00    -0.004 A 
HETATM    2  C4  UNL     1      26.438  -0.270  53.285  1.00  0.00     0.073 A 
HETATM    3  C5  UNL     1      27.711  -0.926  53.320  1.00  0.00     0.102 C 
HETATM    4  N1  UNL     1      28.738  -1.440  53.335  1.00  0.00    -0.191 NA
HETATM    5  C6  UNL     1      25.325  -1.059  53.353  1.00  0.00     0.142 A 
HETATM    6  N2  UNL     1      24.139  -0.478  53.318  1.00  0.00    -0.241 NA
HETATM    7  C7  UNL     1      23.956   0.834  53.216  1.00  0.00     0.138 A 
HETATM    8  C14 UNL     1      25.037   1.682  53.140  1.00  0.00     0.019 A 
ENDROOT
BRANCH   1   9
HETATM    9  C2  UNL     1      27.367   1.892  53.221  1.00  0.00    -0.017 C 
HETATM   10  C1  UNL     1      28.620   2.559  53.574  1.00  0.00     0.037 C 
ENDBRANCH   1   9
BRANCH   8  11
HETATM   11  C15 UNL     1      24.716   2.920  52.878  1.00  0.00     0.009 C 
BRANCH  11  12
HETATM   12  C16 UNL     1      24.305   3.865  51.832  1.00  0.00     0.151 C 
BRANCH  12  13
HETATM   13  N4  UNL     1      25.432   4.427  51.073  1.00  0.00    -0.352 N 
HETATM   14  C17 UNL     1      25.547   4.385  49.667  1.00  0.00     0.275 C 
HETATM   15  O1  UNL     1      24.588   3.818  49.112  1.00  0.00    -0.265 OA
HETATM   16  H14 UNL     1      26.174   4.880  51.681  1.00  0.00     0.163 HD
BRANCH  14  17
HETATM   17  C18 UNL     1      26.718   4.993  49.054  1.00  0.00     0.142 A 
HETATM   18  C19 UNL     1      26.717   6.297  48.596  1.00  0.00     0.045 A 
HETATM   19  C20 UNL     1      27.983   6.509  48.090  1.00  0.00     0.027 A 
HETATM   20  C21 UNL     1      28.693   5.314  48.266  1.00  0.00     0.143 A 
HETATM   21  O2  UNL     1      27.875   4.460  48.846  1.00  0.00    -0.317 OA
ENDBRANCH  14  17
ENDBRANCH  12  13
ENDBRANCH  11  12
ENDBRANCH   8  11
BRANCH   7  22
HETATM   22  N3  UNL     1      22.565   1.199  53.209  1.00  0.00    -0.340 N 
HETATM   23  H6  UNL     1      21.930   1.604  53.964  1.00  0.00     0.167 HD
BRANCH  22  24
HETATM   24  C8  UNL     1      21.729   1.066  52.069  1.00  0.00     0.035 A 
HETATM   25  C9  UNL     1      20.441   0.621  52.258  1.00  0.00     0.029 A 
HETATM   26  C10 UNL     1      19.577   0.497  51.156  1.00  0.00     0.004 A 
HETATM   27  C11 UNL     1      19.953   0.802  49.871  1.00  0.00     0.019 A 
HETATM   28  C12 UNL     1      21.243   1.245  49.700  1.00  0.00     0.013 A 
HETATM   29 BR1  UNL     1      21.918   1.710  47.979  1.00  0.00    -0.051 Br
HETATM   30  C13 UNL     1      22.105   1.374  50.758  1.00  0.00     0.048 A 
ENDBRANCH  22  24
ENDBRANCH   7  22
TORSDOF 7
ENDMDL
MODEL 2
REMARK VINA RESULT:      -8.3      2.547      5.409
REMARK  7 active torsions:
REMARK  status: ('A' for Active; 'I' for Inactive)
REMARK    1  A    between atoms: C2_2  and  C3_3 
REMARK    2  A    between atoms: C7_9  and  N3_10 
REMARK    3  A    between atoms: N3_10  and  C8_11 
REMARK    4  A    between atoms: C14_18  and  C15_19 
REMARK    5  A    between atoms: C15_19  and  C16_20 
REMARK    6  A    between atoms: C16_20  and  N4_21 
REMARK       I    between atoms: N4_21  and  C17_22 
REMARK    7  A    between atoms: C17_22  and  C18_24 
ROOT
HETATM    1  C3  UNL     1      22.349   0.800  52.763  1.00  0.00    -0.004 A 
HETATM    2  C4  UNL     1      22.481  -0.388  53.499  1.00  0.00     0.073 A 
HETATM    3  C5  UNL     1      21.384  -1.042  54.148  1.00  0.00     0.102 C 
HETATM    4  N1  UNL     1      20.498  -1.551  54.675  1.00  0.00    -0.191 NA
HETATM    5  C6  UNL     1      23.714  -0.963  53.620  1.00  0.00     0.142 A 
HETATM    6  N2  UNL     1      24.742  -0.375  53.034  1.00  0.00    -0.241 NA
HETATM    7  C7  UNL     1      24.655   0.749  52.333  1.00  0.00     0.138 A 
HETATM    8  C14 UNL     1      23.441   1.379  52.177  1.00  0.00     0.019 A 
ENDROOT
BRANCH   1   9
HETATM    9  C2  UNL     1      21.134   1.298  52.559  1.00  0.00    -0.017 C 
HETATM   10  C1  UNL     1      19.780   1.584  52.085  1.00  0.00     0.037 C 
ENDBRANCH   1   9
BRANCH   8  11
HETATM   11  C15 UNL     1      23.527   2.552  51.610  1.00  0.00     0.009 C 
BRANCH  11  12
HETATM   12  C16 UNL     1      23.818   3.976  51.820  1.00  0.00     0.151 C 
BRANCH  12  13
HETATM   13  N4  UNL     1      25.009   4.444  51.095  1.00  0.00    -0.352 N 
HETATM   14  C17 UNL     1      24.983   5.015  49.805  1.00  0.00     0.275 C 
HETATM   15  O1  UNL     1      23.838   5.090  49.322  1.00  0.00    -0.265 OA
HETATM   16  H14 UNL     1      25.915   4.317  51.632  1.00  0.00     0.163 HD
BRANCH  14  17
HETATM   17  C18 UNL     1      26.243   5.442  49.217  1.00  0.00     0.142 A 
HETATM   18  C19 UNL     1      27.261   4.552  48.930  1.00  0.00     0.045 A 
HETATM   19  C20 UNL     1      28.276   5.317  48.393  1.00  0.00     0.027 A 
HETATM   20  C21 UNL     1      27.821   6.642  48.382  1.00  0.00     0.143 A 
HETATM   21  O2  UNL     1      26.604   6.636  48.887  1.00  0.00    -0.317 OA
ENDBRANCH  14  17
ENDBRANCH  12  13
ENDBRANCH  11  12
ENDBRANCH   8  11
BRANCH   7  22
HETATM   22  N3  UNL     1      25.923   1.165  51.796  1.00  0.00    -0.340 N 
HETATM   23  H6  UNL     1      26.208   1.520  50.832  1.00  0.00     0.167 HD
BRANCH  22  24
HETATM   24  C8  UNL     1      27.125   1.171  52.551  1.00  0.00     0.035 A 
HETATM   25  C9  UNL     1      27.535   2.360  53.110  1.00  0.00     0.029 A 
HETATM   26  C10 UNL     1      28.709   2.401  53.881  1.00  0.00     0.004 A 
HETATM   27  C11 UNL     1      29.489   1.296  54.117  1.00  0.00     0.019 A 
HETATM   28  C12 UNL     1      29.066   0.116  53.553  1.00  0.00     0.013 A 
HETATM   29 BR1  UNL     1      30.038  -1.507  53.787  1.00  0.00    -0.051 Br
HETATM   30  C13 UNL     1      27.925   0.050  52.795  1.00  0.00     0.048 A 
ENDBRANCH  22  24
ENDBRANCH   7  22
TORSDOF 7
ENDMDL
MODEL 3
REMARK VINA RESULT:      -8.1      2.953      6.285
REMARK  7 active torsions:
REMARK  status: ('A' for Active; 'I' for Inactive)
REMARK    1  A    between atoms: C2_2  and  C3_3 
REMARK    2  A    between atoms: C7_9  and  N3_10 
REMARK    3  A    between atoms: N3_10  and  C8_11 
REMARK    4  A    between atoms: C14_18  and  C15_19 
REMARK    5  A    between atoms: C15_19  and  C16_20 
REMARK    6  A    between atoms: C16_20  and  N4_21 
REMARK       I    between atoms: N4_21  and  C17_22 
REMARK    7  A    between atoms: C17_22  and  C18_24 
ROOT
HETATM    1  C3  UNL     1      21.357   0.304  52.517  1.00  0.00    -0.004 A 
HETATM    2  C4  UNL     1      20.045   0.228  52.022  1.00  0.00     0.073 A 
HETATM    3  C5  UNL     1      18.977  -0.433  52.711  1.00  0.00     0.102 C 
HETATM    4  N1  UNL     1      18.131  -0.977  53.267  1.00  0.00    -0.191 NA
HETATM    5  C6  UNL     1      19.754   0.802  50.818  1.00  0.00     0.142 A 
HETATM    6  N2  UNL     1      20.724   1.413  50.161  1.00  0.00    -0.241 NA
HETATM    7  C7  UNL     1      21.976   1.503  50.597  1.00  0.00     0.138 A 
HETATM    8  C14 UNL     1      22.333   0.941  51.801  1.00  0.00     0.019 A 
ENDROOT
BRANCH   1   9
HETATM    9  C2  UNL     1      21.612  -0.162  53.735  1.00  0.00    -0.017 C 
HETATM   10  C1  UNL     1      21.776  -0.985  54.933  1.00  0.00     0.037 C 
ENDBRANCH   1   9
BRANCH   8  11
HETATM   11  C15 UNL     1      23.619   0.960  52.028  1.00  0.00     0.009 C 
BRANCH  11  12
HETATM   12  C16 UNL     1      24.678   1.418  52.936  1.00  0.00     0.151 C 
BRANCH  12  13
HETATM   13  N4  UNL     1      25.847   0.526  52.970  1.00  0.00    -0.352 N 
HETATM   14  C17 UNL     1      27.067   0.835  53.610  1.00  0.00     0.275 C 
HETATM   15  O1  UNL     1      27.067   1.953  54.156  1.00  0.00    -0.265 OA
HETATM   16  H14 UNL     1      25.700  -0.393  52.463  1.00  0.00     0.163 HD
BRANCH  14  17
HETATM   17  C18 UNL     1      28.134  -0.153  53.568  1.00  0.00     0.142 A 
HETATM   18  C19 UNL     1      29.458   0.184  53.775  1.00  0.00     0.045 A 
HETATM   19  C20 UNL     1      30.160  -0.998  53.659  1.00  0.00     0.027 A 
HETATM   20  C21 UNL     1      29.220  -2.000  53.384  1.00  0.00     0.143 A 
HETATM   21  O2  UNL     1      28.038  -1.420  53.346  1.00  0.00    -0.317 OA
ENDBRANCH  14  17
ENDBRANCH  12  13
ENDBRANCH  11  12
ENDBRANCH   8  11
BRANCH   7  22
HETATM   22  N3  UNL     1      22.825   2.228  49.692  1.00  0.00    -0.340 N 
HETATM   23  H6  UNL     1      23.223   1.981  48.733  1.00  0.00     0.167 HD
BRANCH  22  24
HETATM   24  C8  UNL     1      23.319   3.532  49.961  1.00  0.00     0.035 A 
HETATM   25  C9  UNL     1      22.635   4.311  50.865  1.00  0.00     0.029 A 
HETATM   26  C10 UNL     1      23.105   5.600  51.172  1.00  0.00     0.004 A 
HETATM   27  C11 UNL     1      24.236   6.138  50.610  1.00  0.00     0.019 A 
HETATM   28  C12 UNL     1      24.909   5.346  49.710  1.00  0.00     0.013 A 
HETATM   29 BR1  UNL     1      26.497   5.948  48.844  1.00  0.00    -0.051 Br
HETATM   30  C13 UNL     1      24.470   4.087  49.392  1.00  0.00     0.048 A 
ENDBRANCH  22  24
ENDBRANCH   7  22
TORSDOF 7
ENDMDL
MODEL 4
REMARK VINA RESULT:      -8.1      3.015      7.117
REMARK  7 active torsions:
REMARK  status: ('A' for Active; 'I' for Inactive)
REMARK    1  A    between atoms: C2_2  and  C3_3 
REMARK    2  A    between atoms: C7_9  and  N3_10 
REMARK    3  A    between atoms: N3_10  and  C8_11 
REMARK    4  A    between atoms: C14_18  and  C15_19 
REMARK    5  A    between atoms: C15_19  and  C16_20 
REMARK    6  A    between atoms: C16_20  and  N4_21 
REMARK       I    between atoms: N4_21  and  C17_22 
REMARK    7  A    between atoms: C17_22  and  C18_24 
ROOT
HETATM    1  C3  UNL     1      25.378   5.518  50.069  1.00  0.00    -0.004 A 
HETATM    2  C4  UNL     1      26.482   5.470  49.202  1.00  0.00     0.073 A 
HETATM    3  C5  UNL     1      26.982   6.610  48.493  1.00  0.00     0.102 C 
HETATM    4  N1  UNL     1      27.364   7.530  47.921  1.00  0.00    -0.191 NA
HETATM    5  C6  UNL     1      27.124   4.281  49.006  1.00  0.00     0.142 A 
HETATM    6  N2  UNL     1      26.679   3.213  49.645  1.00  0.00    -0.241 NA
HETATM    7  C7  UNL     1      25.637   3.220  50.470  1.00  0.00     0.138 A 
HETATM    8  C14 UNL     1      24.946   4.387  50.706  1.00  0.00     0.019 A 
ENDROOT
BRANCH   1   9
HETATM    9  C2  UNL     1      24.824   6.695  50.338  1.00  0.00    -0.017 C 
HETATM   10  C1  UNL     1      23.910   7.796  50.642  1.00  0.00     0.037 C 
ENDBRANCH   1   9
BRANCH   8  11
HETATM   11  C15 UNL     1      23.854   4.219  51.401  1.00  0.00     0.009 C 
BRANCH  11  12
HETATM   12  C16 UNL     1      22.476   3.710  51.380  1.00  0.00     0.151 C 
BRANCH  12  13
HETATM   13  N4  UNL     1      22.240   2.621  52.339  1.00  0.00    -0.352 N 
HETATM   14  C17 UNL     1      22.227   1.250  52.002  1.00  0.00     0.275 C 
HETATM   15  O1  UNL     1      22.437   1.039  50.794  1.00  0.00    -0.265 OA
HETATM   16  H14 UNL     1      22.076   2.953  53.333  1.00  0.00     0.163 HD
BRANCH  14  17
HETATM   17  C18 UNL     1      21.988   0.284  53.063  1.00  0.00     0.142 A 
HETATM   18  C19 UNL     1      23.016  -0.415  53.667  1.00  0.00     0.045 A 
HETATM   19  C20 UNL     1      22.408  -1.222  54.607  1.00  0.00     0.027 A 
HETATM   20  C21 UNL     1      21.032  -0.972  54.524  1.00  0.00     0.143 A 
HETATM   21  O2  UNL     1      20.860  -0.065  53.584  1.00  0.00    -0.317 OA
ENDBRANCH  14  17
ENDBRANCH  12  13
ENDBRANCH  11  12
ENDBRANCH   8  11
BRANCH   7  22
HETATM   22  N3  UNL     1      25.373   1.926  51.038  1.00  0.00    -0.340 N 
HETATM   23  H6  UNL     1      24.698   1.148  50.759  1.00  0.00     0.167 HD
BRANCH  22  24
HETATM   24  C8  UNL     1      26.046   1.425  52.183  1.00  0.00     0.035 A 
HETATM   25  C9  UNL     1      25.752   1.983  53.405  1.00  0.00     0.029 A 
HETATM   26  C10 UNL     1      26.383   1.499  54.564  1.00  0.00     0.004 A 
HETATM   27  C11 UNL     1      27.297   0.475  54.547  1.00  0.00     0.019 A 
HETATM   28  C12 UNL     1      27.579  -0.073  53.319  1.00  0.00     0.013 A 
HETATM   29 BR1  UNL     1      28.826  -1.502  53.126  1.00  0.00    -0.051 Br
HETATM   30  C13 UNL     1      26.979   0.383  52.173  1.00  0.00     0.048 A 
ENDBRANCH  22  24
ENDBRANCH   7  22
TORSDOF 7
ENDMDL
MODEL 5
REMARK VINA RESULT:      -8.0      2.973      7.067
REMARK  7 active torsions:
REMARK  status: ('A' for Active; 'I' for Inactive)
REMARK    1  A    between atoms: C2_2  and  C3_3 
REMARK    2  A    between atoms: C7_9  and  N3_10 
REMARK    3  A    between atoms: N3_10  and  C8_11 
REMARK    4  A    between atoms: C14_18  and  C15_19 
REMARK    5  A    between atoms: C15_19  and  C16_20 
REMARK    6  A    between atoms: C16_20  and  N4_21 
REMARK       I    between atoms: N4_21  and  C17_22 
REMARK    7  A    between atoms: C17_22  and  C18_24 
ROOT
HETATM    1  C3  UNL     1      24.822   1.009  52.769  1.00  0.00    -0.004 A 
HETATM    2  C4  UNL     1      26.154   1.065  53.210  1.00  0.00     0.073 A 
HETATM    3  C5  UNL     1      26.632   0.377  54.372  1.00  0.00     0.102 C 
HETATM    4  N1  UNL     1      27.001  -0.170  55.313  1.00  0.00    -0.191 NA
HETATM    5  C6  UNL     1      27.055   1.816  52.511  1.00  0.00     0.142 A 
HETATM    6  N2  UNL     1      26.637   2.464  51.439  1.00  0.00    -0.241 NA
HETATM    7  C7  UNL     1      25.385   2.436  50.994  1.00  0.00     0.138 A 
HETATM    8  C14 UNL     1      24.429   1.701  51.657  1.00  0.00     0.019 A 
ENDROOT
BRANCH   1   9
HETATM    9  C2  UNL     1      23.974   0.194  53.389  1.00  0.00    -0.017 C 
HETATM   10  C1  UNL     1      22.966  -0.808  53.734  1.00  0.00     0.037 C 
ENDBRANCH   1   9
BRANCH   8  11
HETATM   11  C15 UNL     1      23.217   1.893  51.212  1.00  0.00     0.009 C 
BRANCH  11  12
HETATM   12  C16 UNL     1      22.164   1.390  50.320  1.00  0.00     0.151 C 
BRANCH  12  13
HETATM   13  N4  UNL     1      21.147   0.582  51.010  1.00  0.00    -0.352 N 
HETATM   14  C17 UNL     1      19.789   0.945  51.131  1.00  0.00     0.275 C 
HETATM   15  O1  UNL     1      19.520   2.033  50.590  1.00  0.00    -0.265 OA
HETATM   16  H14 UNL     1      21.523  -0.320  51.422  1.00  0.00     0.163 HD
BRANCH  14  17
HETATM   17  C18 UNL     1      18.896   0.038  51.836  1.00  0.00     0.142 A 
HETATM   18  C19 UNL     1      19.256  -0.580  53.018  1.00  0.00     0.045 A 
HETATM   19  C20 UNL     1      18.168  -1.349  53.376  1.00  0.00     0.027 A 
HETATM   20  C21 UNL     1      17.195  -1.159  52.386  1.00  0.00     0.143 A 
HETATM   21  O2  UNL     1      17.701  -0.321  51.504  1.00  0.00    -0.317 OA
ENDBRANCH  14  17
ENDBRANCH  12  13
ENDBRANCH  11  12
ENDBRANCH   8  11
BRANCH   7  22
HETATM   22  N3  UNL     1      25.204   3.222  49.803  1.00  0.00    -0.340 N 
HETATM   23  H6  UNL     1      24.801   2.982  48.845  1.00  0.00     0.167 HD
BRANCH  22  24
HETATM   24  C8  UNL     1      25.572   4.590  49.708  1.00  0.00     0.035 A 
HETATM   25  C9  UNL     1      24.848   5.508  50.432  1.00  0.00     0.029 A 
HETATM   26  C10 UNL     1      25.195   6.869  50.379  1.00  0.00     0.004 A 
HETATM   27  C11 UNL     1      26.242   7.346  49.629  1.00  0.00     0.019 A 
HETATM   28  C12 UNL     1      26.955   6.416  48.912  1.00  0.00     0.013 A 
HETATM   29 BR1  UNL     1      28.437   6.918  47.823  1.00  0.00    -0.051 Br
HETATM   30  C13 UNL     1      26.635   5.083  48.946  1.00  0.00     0.048 A 
ENDBRANCH  22  24
ENDBRANCH   7  22
TORSDOF 7
ENDMDL
MODEL 6
REMARK VINA RESULT:      -8.0      3.141      6.548
REMARK  7 active torsions:
REMARK  status: ('A' for Active; 'I' for Inactive)
REMARK    1  A    between atoms: C2_2  and  C3_3 
REMARK    2  A    between atoms: C7_9  and  N3_10 
REMARK    3  A    between atoms: N3_10  and  C8_11 
REMARK    4  A    between atoms: C14_18  and  C15_19 
REMARK    5  A    between atoms: C15_19  and  C16_20 
REMARK    6  A    between atoms: C16_20  and  N4_21 
REMARK       I    between atoms: N4_21  and  C17_22 
REMARK    7  A    between atoms: C17_22  and  C18_24 
ROOT
HETATM    1  C3  UNL     1      22.486   1.610  52.759  1.00  0.00    -0.004 A 
HETATM    2  C4  UNL     1      21.157   1.884  52.397  1.00  0.00     0.073 A 
HETATM    3  C5  UNL     1      20.115   0.901  52.411  1.00  0.00     0.102 C 
HETATM    4  N1  UNL     1      19.290   0.101  52.415  1.00  0.00    -0.191 NA
HETATM    5  C6  UNL     1      20.822   3.147  52.002  1.00  0.00     0.142 A 
HETATM    6  N2  UNL     1      21.767   4.070  51.977  1.00  0.00    -0.241 NA
HETATM    7  C7  UNL     1      23.034   3.846  52.309  1.00  0.00     0.138 A 
HETATM    8  C14 UNL     1      23.436   2.593  52.712  1.00  0.00     0.019 A 
ENDROOT
BRANCH   1   9
HETATM    9  C2  UNL     1      22.785   0.409  53.243  1.00  0.00    -0.017 C 
HETATM   10  C1  UNL     1      22.958  -0.782  54.075  1.00  0.00     0.037 C 
ENDBRANCH   1   9
BRANCH   8  11
HETATM   11  C15 UNL     1      24.728   2.475  52.848  1.00  0.00     0.009 C 
BRANCH  11  12
HETATM   12  C16 UNL     1      25.846   2.461  53.801  1.00  0.00     0.151 C 
BRANCH  12  13
HETATM   13  N4  UNL     1      26.848   1.424  53.515  1.00  0.00    -0.352 N 
HETATM   14  C17 UNL     1      27.050   0.271  54.303  1.00  0.00     0.275 C 
HETATM   15  O1  UNL     1      26.287   0.206  55.284  1.00  0.00    -0.265 OA
HETATM   16  H14 UNL     1      27.425   1.614  52.645  1.00  0.00     0.163 HD
BRANCH  14  17
HETATM   17  C18 UNL     1      28.075  -0.675  53.888  1.00  0.00     0.142 A 
HETATM   18  C19 UNL     1      29.422  -0.378  53.960  1.00  0.00     0.045 A 
HETATM   19  C20 UNL     1      30.070  -1.501  53.487  1.00  0.00     0.027 A 
HETATM   20  C21 UNL     1      29.077  -2.429  53.149  1.00  0.00     0.143 A 
HETATM   21  O2  UNL     1      27.916  -1.865  53.416  1.00  0.00    -0.317 OA
ENDBRANCH  14  17
ENDBRANCH  12  13
ENDBRANCH  11  12
ENDBRANCH   8  11
BRANCH   7  22
HETATM   22  N3  UNL     1      23.850   5.026  52.201  1.00  0.00    -0.340 N 
HETATM   23  H6  UNL     1      24.314   5.643  52.937  1.00  0.00     0.167 HD
BRANCH  22  24
HETATM   24  C8  UNL     1      24.208   5.616  50.960  1.00  0.00     0.035 A 
HETATM   25  C9  UNL     1      25.147   4.976  50.184  1.00  0.00     0.029 A 
HETATM   26  C10 UNL     1      25.511   5.519  48.940  1.00  0.00     0.004 A 
HETATM   27  C11 UNL     1      24.970   6.678  48.441  1.00  0.00     0.019 A 
HETATM   28  C12 UNL     1      24.033   7.304  49.228  1.00  0.00     0.013 A 
HETATM   29 BR1  UNL     1      23.187   8.921  48.677  1.00  0.00    -0.051 Br
HETATM   30  C13 UNL     1      23.661   6.795  50.446  1.00  0.00     0.048 A 
ENDBRANCH  22  24
ENDBRANCH   7  22
TORSDOF 7
ENDMDL
MODEL 7
REMARK VINA RESULT:      -8.0      3.417      6.124
REMARK  7 active torsions:
REMARK  status: ('A' for Active; 'I' for Inactive)
REMARK    1  A    between atoms: C2_2  and  C3_3 
REMARK    2  A    between atoms: C7_9  and  N3_10 
REMARK    3  A    between atoms: N3_10  and  C8_11 
REMARK    4  A    between atoms: C14_18  and  C15_19 
REMARK    5  A    between atoms: C15_19  and  C16_20 
REMARK    6  A    between atoms: C16_20  and  N4_21 
REMARK       I    between atoms: N4_21  and  C17_22 
REMARK    7  A    between atoms: C17_22  and  C18_24 
ROOT
HETATM    1  C3  UNL     1      26.705  -0.023  53.187  1.00  0.00    -0.004 A 
HETATM    2  C4  UNL     1      27.792   0.844  53.383  1.00  0.00     0.073 A 
HETATM    3  C5  UNL     1      29.149   0.400  53.499  1.00  0.00     0.102 C 
HETATM    4  N1  UNL     1      30.231   0.029  53.603  1.00  0.00    -0.191 NA
HETATM    5  C6  UNL     1      27.563   2.188  53.478  1.00  0.00     0.142 A 
HETATM    6  N2  UNL     1      26.319   2.622  53.379  1.00  0.00    -0.241 NA
HETATM    7  C7  UNL     1      25.267   1.831  53.196  1.00  0.00     0.138 A 
HETATM    8  C14 UNL     1      25.432   0.468  53.096  1.00  0.00     0.019 A 
ENDROOT
BRANCH   1   9
HETATM    9  C2  UNL     1      26.943  -1.315  52.989  1.00  0.00    -0.017 C 
HETATM   10  C1  UNL     1      27.212  -2.638  52.424  1.00  0.00     0.037 C 
ENDBRANCH   1   9
BRANCH   8  11
HETATM   11  C15 UNL     1      24.309  -0.197  53.084  1.00  0.00     0.009 C 
BRANCH  11  12
HETATM   12  C16 UNL     1      23.215  -0.735  53.903  1.00  0.00     0.151 C 
BRANCH  12  13
HETATM   13  N4  UNL     1      21.918  -0.755  53.211  1.00  0.00    -0.352 N 
HETATM   14  C17 UNL     1      20.721  -0.231  53.745  1.00  0.00     0.275 C 
HETATM   15  O1  UNL     1      20.862   0.260  54.880  1.00  0.00    -0.265 OA
HETATM   16  H14 UNL     1      21.952  -1.205  52.251  1.00  0.00     0.163 HD
BRANCH  14  17
HETATM   17  C18 UNL     1      19.514  -0.313  52.937  1.00  0.00     0.142 A 
HETATM   18  C19 UNL     1      19.449   0.201  51.656  1.00  0.00     0.045 A 
HETATM   19  C20 UNL     1      18.166  -0.063  51.220  1.00  0.00     0.027 A 
HETATM   20  C21 UNL     1      17.513  -0.728  52.266  1.00  0.00     0.143 A 
HETATM   21  O2  UNL     1      18.379  -0.840  53.253  1.00  0.00    -0.317 OA
ENDBRANCH  14  17
ENDBRANCH  12  13
ENDBRANCH  11  12
ENDBRANCH   8  11
BRANCH   7  22
HETATM   22  N3  UNL     1      24.032   2.564  53.114  1.00  0.00    -0.340 N 
HETATM   23  H6  UNL     1      23.283   2.782  53.842  1.00  0.00     0.167 HD
BRANCH  22  24
HETATM   24  C8  UNL     1      23.568   3.181  51.923  1.00  0.00     0.035 A 
HETATM   25  C9  UNL     1      23.534   4.555  51.875  1.00  0.00     0.029 A 
HETATM   26  C10 UNL     1      23.101   5.202  50.705  1.00  0.00     0.004 A 
HETATM   27  C11 UNL     1      22.701   4.525  49.579  1.00  0.00     0.019 A 
HETATM   28  C12 UNL     1      22.742   3.153  49.643  1.00  0.00     0.013 A 
HETATM   29 BR1  UNL     1      22.221   2.069  48.164  1.00  0.00    -0.051 Br
HETATM   30  C13 UNL     1      23.160   2.498  50.773  1.00  0.00     0.048 A 
ENDBRANCH  22  24
ENDBRANCH   7  22
TORSDOF 7
ENDMDL
MODEL 8
REMARK VINA RESULT:      -7.9      2.942      5.482
REMARK  7 active torsions:
REMARK  status: ('A' for Active; 'I' for Inactive)
REMARK    1  A    between atoms: C2_2  and  C3_3 
REMARK    2  A    between atoms: C7_9  and  N3_10 
REMARK    3  A    between atoms: N3_10  and  C8_11 
REMARK    4  A    between atoms: C14_18  and  C15_19 
REMARK    5  A    between atoms: C15_19  and  C16_20 
REMARK    6  A    between atoms: C16_20  and  N4_21 
REMARK       I    between atoms: N4_21  and  C17_22 
REMARK    7  A    between atoms: C17_22  and  C18_24 
ROOT
HETATM    1  C3  UNL     1      25.084   0.922  52.697  1.00  0.00    -0.004 A 
HETATM    2  C4  UNL     1      26.435   1.043  53.060  1.00  0.00     0.073 A 
HETATM    3  C5  UNL     1      27.028   0.332  54.154  1.00  0.00     0.102 C 
HETATM    4  N1  UNL     1      27.488  -0.235  55.041  1.00  0.00    -0.191 NA
HETATM    5  C6  UNL     1      27.243   1.884  52.349  1.00  0.00     0.142 A 
HETATM    6  N2  UNL     1      26.718   2.555  51.339  1.00  0.00    -0.241 NA
HETATM    7  C7  UNL     1      25.445   2.467  50.969  1.00  0.00     0.138 A 
HETATM    8  C14 UNL     1      24.580   1.640  51.648  1.00  0.00     0.019 A 
ENDROOT
BRANCH   1   9
HETATM    9  C2  UNL     1      24.330   0.025  53.323  1.00  0.00    -0.017 C 
HETATM   10  C1  UNL     1      23.331  -0.669  54.136  1.00  0.00     0.037 C 
ENDBRANCH   1   9
BRANCH   8  11
HETATM   11  C15 UNL     1      23.333   1.775  51.287  1.00  0.00     0.009 C 
BRANCH  11  12
HETATM   12  C16 UNL     1      22.045   2.405  51.605  1.00  0.00     0.151 C 
BRANCH  12  13
HETATM   13  N4  UNL     1      21.827   3.679  50.904  1.00  0.00    -0.352 N 
HETATM   14  C17 UNL     1      22.211   4.941  51.406  1.00  0.00     0.275 C 
HETATM   15  O1  UNL     1      22.764   4.880  52.520  1.00  0.00    -0.265 OA
HETATM   16  H14 UNL     1      21.345   3.575  49.965  1.00  0.00     0.163 HD
BRANCH  14  17
HETATM   17  C18 UNL     1      21.938   6.116  50.594  1.00  0.00     0.142 A 
HETATM   18  C19 UNL     1      21.776   6.043  49.224  1.00  0.00     0.045 A 
HETATM   19  C20 UNL     1      21.537   7.339  48.813  1.00  0.00     0.027 A 
HETATM   20  C21 UNL     1      21.566   8.139  49.963  1.00  0.00     0.143 A 
HETATM   21  O2  UNL     1      21.810   7.340  50.983  1.00  0.00    -0.317 OA
ENDBRANCH  14  17
ENDBRANCH  12  13
ENDBRANCH  11  12
ENDBRANCH   8  11
BRANCH   7  22
HETATM   22  N3  UNL     1      25.141   3.297  49.834  1.00  0.00    -0.340 N 
HETATM   23  H6  UNL     1      24.393   3.224  49.077  1.00  0.00     0.167 HD
BRANCH  22  24
HETATM   24  C8  UNL     1      25.867   4.473  49.510  1.00  0.00     0.035 A 
HETATM   25  C9  UNL     1      27.060   4.335  48.838  1.00  0.00     0.029 A 
HETATM   26  C10 UNL     1      27.797   5.478  48.482  1.00  0.00     0.004 A 
HETATM   27  C11 UNL     1      27.384   6.755  48.772  1.00  0.00     0.019 A 
HETATM   28  C12 UNL     1      26.191   6.875  49.443  1.00  0.00     0.013 A 
HETATM   29 BR1  UNL     1      25.481   8.580  49.918  1.00  0.00    -0.051 Br
HETATM   30  C13 UNL     1      25.454   5.776  49.803  1.00  0.00     0.048 A 
ENDBRANCH  22  24
ENDBRANCH   7  22
TORSDOF 7
ENDMDL
MODEL 9
REMARK VINA RESULT:      -7.7      2.774      6.502
REMARK  7 active torsions:
REMARK  status: ('A' for Active; 'I' for Inactive)
REMARK    1  A    between atoms: C2_2  and  C3_3 
REMARK    2  A    between atoms: C7_9  and  N3_10 
REMARK    3  A    between atoms: N3_10  and  C8_11 
REMARK    4  A    between atoms: C14_18  and  C15_19 
REMARK    5  A    between atoms: C15_19  and  C16_20 
REMARK    6  A    between atoms: C16_20  and  N4_21 
REMARK       I    between atoms: N4_21  and  C17_22 
REMARK    7  A    between atoms: C17_22  and  C18_24 
ROOT
HETATM    1  C3  UNL     1      24.463   0.778  52.667  1.00  0.00    -0.004 A 
HETATM    2  C4  UNL     1      25.795   0.432  52.387  1.00  0.00     0.073 A 
HETATM    3  C5  UNL     1      26.347  -0.864  52.647  1.00  0.00     0.102 C 
HETATM    4  N1  UNL     1      26.781  -1.904  52.873  1.00  0.00    -0.191 NA
HETATM    5  C6  UNL     1      26.626   1.369  51.843  1.00  0.00     0.142 A 
HETATM    6  N2  UNL     1      26.141   2.573  51.598  1.00  0.00    -0.241 NA
HETATM    7  C7  UNL     1      24.888   2.936  51.852  1.00  0.00     0.138 A 
HETATM    8  C14 UNL     1      24.003   2.039  52.403  1.00  0.00     0.019 A 
ENDROOT
BRANCH   1   9
HETATM    9  C2  UNL     1      23.631  -0.165  53.096  1.00  0.00    -0.017 C 
HETATM   10  C1  UNL     1      22.605  -1.200  53.225  1.00  0.00     0.037 C 
ENDBRANCH   1   9
BRANCH   8  11
HETATM   11  C15 UNL     1      22.863   2.571  52.751  1.00  0.00     0.009 C 
BRANCH  11  12
HETATM   12  C16 UNL     1      21.495   2.886  52.318  1.00  0.00     0.151 C 
BRANCH  12  13
HETATM   13  N4  UNL     1      20.513   1.855  52.684  1.00  0.00    -0.352 N 
HETATM   14  C17 UNL     1      19.973   0.912  51.784  1.00  0.00     0.275 C 
HETATM   15  O1  UNL     1      20.411   1.032  50.625  1.00  0.00    -0.265 OA
HETATM   16  H14 UNL     1      20.233   1.873  53.707  1.00  0.00     0.163 HD
BRANCH  14  17
HETATM   17  C18 UNL     1      19.016  -0.057  52.294  1.00  0.00     0.142 A 
HETATM   18  C19 UNL     1      17.784  -0.258  51.701  1.00  0.00     0.045 A 
HETATM   19  C20 UNL     1      17.169  -1.236  52.456  1.00  0.00     0.027 A 
HETATM   20  C21 UNL     1      18.064  -1.581  53.477  1.00  0.00     0.143 A 
HETATM   21  O2  UNL     1      19.140  -0.838  53.314  1.00  0.00    -0.317 OA
ENDBRANCH  14  17
ENDBRANCH  12  13
ENDBRANCH  11  12
ENDBRANCH   8  11
BRANCH   7  22
HETATM   22  N3  UNL     1      24.622   4.300  51.480  1.00  0.00    -0.340 N 
HETATM   23  H6  UNL     1      24.750   5.220  52.004  1.00  0.00     0.167 HD
BRANCH  22  24
HETATM   24  C8  UNL     1      24.093   4.676  50.217  1.00  0.00     0.035 A 
HETATM   25  C9  UNL     1      24.326   5.956  49.771  1.00  0.00     0.029 A 
HETATM   26  C10 UNL     1      23.836   6.358  48.516  1.00  0.00     0.004 A 
HETATM   27  C11 UNL     1      23.122   5.526  47.690  1.00  0.00     0.019 A 
HETATM   28  C12 UNL     1      22.898   4.251  48.151  1.00  0.00     0.013 A 
HETATM   29 BR1  UNL     1      21.924   2.975  47.122  1.00  0.00    -0.051 Br
HETATM   30  C13 UNL     1      23.365   3.835  49.371  1.00  0.00     0.048 A 
ENDBRANCH  22  24
ENDBRANCH   7  22
TORSDOF 7
ENDMDL
