MODEL 1
REMARK VINA RESULT:      -9.0      0.000      0.000
REMARK  4 active torsions:
REMARK  status: ('A' for Active; 'I' for Inactive)
REMARK    1  A    between atoms: C3_3  and  C4_4 
REMARK    2  A    between atoms: C4_4  and  C5_5 
REMARK    3  A    between atoms: C15_20  and  N4_21 
REMARK    4  A    between atoms: N4_21  and  C16_22 
ROOT
HETATM    1  C1  UNL     1      26.443   3.168  49.452  1.00  0.00     0.055 C 
HETATM    2  C2  UNL     1      25.463   3.895  50.299  1.00  0.00     0.013 A 
HETATM    3  C3  UNL     1      25.171   5.220  50.061  1.00  0.00     0.068 A 
HETATM    4  N2  UNL     1      24.273   5.779  50.892  1.00  0.00    -0.241 NA
HETATM    5  C14 UNL     1      23.683   5.136  51.889  1.00  0.00     0.235 A 
HETATM    6  N3  UNL     1      23.994   3.872  52.078  1.00  0.00    -0.224 NA
HETATM    7  C15 UNL     1      24.866   3.193  51.331  1.00  0.00     0.137 A 
ENDROOT
BRANCH   3   8
HETATM    8  C4  UNL     1      25.831   5.874  48.960  1.00  0.00     0.040 C 
BRANCH   8   9
HETATM    9  C5  UNL     1      26.778   6.793  48.918  1.00  0.00    -0.024 C 
HETATM   10  C6  UNL     1      26.863   8.179  49.459  1.00  0.00     0.204 C 
HETATM   11  O1  UNL     1      27.015   9.167  48.528  1.00  0.00    -0.387 OA
HETATM   12  C7  UNL     1      27.594  10.318  48.967  1.00  0.00     0.169 C 
HETATM   13  C8  UNL     1      29.075  10.338  48.930  1.00  0.00     0.056 C 
HETATM   14  C9  UNL     1      29.890   9.149  49.209  1.00  0.00     0.274 C 
HETATM   15  N1  UNL     1      29.929   8.117  48.251  1.00  0.00     0.093 NA
HETATM   16  C10 UNL     1      30.556   6.879  48.637  1.00  0.00     0.298 C 
HETATM   17  C13 UNL     1      28.734   7.714  47.563  1.00  0.00     0.309 C 
HETATM   18  C11 UNL     1      30.021   5.630  48.069  1.00  0.00     0.199 C 
HETATM   19  O2  UNL     1      28.627   5.471  48.001  1.00  0.00    -0.378 OA
HETATM   20  C12 UNL     1      28.144   6.709  48.462  1.00  0.00     0.181 C 
ENDBRANCH   8   9
ENDBRANCH   3   8
BRANCH   7  21
HETATM   21  N4  UNL     1      25.162   1.828  51.588  1.00  0.00    -0.340 N 
HETATM   22  H21 UNL     1      24.435   1.159  51.232  1.00  0.00     0.167 HD
BRANCH  21  23
HETATM   23  C16 UNL     1      26.261   1.258  52.239  1.00  0.00     0.035 A 
HETATM   24  C17 UNL     1      27.255   1.910  52.930  1.00  0.00     0.032 A 
HETATM   25  C18 UNL     1      28.332   1.353  53.559  1.00  0.00     0.046 A 
HETATM   26  C19 UNL     1      28.421  -0.020  53.487  1.00  0.00     0.138 A 
HETATM   27  F1  UNL     1      29.445  -0.679  54.076  1.00  0.00    -0.204 F 
HETATM   28  C20 UNL     1      27.486  -0.757  52.826  1.00  0.00     0.074 A 
HETATM   29 CL1  UNL     1      27.621  -2.503  52.750  1.00  0.00    -0.081 Cl
HETATM   30  C21 UNL     1      26.441  -0.110  52.225  1.00  0.00     0.056 A 
ENDBRANCH  21  23
ENDBRANCH   7  21
TORSDOF 4
ENDMDL
MODEL 2
REMARK VINA RESULT:      -8.9      3.676      7.926
REMARK  4 active torsions:
REMARK  status: ('A' for Active; 'I' for Inactive)
REMARK    1  A    between atoms: C3_3  and  C4_4 
REMARK    2  A    between atoms: C4_4  and  C5_5 
REMARK    3  A    between atoms: C15_20  and  N4_21 
REMARK    4  A    between atoms: N4_21  and  C16_22 
ROOT
HETATM    1  C1  UNL     1      26.213   3.342  49.339  1.00  0.00     0.055 C 
HETATM    2  C2  UNL     1      25.409   4.378  50.035  1.00  0.00     0.013 A 
HETATM    3  C3  UNL     1      24.581   4.042  51.083  1.00  0.00     0.068 A 
HETATM    4  N2  UNL     1      23.897   5.059  51.637  1.00  0.00    -0.241 NA
HETATM    5  C14 UNL     1      23.981   6.318  51.233  1.00  0.00     0.235 A 
HETATM    6  N3  UNL     1      24.784   6.591  50.228  1.00  0.00    -0.224 NA
HETATM    7  C15 UNL     1      25.521   5.682  49.587  1.00  0.00     0.137 A 
ENDROOT
BRANCH   3   8
HETATM    8  C4  UNL     1      24.530   2.662  51.493  1.00  0.00     0.040 C 
BRANCH   8   9
HETATM    9  C5  UNL     1      25.295   1.951  52.299  1.00  0.00    -0.024 C 
HETATM   10  C6  UNL     1      26.613   2.225  52.942  1.00  0.00     0.204 C 
HETATM   11  O1  UNL     1      27.628   1.382  52.588  1.00  0.00    -0.387 OA
HETATM   12  C7  UNL     1      28.644   1.262  53.484  1.00  0.00     0.169 C 
HETATM   13  C8  UNL     1      28.443   0.242  54.540  1.00  0.00     0.056 C 
HETATM   14  C9  UNL     1      27.128  -0.036  55.131  1.00  0.00     0.274 C 
HETATM   15  N1  UNL     1      26.171  -0.720  54.357  1.00  0.00     0.093 NA
HETATM   16  C10 UNL     1      24.829  -0.791  54.873  1.00  0.00     0.298 C 
HETATM   17  C13 UNL     1      26.002  -0.410  52.963  1.00  0.00     0.309 C 
HETATM   18  C11 UNL     1      23.717  -0.790  53.907  1.00  0.00     0.199 C 
HETATM   19  O2  UNL     1      23.777   0.100  52.822  1.00  0.00    -0.378 OA
HETATM   20  C12 UNL     1      25.038   0.702  52.974  1.00  0.00     0.181 C 
ENDBRANCH   8   9
ENDBRANCH   3   8
BRANCH   7  21
HETATM   21  N4  UNL     1      26.368   6.039  48.504  1.00  0.00    -0.340 N 
HETATM   22  H21 UNL     1      25.960   5.838  47.558  1.00  0.00     0.167 HD
BRANCH  21  23
HETATM   23  C16 UNL     1      27.647   6.605  48.517  1.00  0.00     0.035 A 
HETATM   24  C17 UNL     1      27.978   7.920  48.751  1.00  0.00     0.032 A 
HETATM   25  C18 UNL     1      29.227   8.473  48.755  1.00  0.00     0.046 A 
HETATM   26  C19 UNL     1      30.265   7.606  48.496  1.00  0.00     0.138 A 
HETATM   27  F1  UNL     1      31.545   8.045  48.477  1.00  0.00    -0.204 F 
HETATM   28  C20 UNL     1      30.041   6.285  48.251  1.00  0.00     0.074 A 
HETATM   29 CL1  UNL     1      31.380   5.202  47.924  1.00  0.00    -0.081 Cl
HETATM   30  C21 UNL     1      28.755   5.820  48.267  1.00  0.00     0.056 A 
ENDBRANCH  21  23
ENDBRANCH   7  21
TORSDOF 4
ENDMDL
MODEL 3
REMARK VINA RESULT:      -8.8      4.380      8.474
REMARK  4 active torsions:
REMARK  status: ('A' for Active; 'I' for Inactive)
REMARK    1  A    between atoms: C3_3  and  C4_4 
REMARK    2  A    between atoms: C4_4  and  C5_5 
REMARK    3  A    between atoms: C15_20  and  N4_21 
REMARK    4  A    between atoms: N4_21  and  C16_22 
ROOT
HETATM    1  C1  UNL     1      27.890   4.799  48.571  1.00  0.00     0.055 C 
HETATM    2  C2  UNL     1      26.664   5.357  49.197  1.00  0.00     0.013 A 
HETATM    3  C3  UNL     1      25.873   4.579  50.014  1.00  0.00     0.068 A 
HETATM    4  N2  UNL     1      24.785   5.185  50.523  1.00  0.00    -0.241 NA
HETATM    5  C14 UNL     1      24.456   6.445  50.282  1.00  0.00     0.235 A 
HETATM    6  N3  UNL     1      25.241   7.148  49.495  1.00  0.00    -0.224 NA
HETATM    7  C15 UNL     1      26.349   6.676  48.924  1.00  0.00     0.137 A 
ENDROOT
BRANCH   3   8
HETATM    8  C4  UNL     1      26.277   3.217  50.254  1.00  0.00     0.040 C 
BRANCH   8   9
HETATM    9  C5  UNL     1      25.993   2.370  51.225  1.00  0.00    -0.024 C 
HETATM   10  C6  UNL     1      24.862   1.423  51.439  1.00  0.00     0.204 C 
HETATM   11  O1  UNL     1      24.095   1.660  52.545  1.00  0.00    -0.387 OA
HETATM   12  C7  UNL     1      23.424   0.588  53.046  1.00  0.00     0.169 C 
HETATM   13  C8  UNL     1      24.184  -0.247  54.006  1.00  0.00     0.056 C 
HETATM   14  C9  UNL     1      25.626  -0.491  53.872  1.00  0.00     0.274 C 
HETATM   15  N1  UNL     1      26.518   0.562  54.155  1.00  0.00     0.093 NA
HETATM   16  C10 UNL     1      27.903   0.366  53.813  1.00  0.00     0.298 C 
HETATM   17  C13 UNL     1      26.228   1.901  53.723  1.00  0.00     0.309 C 
HETATM   18  C11 UNL     1      28.681   1.542  53.388  1.00  0.00     0.199 C 
HETATM   19  O2  UNL     1      28.083   2.454  52.503  1.00  0.00    -0.378 OA
HETATM   20  C12 UNL     1      26.779   1.947  52.359  1.00  0.00     0.181 C 
ENDBRANCH   8   9
ENDBRANCH   3   8
BRANCH   7  21
HETATM   21  N4  UNL     1      27.155   7.486  48.080  1.00  0.00    -0.340 N 
HETATM   22  H21 UNL     1      26.957   7.365  47.055  1.00  0.00     0.167 HD
BRANCH  21  23
HETATM   23  C16 UNL     1      28.160   8.400  48.410  1.00  0.00     0.035 A 
HETATM   24  C17 UNL     1      29.483   8.130  48.676  1.00  0.00     0.032 A 
HETATM   25  C18 UNL     1      30.462   9.023  49.007  1.00  0.00     0.046 A 
HETATM   26  C19 UNL     1      30.069  10.341  49.077  1.00  0.00     0.138 A 
HETATM   27  F1  UNL     1      30.957  11.312  49.393  1.00  0.00    -0.204 F 
HETATM   28  C20 UNL     1      28.782  10.711  48.830  1.00  0.00     0.074 A 
HETATM   29 CL1  UNL     1      28.308  12.396  48.926  1.00  0.00    -0.081 Cl
HETATM   30  C21 UNL     1      27.869   9.746  48.507  1.00  0.00     0.056 A 
ENDBRANCH  21  23
ENDBRANCH   7  21
TORSDOF 4
ENDMDL
MODEL 4
REMARK VINA RESULT:      -8.5      6.687     10.160
REMARK  4 active torsions:
REMARK  status: ('A' for Active; 'I' for Inactive)
REMARK    1  A    between atoms: C3_3  and  C4_4 
REMARK    2  A    between atoms: C4_4  and  C5_5 
REMARK    3  A    between atoms: C15_20  and  N4_21 
REMARK    4  A    between atoms: N4_21  and  C16_22 
ROOT
HETATM    1  C1  UNL     1      22.404   1.337  51.292  1.00  0.00     0.055 C 
HETATM    2  C2  UNL     1      22.159   0.447  52.456  1.00  0.00     0.013 A 
HETATM    3  C3  UNL     1      20.923  -0.128  52.656  1.00  0.00     0.068 A 
HETATM    4  N2  UNL     1      20.812  -0.912  53.743  1.00  0.00    -0.241 NA
HETATM    5  C14 UNL     1      21.800  -1.145  54.594  1.00  0.00     0.235 A 
HETATM    6  N3  UNL     1      22.961  -0.575  54.362  1.00  0.00    -0.224 NA
HETATM    7  C15 UNL     1      23.212   0.225  53.325  1.00  0.00     0.137 A 
ENDROOT
BRANCH   3   8
HETATM    8  C4  UNL     1      19.882   0.148  51.698  1.00  0.00     0.040 C 
BRANCH   8   9
HETATM    9  C5  UNL     1      18.575   0.272  51.826  1.00  0.00    -0.024 C 
HETATM   10  C6  UNL     1      17.535  -0.599  52.444  1.00  0.00     0.204 C 
HETATM   11  O1  UNL     1      16.573  -1.065  51.592  1.00  0.00    -0.387 OA
HETATM   12  C7  UNL     1      15.384  -1.402  52.161  1.00  0.00     0.169 C 
HETATM   13  C8  UNL     1      14.416  -0.291  52.316  1.00  0.00     0.056 C 
HETATM   14  C9  UNL     1      14.831   1.081  52.636  1.00  0.00     0.274 C 
HETATM   15  N1  UNL     1      15.472   1.843  51.639  1.00  0.00     0.093 NA
HETATM   16  C10 UNL     1      16.057   3.096  52.038  1.00  0.00     0.298 C 
HETATM   17  C13 UNL     1      16.458   1.243  50.783  1.00  0.00     0.309 C 
HETATM   18  C11 UNL     1      17.278   3.539  51.343  1.00  0.00     0.199 C 
HETATM   19  O2  UNL     1      18.281   2.590  51.087  1.00  0.00    -0.378 OA
HETATM   20  C12 UNL     1      17.708   1.391  51.545  1.00  0.00     0.181 C 
ENDBRANCH   8   9
ENDBRANCH   3   8
BRANCH   7  21
HETATM   21  N4  UNL     1      24.489   0.815  53.130  1.00  0.00    -0.340 N 
HETATM   22  H21 UNL     1      24.457   1.845  52.925  1.00  0.00     0.167 HD
BRANCH  21  23
HETATM   23  C16 UNL     1      25.760   0.232  53.166  1.00  0.00     0.035 A 
HETATM   24  C17 UNL     1      26.122  -1.015  52.714  1.00  0.00     0.032 A 
HETATM   25  C18 UNL     1      27.361  -1.587  52.757  1.00  0.00     0.046 A 
HETATM   26  C19 UNL     1      28.355  -0.816  53.319  1.00  0.00     0.138 A 
HETATM   27  F1  UNL     1      29.622  -1.280  53.412  1.00  0.00    -0.204 F 
HETATM   28  C20 UNL     1      28.098   0.433  53.796  1.00  0.00     0.074 A 
HETATM   29 CL1  UNL     1      29.380   1.395  54.506  1.00  0.00    -0.081 Cl
HETATM   30  C21 UNL     1      26.824   0.923  53.711  1.00  0.00     0.056 A 
ENDBRANCH  21  23
ENDBRANCH   7  21
TORSDOF 4
ENDMDL
MODEL 5
REMARK VINA RESULT:      -8.3      4.485      8.731
REMARK  4 active torsions:
REMARK  status: ('A' for Active; 'I' for Inactive)
REMARK    1  A    between atoms: C3_3  and  C4_4 
REMARK    2  A    between atoms: C4_4  and  C5_5 
REMARK    3  A    between atoms: C15_20  and  N4_21 
REMARK    4  A    between atoms: N4_21  and  C16_22 
ROOT
HETATM    1  C1  UNL     1      26.284   3.232  49.405  1.00  0.00     0.055 C 
HETATM    2  C2  UNL     1      25.432   4.244  50.080  1.00  0.00     0.013 A 
HETATM    3  C3  UNL     1      24.605   3.888  51.121  1.00  0.00     0.068 A 
HETATM    4  N2  UNL     1      23.875   4.885  51.655  1.00  0.00    -0.241 NA
HETATM    5  C14 UNL     1      23.918   6.141  51.238  1.00  0.00     0.235 A 
HETATM    6  N3  UNL     1      24.722   6.434  50.240  1.00  0.00    -0.224 NA
HETATM    7  C15 UNL     1      25.501   5.547  49.619  1.00  0.00     0.137 A 
ENDROOT
BRANCH   3   8
HETATM    8  C4  UNL     1      24.600   2.511  51.545  1.00  0.00     0.040 C 
BRANCH   8   9
HETATM    9  C5  UNL     1      23.692   1.781  52.164  1.00  0.00    -0.024 C 
HETATM   10  C6  UNL     1      23.715   1.012  53.441  1.00  0.00     0.204 C 
HETATM   11  O1  UNL     1      23.515  -0.335  53.322  1.00  0.00    -0.387 OA
HETATM   12  C7  UNL     1      23.028  -0.965  54.425  1.00  0.00     0.169 C 
HETATM   13  C8  UNL     1      21.552  -0.967  54.556  1.00  0.00     0.056 C 
HETATM   14  C9  UNL     1      20.719   0.166  54.134  1.00  0.00     0.274 C 
HETATM   15  N1  UNL     1      20.548   0.404  52.757  1.00  0.00     0.093 NA
HETATM   16  C10 UNL     1      19.911   1.636  52.371  1.00  0.00     0.298 C 
HETATM   17  C13 UNL     1      21.656   0.274  51.850  1.00  0.00     0.309 C 
HETATM   18  C11 UNL     1      20.339   2.268  51.111  1.00  0.00     0.199 C 
HETATM   19  O2  UNL     1      21.712   2.317  50.822  1.00  0.00    -0.378 OA
HETATM   20  C12 UNL     1      22.287   1.604  51.889  1.00  0.00     0.181 C 
ENDBRANCH   8   9
ENDBRANCH   3   8
BRANCH   7  21
HETATM   21  N4  UNL     1      26.348   5.924  48.543  1.00  0.00    -0.340 N 
HETATM   22  H21 UNL     1      25.975   5.668  47.595  1.00  0.00     0.167 HD
BRANCH  21  23
HETATM   23  C16 UNL     1      27.587   6.572  48.564  1.00  0.00     0.035 A 
HETATM   24  C17 UNL     1      27.834   7.898  48.836  1.00  0.00     0.032 A 
HETATM   25  C18 UNL     1      29.044   8.531  48.848  1.00  0.00     0.046 A 
HETATM   26  C19 UNL     1      30.134   7.742  48.554  1.00  0.00     0.138 A 
HETATM   27  F1  UNL     1      31.382   8.263  48.539  1.00  0.00    -0.204 F 
HETATM   28  C20 UNL     1      29.994   6.417  48.270  1.00  0.00     0.074 A 
HETATM   29 CL1  UNL     1      31.398   5.435  47.900  1.00  0.00    -0.081 Cl
HETATM   30  C21 UNL     1      28.741   5.869  48.281  1.00  0.00     0.056 A 
ENDBRANCH  21  23
ENDBRANCH   7  21
TORSDOF 4
ENDMDL
MODEL 6
REMARK VINA RESULT:      -8.1      1.926      2.731
REMARK  4 active torsions:
REMARK  status: ('A' for Active; 'I' for Inactive)
REMARK    1  A    between atoms: C3_3  and  C4_4 
REMARK    2  A    between atoms: C4_4  and  C5_5 
REMARK    3  A    between atoms: C15_20  and  N4_21 
REMARK    4  A    between atoms: N4_21  and  C16_22 
ROOT
HETATM    1  C1  UNL     1      26.564   2.775  49.592  1.00  0.00     0.055 C 
HETATM    2  C2  UNL     1      25.583   3.580  50.363  1.00  0.00     0.013 A 
HETATM    3  C3  UNL     1      25.372   4.908  50.067  1.00  0.00     0.068 A 
HETATM    4  N2  UNL     1      24.465   5.541  50.832  1.00  0.00    -0.241 NA
HETATM    5  C14 UNL     1      23.794   4.965  51.818  1.00  0.00     0.235 A 
HETATM    6  N3  UNL     1      24.029   3.695  52.066  1.00  0.00    -0.224 NA
HETATM    7  C15 UNL     1      24.900   2.947  51.387  1.00  0.00     0.137 A 
ENDROOT
BRANCH   3   8
HETATM    8  C4  UNL     1      26.118   5.488  48.979  1.00  0.00     0.040 C 
BRANCH   8   9
HETATM    9  C5  UNL     1      26.398   6.740  48.668  1.00  0.00    -0.024 C 
HETATM   10  C6  UNL     1      27.618   7.577  48.854  1.00  0.00     0.204 C 
HETATM   11  O1  UNL     1      27.461   8.680  49.645  1.00  0.00    -0.387 OA
HETATM   12  C7  UNL     1      28.338   9.698  49.430  1.00  0.00     0.169 C 
HETATM   13  C8  UNL     1      27.951  10.658  48.370  1.00  0.00     0.056 C 
HETATM   14  C9  UNL     1      27.248  10.246  47.148  1.00  0.00     0.274 C 
HETATM   15  N1  UNL     1      25.892   9.876  47.241  1.00  0.00     0.093 NA
HETATM   16  C10 UNL     1      25.288   9.275  46.081  1.00  0.00     0.298 C 
HETATM   17  C13 UNL     1      25.426   9.077  48.342  1.00  0.00     0.309 C 
HETATM   18  C11 UNL     1      24.243   8.260  46.295  1.00  0.00     0.199 C 
HETATM   19  O2  UNL     1      24.446   7.295  47.295  1.00  0.00    -0.378 OA
HETATM   20  C12 UNL     1      25.658   7.697  47.883  1.00  0.00     0.181 C 
ENDBRANCH   8   9
ENDBRANCH   3   8
BRANCH   7  21
HETATM   21  N4  UNL     1      25.113   1.579  51.704  1.00  0.00    -0.340 N 
HETATM   22  H21 UNL     1      24.314   0.950  51.439  1.00  0.00     0.167 HD
BRANCH  21  23
HETATM   23  C16 UNL     1      26.210   0.961  52.312  1.00  0.00     0.035 A 
HETATM   24  C17 UNL     1      26.489  -0.385  52.366  1.00  0.00     0.032 A 
HETATM   25  C18 UNL     1      27.557  -0.988  52.967  1.00  0.00     0.046 A 
HETATM   26  C19 UNL     1      28.451  -0.142  53.585  1.00  0.00     0.138 A 
HETATM   27  F1  UNL     1      29.547  -0.630  54.210  1.00  0.00    -0.204 F 
HETATM   28  C20 UNL     1      28.264   1.207  53.587  1.00  0.00     0.074 A 
HETATM   29 CL1  UNL     1      29.416   2.263  54.380  1.00  0.00    -0.081 Cl
HETATM   30  C21 UNL     1      27.163   1.722  52.959  1.00  0.00     0.056 A 
ENDBRANCH  21  23
ENDBRANCH   7  21
TORSDOF 4
ENDMDL
MODEL 7
REMARK VINA RESULT:      -8.1      2.766      3.187
REMARK  4 active torsions:
REMARK  status: ('A' for Active; 'I' for Inactive)
REMARK    1  A    between atoms: C3_3  and  C4_4 
REMARK    2  A    between atoms: C4_4  and  C5_5 
REMARK    3  A    between atoms: C15_20  and  N4_21 
REMARK    4  A    between atoms: N4_21  and  C16_22 
ROOT
HETATM    1  C1  UNL     1      26.715   2.739  50.696  1.00  0.00     0.055 C 
HETATM    2  C2  UNL     1      25.494   3.579  50.598  1.00  0.00     0.013 A 
HETATM    3  C3  UNL     1      25.437   4.641  49.722  1.00  0.00     0.068 A 
HETATM    4  N2  UNL     1      24.285   5.335  49.720  1.00  0.00    -0.241 NA
HETATM    5  C14 UNL     1      23.246   5.052  50.491  1.00  0.00     0.235 A 
HETATM    6  N3  UNL     1      23.347   4.030  51.312  1.00  0.00    -0.224 NA
HETATM    7  C15 UNL     1      24.428   3.256  51.419  1.00  0.00     0.137 A 
ENDROOT
BRANCH   3   8
HETATM    8  C4  UNL     1      26.588   4.903  48.897  1.00  0.00     0.040 C 
BRANCH   8   9
HETATM    9  C5  UNL     1      27.258   6.011  48.643  1.00  0.00    -0.024 C 
HETATM   10  C6  UNL     1      26.913   7.455  48.788  1.00  0.00     0.204 C 
HETATM   11  O1  UNL     1      26.904   8.178  47.629  1.00  0.00    -0.387 OA
HETATM   12  C7  UNL     1      27.107   9.518  47.760  1.00  0.00     0.169 C 
HETATM   13  C8  UNL     1      28.524   9.948  47.775  1.00  0.00     0.056 C 
HETATM   14  C9  UNL     1      29.587   9.149  48.399  1.00  0.00     0.274 C 
HETATM   15  N1  UNL     1      30.004   7.964  47.761  1.00  0.00     0.093 NA
HETATM   16  C10 UNL     1      30.887   7.094  48.493  1.00  0.00     0.298 C 
HETATM   17  C13 UNL     1      29.042   7.079  47.163  1.00  0.00     0.309 C 
HETATM   18  C11 UNL     1      30.767   5.643  48.267  1.00  0.00     0.199 C 
HETATM   19  O2  UNL     1      29.481   5.084  48.191  1.00  0.00    -0.378 OA
HETATM   20  C12 UNL     1      28.640   6.207  48.278  1.00  0.00     0.181 C 
ENDBRANCH   8   9
ENDBRANCH   3   8
BRANCH   7  21
HETATM   21  N4  UNL     1      24.477   2.166  52.328  1.00  0.00    -0.340 N 
HETATM   22  H21 UNL     1      25.386   2.084  52.847  1.00  0.00     0.167 HD
BRANCH  21  23
HETATM   23  C16 UNL     1      23.509   1.200  52.621  1.00  0.00     0.035 A 
HETATM   24  C17 UNL     1      22.363   0.922  51.913  1.00  0.00     0.032 A 
HETATM   25  C18 UNL     1      21.414  -0.016  52.205  1.00  0.00     0.046 A 
HETATM   26  C19 UNL     1      21.642  -0.763  53.340  1.00  0.00     0.138 A 
HETATM   27  F1  UNL     1      20.769  -1.723  53.723  1.00  0.00    -0.204 F 
HETATM   28  C20 UNL     1      22.748  -0.564  54.109  1.00  0.00     0.074 A 
HETATM   29 CL1  UNL     1      23.015  -1.528  55.548  1.00  0.00    -0.081 Cl
HETATM   30  C21 UNL     1      23.645   0.400  53.738  1.00  0.00     0.056 A 
ENDBRANCH  21  23
ENDBRANCH   7  21
TORSDOF 4
ENDMDL
MODEL 8
REMARK VINA RESULT:      -8.0      1.593      2.705
REMARK  4 active torsions:
REMARK  status: ('A' for Active; 'I' for Inactive)
REMARK    1  A    between atoms: C3_3  and  C4_4 
REMARK    2  A    between atoms: C4_4  and  C5_5 
REMARK    3  A    between atoms: C15_20  and  N4_21 
REMARK    4  A    between atoms: N4_21  and  C16_22 
ROOT
HETATM    1  C1  UNL     1      27.530   4.226  48.609  1.00  0.00     0.055 C 
HETATM    2  C2  UNL     1      26.381   4.800  49.356  1.00  0.00     0.013 A 
HETATM    3  C3  UNL     1      26.021   6.119  49.192  1.00  0.00     0.068 A 
HETATM    4  N2  UNL     1      24.970   6.533  49.921  1.00  0.00    -0.241 NA
HETATM    5  C14 UNL     1      24.294   5.758  50.756  1.00  0.00     0.235 A 
HETATM    6  N3  UNL     1      24.675   4.506  50.882  1.00  0.00    -0.224 NA
HETATM    7  C15 UNL     1      25.699   3.963  50.221  1.00  0.00     0.137 A 
ENDROOT
BRANCH   3   8
HETATM    8  C4  UNL     1      26.780   6.919  48.265  1.00  0.00     0.040 C 
BRANCH   8   9
HETATM    9  C5  UNL     1      27.477   8.029  48.421  1.00  0.00    -0.024 C 
HETATM   10  C6  UNL     1      28.933   8.330  48.311  1.00  0.00     0.204 C 
HETATM   11  O1  UNL     1      29.531   8.777  49.456  1.00  0.00    -0.387 OA
HETATM   12  C7  UNL     1      30.657   9.523  49.289  1.00  0.00     0.169 C 
HETATM   13  C8  UNL     1      30.434  10.973  49.085  1.00  0.00     0.056 C 
HETATM   14  C9  UNL     1      29.287  11.500  48.335  1.00  0.00     0.274 C 
HETATM   15  N1  UNL     1      28.008  11.435  48.922  1.00  0.00     0.093 NA
HETATM   16  C10 UNL     1      26.880  11.756  48.088  1.00  0.00     0.298 C 
HETATM   17  C13 UNL     1      27.596  10.264  49.647  1.00  0.00     0.309 C 
HETATM   18  C11 UNL     1      25.613  11.047  48.339  1.00  0.00     0.199 C 
HETATM   19  O2  UNL     1      25.660   9.666  48.586  1.00  0.00    -0.378 OA
HETATM   20  C12 UNL     1      27.039   9.392  48.601  1.00  0.00     0.181 C 
ENDBRANCH   8   9
ENDBRANCH   3   8
BRANCH   7  21
HETATM   21  N4  UNL     1      26.064   2.602  50.402  1.00  0.00    -0.340 N 
HETATM   22  H21 UNL     1      25.810   1.981  49.594  1.00  0.00     0.167 HD
BRANCH  21  23
HETATM   23  C16 UNL     1      26.697   1.981  51.483  1.00  0.00     0.035 A 
HETATM   24  C17 UNL     1      27.471   2.574  52.453  1.00  0.00     0.032 A 
HETATM   25  C18 UNL     1      28.095   1.965  53.504  1.00  0.00     0.046 A 
HETATM   26  C19 UNL     1      27.921   0.602  53.594  1.00  0.00     0.138 A 
HETATM   27  F1  UNL     1      28.492  -0.104  54.596  1.00  0.00    -0.204 F 
HETATM   28  C20 UNL     1      27.173  -0.078  52.682  1.00  0.00     0.074 A 
HETATM   29 CL1  UNL     1      26.966  -1.814  52.818  1.00  0.00    -0.081 Cl
HETATM   30  C21 UNL     1      26.585   0.617  51.661  1.00  0.00     0.056 A 
ENDBRANCH  21  23
ENDBRANCH   7  21
TORSDOF 4
ENDMDL
MODEL 9
REMARK VINA RESULT:      -8.0      6.779      9.990
REMARK  4 active torsions:
REMARK  status: ('A' for Active; 'I' for Inactive)
REMARK    1  A    between atoms: C3_3  and  C4_4 
REMARK    2  A    between atoms: C4_4  and  C5_5 
REMARK    3  A    between atoms: C15_20  and  N4_21 
REMARK    4  A    between atoms: N4_21  and  C16_22 
ROOT
HETATM    1  C1  UNL     1      21.774   1.265  50.519  1.00  0.00     0.055 C 
HETATM    2  C2  UNL     1      21.573   0.703  51.879  1.00  0.00     0.013 A 
HETATM    3  C3  UNL     1      20.348   0.205  52.264  1.00  0.00     0.068 A 
HETATM    4  N2  UNL     1      20.279  -0.274  53.518  1.00  0.00    -0.241 NA
HETATM    5  C14 UNL     1      21.297  -0.287  54.365  1.00  0.00     0.235 A 
HETATM    6  N3  UNL     1      22.447   0.199  53.954  1.00  0.00    -0.224 NA
HETATM    7  C15 UNL     1      22.658   0.706  52.739  1.00  0.00     0.137 A 
ENDROOT
BRANCH   3   8
HETATM    8  C4  UNL     1      19.273   0.233  51.304  1.00  0.00     0.040 C 
BRANCH   8   9
HETATM    9  C5  UNL     1      18.160   0.939  51.246  1.00  0.00    -0.024 C 
HETATM   10  C6  UNL     1      17.891   2.376  50.953  1.00  0.00     0.204 C 
HETATM   11  O1  UNL     1      17.306   3.084  51.966  1.00  0.00    -0.387 OA
HETATM   12  C7  UNL     1      16.600   4.186  51.593  1.00  0.00     0.169 C 
HETATM   13  C8  UNL     1      15.186   3.941  51.226  1.00  0.00     0.056 C 
HETATM   14  C9  UNL     1      14.749   2.723  50.530  1.00  0.00     0.274 C 
HETATM   15  N1  UNL     1      14.724   1.509  51.244  1.00  0.00     0.093 NA
HETATM   16  C10 UNL     1      14.501   0.303  50.492  1.00  0.00     0.298 C 
HETATM   17  C13 UNL     1      15.786   1.174  52.153  1.00  0.00     0.309 C 
HETATM   18  C11 UNL     1      15.158  -0.931  50.956  1.00  0.00     0.199 C 
HETATM   19  O2  UNL     1      16.497  -0.856  51.375  1.00  0.00    -0.378 OA
HETATM   20  C12 UNL     1      16.780   0.518  51.289  1.00  0.00     0.181 C 
ENDBRANCH   8   9
ENDBRANCH   3   8
BRANCH   7  21
HETATM   21  N4  UNL     1      23.925   1.220  52.354  1.00  0.00    -0.340 N 
HETATM   22  H21 UNL     1      23.872   2.072  51.743  1.00  0.00     0.167 HD
BRANCH  21  23
HETATM   23  C16 UNL     1      25.209   0.760  52.663  1.00  0.00     0.035 A 
HETATM   24  C17 UNL     1      25.636  -0.546  52.732  1.00  0.00     0.032 A 
HETATM   25  C18 UNL     1      26.889  -0.994  53.041  1.00  0.00     0.046 A 
HETATM   26  C19 UNL     1      27.822  -0.019  53.313  1.00  0.00     0.138 A 
HETATM   27  F1  UNL     1      29.095  -0.348  53.629  1.00  0.00    -0.204 F 
HETATM   28  C20 UNL     1      27.498   1.304  53.271  1.00  0.00     0.074 A 
HETATM   29 CL1  UNL     1      28.705   2.526  53.620  1.00  0.00    -0.081 Cl
HETATM   30  C21 UNL     1      26.216   1.659  52.952  1.00  0.00     0.056 A 
ENDBRANCH  21  23
ENDBRANCH   7  21
TORSDOF 4
ENDMDL
