MODEL 1
REMARK VINA RESULT:      -7.1      0.000      0.000
REMARK  5 active torsions:
REMARK  status: ('A' for Active; 'I' for Inactive)
REMARK    1  A    between atoms: N1_2  and  C2_3 
REMARK    2  A    between atoms: C3_4  and  C4_5 
REMARK    3  A    between atoms: C5_6  and  C6_7 
REMARK    4  A    between atoms: C6_7  and  N2_8 
REMARK    5  A    between atoms: N2_8  and  C7_9 
ROOT
HETATM    1  C7  UNL     1      24.448   3.798  51.126  1.00  0.00     0.327 C 
HETATM    2  C8  UNL     1      23.154   3.788  50.406  1.00  0.00     0.139 C 
HETATM    3  N3  UNL     1      22.099   3.084  50.633  1.00  0.00    -0.237 NA
HETATM    4  C9  UNL     1      22.055   2.149  51.701  1.00  0.00     0.185 C 
HETATM    5  O1  UNL     1      20.964   1.465  51.884  1.00  0.00    -0.303 OA
HETATM    6  C10 UNL     1      20.435   1.395  53.105  1.00  0.00     0.144 C 
HETATM    7  C11 UNL     1      20.857   0.539  54.142  1.00  0.00     0.025 C 
HETATM    8  C12 UNL     1      21.101  -0.820  54.346  1.00  0.00     0.002 C 
HETATM    9  C13 UNL     1      22.115  -1.406  53.592  1.00  0.00     0.000 C 
HETATM   10  C14 UNL     1      23.237  -0.680  53.303  1.00  0.00     0.002 C 
HETATM   11  C15 UNL     1      23.177   0.672  53.260  1.00  0.00     0.023 C 
HETATM   12  C16 UNL     1      23.009   1.839  52.602  1.00  0.00     0.056 C 
HETATM   13  S1  UNL     1      24.102   3.249  52.837  1.00  0.00    -0.085 SA
ENDROOT
BRANCH   1  14
HETATM   14  N2  UNL     1      25.385   2.908  50.474  1.00  0.00     0.106 N 
HETATM   15  H9  UNL     1      24.930   2.093  50.049  1.00  0.00     0.318 HD
BRANCH  14  16
HETATM   16  C6  UNL     1      26.293   2.468  51.546  1.00  0.00     0.299 C 
BRANCH  16  17
HETATM   17  C5  UNL     1      26.499   1.013  51.512  1.00  0.00     0.003 C 
HETATM   18  C4  UNL     1      26.819   0.192  52.497  1.00  0.00    -0.001 C 
BRANCH  18  19
HETATM   19  C3  UNL     1      27.025   0.656  53.857  1.00  0.00     0.019 C 
HETATM   20  C2  UNL     1      27.975   0.115  54.596  1.00  0.00     0.115 C 
BRANCH  20  21
HETATM   21  N1  UNL     1      28.837  -0.921  54.145  1.00  0.00    -0.284 NA
HETATM   22  C1  UNL     1      30.029  -0.662  53.675  1.00  0.00     0.148 C 
ENDBRANCH  20  21
ENDBRANCH  18  19
ENDBRANCH  16  17
ENDBRANCH  14  16
ENDBRANCH   1  14
TORSDOF 5
ENDMDL
MODEL 2
REMARK VINA RESULT:      -7.0      2.661      6.091
REMARK  5 active torsions:
REMARK  status: ('A' for Active; 'I' for Inactive)
REMARK    1  A    between atoms: N1_2  and  C2_3 
REMARK    2  A    between atoms: C3_4  and  C4_5 
REMARK    3  A    between atoms: C5_6  and  C6_7 
REMARK    4  A    between atoms: C6_7  and  N2_8 
REMARK    5  A    between atoms: N2_8  and  C7_9 
ROOT
HETATM    1  C7  UNL     1      24.624   2.302  52.125  1.00  0.00     0.327 C 
HETATM    2  C8  UNL     1      24.905   2.719  53.518  1.00  0.00     0.139 C 
HETATM    3  N3  UNL     1      25.868   2.363  54.297  1.00  0.00    -0.237 NA
HETATM    4  C9  UNL     1      26.860   1.444  53.868  1.00  0.00     0.185 C 
HETATM    5  O1  UNL     1      27.809   1.121  54.697  1.00  0.00    -0.303 OA
HETATM    6  C10 UNL     1      29.077   1.167  54.288  1.00  0.00     0.144 C 
HETATM    7  C11 UNL     1      29.737   0.180  53.529  1.00  0.00     0.025 C 
HETATM    8  C12 UNL     1      29.970  -1.195  53.571  1.00  0.00     0.002 C 
HETATM    9  C13 UNL     1      28.859  -2.033  53.498  1.00  0.00     0.000 C 
HETATM   10  C14 UNL     1      27.804  -1.674  52.705  1.00  0.00     0.002 C 
HETATM   11  C15 UNL     1      27.577  -0.368  52.429  1.00  0.00     0.023 C 
HETATM   12  C16 UNL     1      26.987   0.820  52.679  1.00  0.00     0.056 C 
HETATM   13  S1  UNL     1      26.227   1.815  51.388  1.00  0.00    -0.085 SA
ENDROOT
BRANCH   1  14
HETATM   14  N2  UNL     1      23.692   1.195  52.118  1.00  0.00     0.106 N 
HETATM   15  H9  UNL     1      24.111   0.324  51.778  1.00  0.00     0.318 HD
BRANCH  14  16
HETATM   16  C6  UNL     1      22.614   1.618  51.207  1.00  0.00     0.299 C 
BRANCH  16  17
HETATM   17  C5  UNL     1      21.581   0.580  51.081  1.00  0.00     0.003 C 
HETATM   18  C4  UNL     1      20.614   0.258  51.922  1.00  0.00    -0.001 C 
BRANCH  18  19
HETATM   19  C3  UNL     1      20.426   0.944  53.187  1.00  0.00     0.019 C 
HETATM   20  C2  UNL     1      20.715   0.325  54.317  1.00  0.00     0.115 C 
BRANCH  20  21
HETATM   21  N1  UNL     1      21.210  -1.005  54.388  1.00  0.00    -0.284 NA
HETATM   22  C1  UNL     1      22.418  -1.262  54.817  1.00  0.00     0.148 C 
ENDBRANCH  20  21
ENDBRANCH  18  19
ENDBRANCH  16  17
ENDBRANCH  14  16
ENDBRANCH   1  14
TORSDOF 5
ENDMDL
MODEL 3
REMARK VINA RESULT:      -6.7      3.087      5.665
REMARK  5 active torsions:
REMARK  status: ('A' for Active; 'I' for Inactive)
REMARK    1  A    between atoms: N1_2  and  C2_3 
REMARK    2  A    between atoms: C3_4  and  C4_5 
REMARK    3  A    between atoms: C5_6  and  C6_7 
REMARK    4  A    between atoms: C6_7  and  N2_8 
REMARK    5  A    between atoms: N2_8  and  C7_9 
ROOT
HETATM    1  C7  UNL     1      23.521   2.744  51.234  1.00  0.00     0.327 C 
HETATM    2  C8  UNL     1      23.396   3.975  52.048  1.00  0.00     0.139 C 
HETATM    3  N3  UNL     1      23.891   5.146  51.837  1.00  0.00    -0.237 NA
HETATM    4  C9  UNL     1      24.687   5.412  50.691  1.00  0.00     0.185 C 
HETATM    5  O1  UNL     1      25.161   6.613  50.529  1.00  0.00    -0.303 OA
HETATM    6  C10 UNL     1      25.012   7.219  49.351  1.00  0.00     0.144 C 
HETATM    7  C11 UNL     1      25.810   7.013  48.209  1.00  0.00     0.025 C 
HETATM    8  C12 UNL     1      27.160   7.016  47.857  1.00  0.00     0.002 C 
HETATM    9  C13 UNL     1      27.981   6.072  48.471  1.00  0.00     0.000 C 
HETATM   10  C14 UNL     1      27.483   4.828  48.740  1.00  0.00     0.002 C 
HETATM   11  C15 UNL     1      26.151   4.655  48.916  1.00  0.00     0.023 C 
HETATM   12  C16 UNL     1      25.050   4.581  49.694  1.00  0.00     0.056 C 
HETATM   13  S1  UNL     1      23.820   3.281  49.510  1.00  0.00    -0.085 SA
ENDROOT
BRANCH   1  14
HETATM   14  N2  UNL     1      24.616   1.935  51.723  1.00  0.00     0.106 N 
HETATM   15  H9  UNL     1      24.848   1.157  51.097  1.00  0.00     0.318 HD
BRANCH  14  16
HETATM   16  C6  UNL     1      24.146   1.410  53.016  1.00  0.00     0.299 C 
BRANCH  16  17
HETATM   17  C5  UNL     1      24.569   0.016  53.215  1.00  0.00     0.003 C 
HETATM   18  C4  UNL     1      25.562  -0.459  53.945  1.00  0.00    -0.001 C 
BRANCH  18  19
HETATM   19  C3  UNL     1      26.441   0.403  54.713  1.00  0.00     0.019 C 
HETATM   20  C2  UNL     1      27.744   0.192  54.699  1.00  0.00     0.115 C 
BRANCH  20  21
HETATM   21  N1  UNL     1      28.369  -0.852  53.964  1.00  0.00    -0.284 NA
HETATM   22  C1  UNL     1      29.663  -0.879  53.782  1.00  0.00     0.148 C 
ENDBRANCH  20  21
ENDBRANCH  18  19
ENDBRANCH  16  17
ENDBRANCH  14  16
ENDBRANCH   1  14
TORSDOF 5
ENDMDL
MODEL 4
REMARK VINA RESULT:      -6.7      3.869      6.473
REMARK  5 active torsions:
REMARK  status: ('A' for Active; 'I' for Inactive)
REMARK    1  A    between atoms: N1_2  and  C2_3 
REMARK    2  A    between atoms: C3_4  and  C4_5 
REMARK    3  A    between atoms: C5_6  and  C6_7 
REMARK    4  A    between atoms: C6_7  and  N2_8 
REMARK    5  A    between atoms: N2_8  and  C7_9 
ROOT
HETATM    1  C7  UNL     1      23.969   4.377  51.170  1.00  0.00     0.327 C 
HETATM    2  C8  UNL     1      23.932   5.775  51.656  1.00  0.00     0.139 C 
HETATM    3  N3  UNL     1      24.559   6.810  51.212  1.00  0.00    -0.237 NA
HETATM    4  C9  UNL     1      25.439   6.717  50.101  1.00  0.00     0.185 C 
HETATM    5  O1  UNL     1      26.045   7.794  49.696  1.00  0.00    -0.303 OA
HETATM    6  C10 UNL     1      26.025   8.105  48.400  1.00  0.00     0.144 C 
HETATM    7  C11 UNL     1      26.856   7.555  47.405  1.00  0.00     0.025 C 
HETATM    8  C12 UNL     1      28.217   7.350  47.169  1.00  0.00     0.002 C 
HETATM    9  C13 UNL     1      28.899   6.516  48.051  1.00  0.00     0.000 C 
HETATM   10  C14 UNL     1      28.258   5.424  48.568  1.00  0.00     0.002 C 
HETATM   11  C15 UNL     1      26.908   5.420  48.676  1.00  0.00     0.023 C 
HETATM   12  C16 UNL     1      25.765   5.638  49.361  1.00  0.00     0.056 C 
HETATM   13  S1  UNL     1      24.416   4.448  49.397  1.00  0.00    -0.085 SA
ENDROOT
BRANCH   1  14
HETATM   14  N2  UNL     1      24.945   3.617  51.921  1.00  0.00     0.106 N 
HETATM   15  H9  UNL     1      25.896   3.987  51.829  1.00  0.00     0.318 HD
BRANCH  14  16
HETATM   16  C6  UNL     1      24.881   2.260  51.354  1.00  0.00     0.299 C 
BRANCH  16  17
HETATM   17  C5  UNL     1      26.216   1.650  51.270  1.00  0.00     0.003 C 
HETATM   18  C4  UNL     1      26.708   0.622  51.938  1.00  0.00    -0.001 C 
BRANCH  18  19
HETATM   19  C3  UNL     1      25.930  -0.105  52.925  1.00  0.00     0.019 C 
HETATM   20  C2  UNL     1      26.247  -0.018  54.203  1.00  0.00     0.115 C 
BRANCH  20  21
HETATM   21  N1  UNL     1      27.329   0.758  54.699  1.00  0.00    -0.284 NA
HETATM   22  C1  UNL     1      28.499   0.225  54.939  1.00  0.00     0.148 C 
ENDBRANCH  20  21
ENDBRANCH  18  19
ENDBRANCH  16  17
ENDBRANCH  14  16
ENDBRANCH   1  14
TORSDOF 5
ENDMDL
MODEL 5
REMARK VINA RESULT:      -6.7      3.227      4.456
REMARK  5 active torsions:
REMARK  status: ('A' for Active; 'I' for Inactive)
REMARK    1  A    between atoms: N1_2  and  C2_3 
REMARK    2  A    between atoms: C3_4  and  C4_5 
REMARK    3  A    between atoms: C5_6  and  C6_7 
REMARK    4  A    between atoms: C6_7  and  N2_8 
REMARK    5  A    between atoms: N2_8  and  C7_9 
ROOT
HETATM    1  C7  UNL     1      23.853   5.512  50.907  1.00  0.00     0.327 C 
HETATM    2  C8  UNL     1      23.309   4.718  49.781  1.00  0.00     0.139 C 
HETATM    3  N3  UNL     1      23.008   3.465  49.737  1.00  0.00    -0.237 NA
HETATM    4  C9  UNL     1      23.181   2.627  50.869  1.00  0.00     0.185 C 
HETATM    5  O1  UNL     1      22.861   1.370  50.768  1.00  0.00    -0.303 OA
HETATM    6  C10 UNL     1      22.091   0.816  51.704  1.00  0.00     0.144 C 
HETATM    7  C11 UNL     1      22.523   0.352  52.962  1.00  0.00     0.025 C 
HETATM    8  C12 UNL     1      23.498  -0.496  53.490  1.00  0.00     0.002 C 
HETATM    9  C13 UNL     1      24.830  -0.148  53.279  1.00  0.00     0.000 C 
HETATM   10  C14 UNL     1      25.183   1.173  53.287  1.00  0.00     0.002 C 
HETATM   11  C15 UNL     1      24.268   2.121  52.975  1.00  0.00     0.023 C 
HETATM   12  C16 UNL     1      23.647   2.937  52.096  1.00  0.00     0.056 C 
HETATM   13  S1  UNL     1      23.327   4.673  52.445  1.00  0.00    -0.085 SA
ENDROOT
BRANCH   1  14
HETATM   14  N2  UNL     1      25.296   5.575  50.817  1.00  0.00     0.106 N 
HETATM   15  H9  UNL     1      25.683   6.434  51.218  1.00  0.00     0.318 HD
BRANCH  14  16
HETATM   16  C6  UNL     1      25.585   5.525  49.374  1.00  0.00     0.299 C 
BRANCH  16  17
HETATM   17  C5  UNL     1      26.670   4.580  49.076  1.00  0.00     0.003 C 
HETATM   18  C4  UNL     1      27.872   4.818  48.582  1.00  0.00    -0.001 C 
BRANCH  18  19
HETATM   19  C3  UNL     1      28.319   6.156  48.239  1.00  0.00     0.019 C 
HETATM   20  C2  UNL     1      29.601   6.458  48.314  1.00  0.00     0.115 C 
BRANCH  20  21
HETATM   21  N1  UNL     1      30.608   5.542  48.721  1.00  0.00    -0.284 NA
HETATM   22  C1  UNL     1      31.672   5.939  49.368  1.00  0.00     0.148 C 
ENDBRANCH  20  21
ENDBRANCH  18  19
ENDBRANCH  16  17
ENDBRANCH  14  16
ENDBRANCH   1  14
TORSDOF 5
ENDMDL
MODEL 6
REMARK VINA RESULT:      -6.5      3.019      5.398
REMARK  5 active torsions:
REMARK  status: ('A' for Active; 'I' for Inactive)
REMARK    1  A    between atoms: N1_2  and  C2_3 
REMARK    2  A    between atoms: C3_4  and  C4_5 
REMARK    3  A    between atoms: C5_6  and  C6_7 
REMARK    4  A    between atoms: C6_7  and  N2_8 
REMARK    5  A    between atoms: N2_8  and  C7_9 
ROOT
HETATM    1  C7  UNL     1      23.253   2.946  51.354  1.00  0.00     0.327 C 
HETATM    2  C8  UNL     1      22.744   1.559  51.456  1.00  0.00     0.139 C 
HETATM    3  N3  UNL     1      23.262   0.543  52.057  1.00  0.00    -0.237 NA
HETATM    4  C9  UNL     1      24.494   0.649  52.754  1.00  0.00     0.185 C 
HETATM    5  O1  UNL     1      24.969  -0.409  53.343  1.00  0.00    -0.303 OA
HETATM    6  C10 UNL     1      25.375  -0.324  54.609  1.00  0.00     0.144 C 
HETATM    7  C11 UNL     1      26.616   0.179  55.048  1.00  0.00     0.025 C 
HETATM    8  C12 UNL     1      27.975  -0.013  54.795  1.00  0.00     0.002 C 
HETATM    9  C13 UNL     1      28.432   0.275  53.511  1.00  0.00     0.000 C 
HETATM   10  C14 UNL     1      27.886   1.326  52.828  1.00  0.00     0.002 C 
HETATM   11  C15 UNL     1      26.628   1.739  53.114  1.00  0.00     0.023 C 
HETATM   12  C16 UNL     1      25.292   1.724  52.914  1.00  0.00     0.056 C 
HETATM   13  S1  UNL     1      24.310   3.228  52.820  1.00  0.00    -0.085 SA
ENDROOT
BRANCH   1  14
HETATM   14  N2  UNL     1      24.008   3.107  50.130  1.00  0.00     0.106 N 
HETATM   15  H9  UNL     1      24.403   2.226  49.786  1.00  0.00     0.318 HD
BRANCH  14  16
HETATM   16  C6  UNL     1      25.095   4.037  50.480  1.00  0.00     0.299 C 
BRANCH  16  17
HETATM   17  C5  UNL     1      26.353   3.665  49.817  1.00  0.00     0.003 C 
HETATM   18  C4  UNL     1      27.118   4.385  49.015  1.00  0.00    -0.001 C 
BRANCH  18  19
HETATM   19  C3  UNL     1      26.792   5.752  48.652  1.00  0.00     0.019 C 
HETATM   20  C2  UNL     1      27.749   6.572  48.259  1.00  0.00     0.115 C 
BRANCH  20  21
HETATM   21  N1  UNL     1      29.118   6.203  48.163  1.00  0.00    -0.284 NA
HETATM   22  C1  UNL     1      30.001   6.995  47.613  1.00  0.00     0.148 C 
ENDBRANCH  20  21
ENDBRANCH  18  19
ENDBRANCH  16  17
ENDBRANCH  14  16
ENDBRANCH   1  14
TORSDOF 5
ENDMDL
MODEL 7
REMARK VINA RESULT:      -6.2      1.616      2.226
REMARK  5 active torsions:
REMARK  status: ('A' for Active; 'I' for Inactive)
REMARK    1  A    between atoms: N1_2  and  C2_3 
REMARK    2  A    between atoms: C3_4  and  C4_5 
REMARK    3  A    between atoms: C5_6  and  C6_7 
REMARK    4  A    between atoms: C6_7  and  N2_8 
REMARK    5  A    between atoms: N2_8  and  C7_9 
ROOT
HETATM    1  C7  UNL     1      22.231   3.430  49.641  1.00  0.00     0.327 C 
HETATM    2  C8  UNL     1      21.097   2.578  49.213  1.00  0.00     0.139 C 
HETATM    3  N3  UNL     1      20.515   1.618  49.844  1.00  0.00    -0.237 NA
HETATM    4  C9  UNL     1      20.934   1.231  51.144  1.00  0.00     0.185 C 
HETATM    5  O1  UNL     1      20.310   0.254  51.734  1.00  0.00    -0.303 OA
HETATM    6  C10 UNL     1      19.888   0.413  52.988  1.00  0.00     0.144 C 
HETATM    7  C11 UNL     1      20.677   0.285  54.148  1.00  0.00     0.025 C 
HETATM    8  C12 UNL     1      21.548  -0.638  54.729  1.00  0.00     0.002 C 
HETATM    9  C13 UNL     1      22.715  -0.942  54.030  1.00  0.00     0.000 C 
HETATM   10  C14 UNL     1      23.345   0.044  53.322  1.00  0.00     0.002 C 
HETATM   11  C15 UNL     1      22.639   1.103  52.860  1.00  0.00     0.023 C 
HETATM   12  C16 UNL     1      21.925   1.737  51.905  1.00  0.00     0.056 C 
HETATM   13  S1  UNL     1      22.204   3.460  51.470  1.00  0.00    -0.085 SA
ENDROOT
BRANCH   1  14
HETATM   14  N2  UNL     1      23.476   2.881  49.149  1.00  0.00     0.106 N 
HETATM   15  H9  UNL     1      23.684   1.955  49.535  1.00  0.00     0.318 HD
BRANCH  14  16
HETATM   16  C6  UNL     1      24.506   3.842  49.578  1.00  0.00     0.299 C 
BRANCH  16  17
HETATM   17  C5  UNL     1      25.844   3.236  49.565  1.00  0.00     0.003 C 
HETATM   18  C4  UNL     1      26.525   2.695  50.560  1.00  0.00    -0.001 C 
BRANCH  18  19
HETATM   19  C3  UNL     1      25.998   2.620  51.910  1.00  0.00     0.019 C 
HETATM   20  C2  UNL     1      26.366   1.632  52.704  1.00  0.00     0.115 C 
BRANCH  20  21
HETATM   21  N1  UNL     1      27.268   0.603  52.322  1.00  0.00    -0.284 NA
HETATM   22  C1  UNL     1      27.021  -0.654  52.583  1.00  0.00     0.148 C 
ENDBRANCH  20  21
ENDBRANCH  18  19
ENDBRANCH  16  17
ENDBRANCH  14  16
ENDBRANCH   1  14
TORSDOF 5
ENDMDL
MODEL 8
REMARK VINA RESULT:      -6.1      2.771      6.543
REMARK  5 active torsions:
REMARK  status: ('A' for Active; 'I' for Inactive)
REMARK    1  A    between atoms: N1_2  and  C2_3 
REMARK    2  A    between atoms: C3_4  and  C4_5 
REMARK    3  A    between atoms: C5_6  and  C6_7 
REMARK    4  A    between atoms: C6_7  and  N2_8 
REMARK    5  A    between atoms: N2_8  and  C7_9 
ROOT
HETATM    1  C7  UNL     1      21.636   0.819  52.416  1.00  0.00     0.327 C 
HETATM    2  C8  UNL     1      21.530  -0.240  53.446  1.00  0.00     0.139 C 
HETATM    3  N3  UNL     1      22.462  -0.807  54.132  1.00  0.00    -0.237 NA
HETATM    4  C9  UNL     1      23.824  -0.446  53.962  1.00  0.00     0.185 C 
HETATM    5  O1  UNL     1      24.723  -1.051  54.682  1.00  0.00    -0.303 OA
HETATM    6  C10 UNL     1      25.634  -0.328  55.331  1.00  0.00     0.144 C 
HETATM    7  C11 UNL     1      26.804   0.223  54.773  1.00  0.00     0.025 C 
HETATM    8  C12 UNL     1      27.904  -0.193  54.022  1.00  0.00     0.002 C 
HETATM    9  C13 UNL     1      27.655  -0.689  52.745  1.00  0.00     0.000 C 
HETATM   10  C14 UNL     1      26.654  -0.134  51.997  1.00  0.00     0.002 C 
HETATM   11  C15 UNL     1      25.610   0.474  52.608  1.00  0.00     0.023 C 
HETATM   12  C16 UNL     1      24.365   0.469  53.133  1.00  0.00     0.056 C 
HETATM   13  S1  UNL     1      23.162   1.760  52.784  1.00  0.00    -0.085 SA
ENDROOT
BRANCH   1  14
HETATM   14  N2  UNL     1      21.699   0.224  51.098  1.00  0.00     0.106 N 
HETATM   15  H9  UNL     1      22.351  -0.565  51.048  1.00  0.00     0.318 HD
BRANCH  14  16
HETATM   16  C6  UNL     1      22.162   1.310  50.218  1.00  0.00     0.299 C 
BRANCH  16  17
HETATM   17  C5  UNL     1      21.366   1.375  48.983  1.00  0.00     0.003 C 
HETATM   18  C4  UNL     1      20.209   1.975  48.767  1.00  0.00    -0.001 C 
BRANCH  18  19
HETATM   19  C3  UNL     1      19.511   2.711  49.805  1.00  0.00     0.019 C 
HETATM   20  C2  UNL     1      18.522   2.136  50.464  1.00  0.00     0.115 C 
BRANCH  20  21
HETATM   21  N1  UNL     1      18.076   0.809  50.224  1.00  0.00    -0.284 NA
HETATM   22  C1  UNL     1      18.134  -0.110  51.152  1.00  0.00     0.148 C 
ENDBRANCH  20  21
ENDBRANCH  18  19
ENDBRANCH  16  17
ENDBRANCH  14  16
ENDBRANCH   1  14
TORSDOF 5
ENDMDL
MODEL 9
REMARK VINA RESULT:      -6.0      6.851      9.877
REMARK  5 active torsions:
REMARK  status: ('A' for Active; 'I' for Inactive)
REMARK    1  A    between atoms: N1_2  and  C2_3 
REMARK    2  A    between atoms: C3_4  and  C4_5 
REMARK    3  A    between atoms: C5_6  and  C6_7 
REMARK    4  A    between atoms: C6_7  and  N2_8 
REMARK    5  A    between atoms: N2_8  and  C7_9 
ROOT
HETATM    1  C7  UNL     1      27.569   8.121  48.672  1.00  0.00     0.327 C 
HETATM    2  C8  UNL     1      28.442   9.082  49.384  1.00  0.00     0.139 C 
HETATM    3  N3  UNL     1      29.729   9.161  49.395  1.00  0.00    -0.237 NA
HETATM    4  C9  UNL     1      30.528   8.250  48.656  1.00  0.00     0.185 C 
HETATM    5  O1  UNL     1      31.822   8.377  48.704  1.00  0.00    -0.303 OA
HETATM    6  C10 UNL     1      32.519   8.382  47.569  1.00  0.00     0.144 C 
HETATM    7  C11 UNL     1      32.903   7.246  46.828  1.00  0.00     0.025 C 
HETATM    8  C12 UNL     1      33.556   6.031  47.035  1.00  0.00     0.002 C 
HETATM    9  C13 UNL     1      32.960   5.127  47.913  1.00  0.00     0.000 C 
HETATM   10  C14 UNL     1      31.596   5.036  47.953  1.00  0.00     0.002 C 
HETATM   11  C15 UNL     1      30.836   6.096  47.591  1.00  0.00     0.023 C 
HETATM   12  C16 UNL     1      30.145   7.222  47.873  1.00  0.00     0.056 C 
HETATM   13  S1  UNL     1      28.504   7.543  47.210  1.00  0.00    -0.085 SA
ENDROOT
BRANCH   1  14
HETATM   14  N2  UNL     1      27.234   7.016  49.544  1.00  0.00     0.106 N 
HETATM   15  H9  UNL     1      28.043   6.656  50.059  1.00  0.00     0.318 HD
BRANCH  14  16
HETATM   16  C6  UNL     1      26.711   5.974  48.645  1.00  0.00     0.299 C 
BRANCH  16  17
HETATM   17  C5  UNL     1      27.192   4.640  49.034  1.00  0.00     0.003 C 
HETATM   18  C4  UNL     1      26.499   3.584  49.423  1.00  0.00    -0.001 C 
BRANCH  18  19
HETATM   19  C3  UNL     1      25.051   3.601  49.527  1.00  0.00     0.019 C 
HETATM   20  C2  UNL     1      24.472   3.271  50.666  1.00  0.00     0.115 C 
BRANCH  20  21
HETATM   21  N1  UNL     1      25.184   2.886  51.834  1.00  0.00    -0.284 NA
HETATM   22  C1  UNL     1      24.568   2.652  52.964  1.00  0.00     0.148 C 
ENDBRANCH  20  21
ENDBRANCH  18  19
ENDBRANCH  16  17
ENDBRANCH  14  16
ENDBRANCH   1  14
TORSDOF 5
ENDMDL
