MODEL 1
REMARK VINA RESULT:      -6.5      0.000      0.000
REMARK  3 active torsions:
REMARK  status: ('A' for Active; 'I' for Inactive)
REMARK    1  A    between atoms: C2_2  and  N1_3 
REMARK    2  A    between atoms: N3_8  and  C6_9 
REMARK    3  A    between atoms: C6_9  and  N4_10 
ROOT
HETATM    1  N1  UNL     1      24.467   4.397  50.118  1.00  0.00    -0.344 N 
HETATM    2  C3  UNL     1      25.337   3.211  50.318  1.00  0.00     0.203 C 
HETATM    3  N2  UNL     1      25.518   2.805  51.554  1.00  0.00    -0.279 NA
HETATM    4  C4  UNL     1      26.361   1.638  51.735  1.00  0.00     0.208 C 
HETATM    5  C5  UNL     1      25.873   0.827  52.903  1.00  0.00     0.049 C 
HETATM    6  N3  UNL     1      26.155   0.215  53.991  1.00  0.00    -0.263 NA
HETATM    7  C7  UNL     1      24.402   0.571  52.908  1.00  0.00     0.028 C 
HETATM    8  C8  UNL     1      23.176   0.697  52.334  1.00  0.00     0.129 C 
HETATM    9  N5  UNL     1      21.948   0.946  51.549  1.00  0.00    -0.397 N 
HETATM   10  C9  UNL     1      22.187   2.336  51.105  1.00  0.00     0.078 A 
HETATM   11  C10 UNL     1      22.307   1.662  49.938  1.00  0.00     0.008 A 
HETATM   12  C11 UNL     1      23.185   2.465  49.240  1.00  0.00     0.026 A 
HETATM   13  C12 UNL     1      23.382   3.442  50.188  1.00  0.00     0.039 A 
HETATM   14  C13 UNL     1      23.024   3.835  51.453  1.00  0.00     0.115 A 
HETATM   15 CL1  UNL     1      23.279   5.086  52.627  1.00  0.00    -0.109 Cl
HETATM   16  C14 UNL     1      22.154   3.103  52.217  1.00  0.00     0.061 A 
HETATM   17  H15 UNL     1      21.746  -0.055  51.853  1.00  0.00     0.155 HD
ENDROOT
BRANCH   6  18
HETATM   18  C6  UNL     1      27.476   0.161  54.499  1.00  0.00     0.414 C 
BRANCH  18  19
HETATM   19  N4  UNL     1      28.209  -0.974  53.928  1.00  0.00     0.097 N 
HETATM   20  H11 UNL     1      27.968  -1.849  54.440  1.00  0.00     0.315 HD
HETATM   21  H12 UNL     1      29.213  -0.755  54.029  1.00  0.00     0.315 HD
ENDBRANCH  18  19
ENDBRANCH   6  18
BRANCH   1  22
HETATM   22  C2  UNL     1      25.496   5.356  50.047  1.00  0.00     0.125 C 
HETATM   23  C1  UNL     1      26.526   5.047  48.966  1.00  0.00     0.027 C 
ENDBRANCH   1  22
TORSDOF 3
ENDMDL
MODEL 2
REMARK VINA RESULT:      -6.5      1.843      3.844
REMARK  3 active torsions:
REMARK  status: ('A' for Active; 'I' for Inactive)
REMARK    1  A    between atoms: C2_2  and  N1_3 
REMARK    2  A    between atoms: N3_8  and  C6_9 
REMARK    3  A    between atoms: C6_9  and  N4_10 
ROOT
HETATM    1  N1  UNL     1      21.365   2.212  51.655  1.00  0.00    -0.344 N 
HETATM    2  C3  UNL     1      22.386   1.707  52.607  1.00  0.00     0.203 C 
HETATM    3  N2  UNL     1      23.352   0.970  52.109  1.00  0.00    -0.279 NA
HETATM    4  C4  UNL     1      24.350   0.492  53.048  1.00  0.00     0.208 C 
HETATM    5  C5  UNL     1      25.694   0.420  52.378  1.00  0.00     0.049 C 
HETATM    6  N3  UNL     1      26.749  -0.262  52.134  1.00  0.00    -0.263 NA
HETATM    7  C7  UNL     1      26.066   1.641  51.604  1.00  0.00     0.028 C 
HETATM    8  C8  UNL     1      25.787   2.900  51.171  1.00  0.00     0.129 C 
HETATM    9  N5  UNL     1      25.296   4.249  50.817  1.00  0.00    -0.397 N 
HETATM   10  C9  UNL     1      23.861   3.966  50.599  1.00  0.00     0.078 A 
HETATM   11  C10 UNL     1      23.816   4.695  51.739  1.00  0.00     0.008 A 
HETATM   12  C11 UNL     1      22.682   4.196  52.345  1.00  0.00     0.026 A 
HETATM   13  C12 UNL     1      22.324   3.266  51.399  1.00  0.00     0.039 A 
HETATM   14  C13 UNL     1      22.682   2.739  50.183  1.00  0.00     0.115 A 
HETATM   15 CL1  UNL     1      22.202   1.568  48.998  1.00  0.00    -0.109 Cl
HETATM   16  C14 UNL     1      23.790   3.177  49.505  1.00  0.00     0.061 A 
HETATM   17  H15 UNL     1      26.325   4.486  50.966  1.00  0.00     0.155 HD
ENDROOT
BRANCH   6  18
HETATM   18  C6  UNL     1      26.922  -1.577  52.632  1.00  0.00     0.414 C 
BRANCH  18  19
HETATM   19  N4  UNL     1      28.182  -1.692  53.373  1.00  0.00     0.097 N 
HETATM   20  H11 UNL     1      28.074  -2.367  54.160  1.00  0.00     0.315 HD
HETATM   21  H12 UNL     1      28.400  -0.747  53.729  1.00  0.00     0.315 HD
ENDBRANCH  18  19
ENDBRANCH   6  18
BRANCH   1  22
HETATM   22  C2  UNL     1      20.408   1.203  51.877  1.00  0.00     0.125 C 
HETATM   23  C1  UNL     1      19.198   1.315  50.957  1.00  0.00     0.027 C 
ENDBRANCH   1  22
TORSDOF 3
ENDMDL
MODEL 3
REMARK VINA RESULT:      -6.1      2.659      4.883
REMARK  3 active torsions:
REMARK  status: ('A' for Active; 'I' for Inactive)
REMARK    1  A    between atoms: C2_2  and  N1_3 
REMARK    2  A    between atoms: N3_8  and  C6_9 
REMARK    3  A    between atoms: C6_9  and  N4_10 
ROOT
HETATM    1  N1  UNL     1      22.456   4.808  51.014  1.00  0.00    -0.344 N 
HETATM    2  C3  UNL     1      21.518   4.191  51.985  1.00  0.00     0.203 C 
HETATM    3  N2  UNL     1      21.102   2.973  51.722  1.00  0.00    -0.279 NA
HETATM    4  C4  UNL     1      20.194   2.378  52.685  1.00  0.00     0.208 C 
HETATM    5  C5  UNL     1      20.431   0.896  52.768  1.00  0.00     0.049 C 
HETATM    6  N3  UNL     1      19.934  -0.284  52.764  1.00  0.00    -0.263 NA
HETATM    7  C7  UNL     1      21.866   0.505  52.902  1.00  0.00     0.028 C 
HETATM    8  C8  UNL     1      23.180   0.839  53.013  1.00  0.00     0.129 C 
HETATM    9  N5  UNL     1      24.537   1.413  53.124  1.00  0.00    -0.397 N 
HETATM   10  C9  UNL     1      24.437   2.533  52.164  1.00  0.00     0.078 A 
HETATM   11  C10 UNL     1      24.502   3.200  53.340  1.00  0.00     0.008 A 
HETATM   12  C11 UNL     1      23.797   4.349  53.049  1.00  0.00     0.026 A 
HETATM   13  C12 UNL     1      23.472   4.076  51.741  1.00  0.00     0.039 A 
HETATM   14  C13 UNL     1      23.613   3.144  50.744  1.00  0.00     0.115 A 
HETATM   15 CL1  UNL     1      23.202   2.828  49.089  1.00  0.00    -0.109 Cl
HETATM   16  C14 UNL     1      24.301   1.975  50.941  1.00  0.00     0.061 A 
HETATM   17  H15 UNL     1      24.641   0.615  53.823  1.00  0.00     0.155 HD
ENDROOT
BRANCH   6  18
HETATM   18  C6  UNL     1      18.543  -0.510  52.628  1.00  0.00     0.414 C 
BRANCH  18  19
HETATM   19  N4  UNL     1      18.041  -1.340  53.728  1.00  0.00     0.097 N 
HETATM   20  H11 UNL     1      17.400  -2.075  53.358  1.00  0.00     0.315 HD
HETATM   21  H12 UNL     1      17.537  -0.706  54.369  1.00  0.00     0.315 HD
ENDBRANCH  18  19
ENDBRANCH   6  18
BRANCH   1  22
HETATM   22  C2  UNL     1      21.496   5.532  50.282  1.00  0.00     0.125 C 
HETATM   23  C1  UNL     1      21.490   7.020  50.615  1.00  0.00     0.027 C 
ENDBRANCH   1  22
TORSDOF 3
ENDMDL
MODEL 4
REMARK VINA RESULT:      -6.1      7.750     10.808
REMARK  3 active torsions:
REMARK  status: ('A' for Active; 'I' for Inactive)
REMARK    1  A    between atoms: C2_2  and  N1_3 
REMARK    2  A    between atoms: N3_8  and  C6_9 
REMARK    3  A    between atoms: C6_9  and  N4_10 
ROOT
HETATM    1  N1  UNL     1      33.595   8.863  46.643  1.00  0.00    -0.344 N 
HETATM    2  C3  UNL     1      32.572   8.605  47.688  1.00  0.00     0.203 C 
HETATM    3  N2  UNL     1      31.639   7.726  47.404  1.00  0.00    -0.279 NA
HETATM    4  C4  UNL     1      30.651   7.475  48.438  1.00  0.00     0.208 C 
HETATM    5  C5  UNL     1      30.214   6.037  48.394  1.00  0.00     0.049 C 
HETATM    6  N3  UNL     1      29.248   5.198  48.379  1.00  0.00    -0.263 NA
HETATM    7  C7  UNL     1      31.333   5.052  48.313  1.00  0.00     0.028 C 
HETATM    8  C8  UNL     1      32.663   4.770  48.271  1.00  0.00     0.129 C 
HETATM    9  N5  UNL     1      34.139   4.683  48.239  1.00  0.00    -0.397 N 
HETATM   10  C9  UNL     1      34.459   5.839  47.373  1.00  0.00     0.078 A 
HETATM   11  C10 UNL     1      34.917   6.272  48.571  1.00  0.00     0.008 A 
HETATM   12  C11 UNL     1      34.771   7.638  48.450  1.00  0.00     0.026 A 
HETATM   13  C12 UNL     1      34.243   7.685  47.182  1.00  0.00     0.039 A 
HETATM   14  C13 UNL     1      33.866   6.906  46.117  1.00  0.00     0.115 A 
HETATM   15 CL1  UNL     1      33.210   6.993  44.514  1.00  0.00    -0.109 Cl
HETATM   16  C14 UNL     1      33.980   5.540  46.146  1.00  0.00     0.061 A 
HETATM   17  H15 UNL     1      33.941   3.844  48.865  1.00  0.00     0.155 HD
ENDROOT
BRANCH   6  18
HETATM   18  C6  UNL     1      27.895   5.613  48.414  1.00  0.00     0.414 C 
BRANCH  18  19
HETATM   19  N4  UNL     1      27.101   4.728  49.273  1.00  0.00     0.097 N 
HETATM   20  H11 UNL     1      26.261   4.387  48.757  1.00  0.00     0.315 HD
HETATM   21  H12 UNL     1      26.822   5.289  50.094  1.00  0.00     0.315 HD
ENDBRANCH  18  19
ENDBRANCH   6  18
BRANCH   1  22
HETATM   22  C2  UNL     1      32.994  10.011  46.092  1.00  0.00     0.125 C 
HETATM   23  C1  UNL     1      33.067  11.223  47.013  1.00  0.00     0.027 C 
ENDBRANCH   1  22
TORSDOF 3
ENDMDL
MODEL 5
REMARK VINA RESULT:      -5.9      1.893      3.187
REMARK  3 active torsions:
REMARK  status: ('A' for Active; 'I' for Inactive)
REMARK    1  A    between atoms: C2_2  and  N1_3 
REMARK    2  A    between atoms: N3_8  and  C6_9 
REMARK    3  A    between atoms: C6_9  and  N4_10 
ROOT
HETATM    1  N1  UNL     1      22.174   2.909  49.498  1.00  0.00    -0.344 N 
HETATM    2  C3  UNL     1      22.191   1.971  50.649  1.00  0.00     0.203 C 
HETATM    3  N2  UNL     1      23.368   1.615  51.111  1.00  0.00    -0.279 NA
HETATM    4  C4  UNL     1      23.371   0.707  52.243  1.00  0.00     0.208 C 
HETATM    5  C5  UNL     1      24.541   1.005  53.138  1.00  0.00     0.049 C 
HETATM    6  N3  UNL     1      25.545   0.560  53.793  1.00  0.00    -0.263 NA
HETATM    7  C7  UNL     1      24.716   2.451  53.467  1.00  0.00     0.028 C 
HETATM    8  C8  UNL     1      24.311   3.746  53.371  1.00  0.00     0.129 C 
HETATM    9  N5  UNL     1      23.704   5.074  53.142  1.00  0.00    -0.397 N 
HETATM   10  C9  UNL     1      23.317   4.953  51.719  1.00  0.00     0.078 A 
HETATM   11  C10 UNL     1      22.105   4.956  52.323  1.00  0.00     0.008 A 
HETATM   12  C11 UNL     1      21.351   4.211  51.441  1.00  0.00     0.026 A 
HETATM   13  C12 UNL     1      22.323   3.934  50.508  1.00  0.00     0.039 A 
HETATM   14  C13 UNL     1      23.644   4.142  50.202  1.00  0.00     0.115 A 
HETATM   15 CL1  UNL     1      24.849   3.791  49.005  1.00  0.00    -0.109 Cl
HETATM   16  C14 UNL     1      24.468   4.875  51.016  1.00  0.00     0.061 A 
HETATM   17  H15 UNL     1      23.970   5.193  54.167  1.00  0.00     0.155 HD
ENDROOT
BRANCH   6  18
HETATM   18  C6  UNL     1      25.879  -0.817  53.809  1.00  0.00     0.414 C 
BRANCH  18  19
HETATM   19  N4  UNL     1      27.304  -1.011  53.519  1.00  0.00     0.097 N 
HETATM   20  H11 UNL     1      27.505  -0.757  52.529  1.00  0.00     0.315 HD
HETATM   21  H12 UNL     1      27.504  -2.010  53.690  1.00  0.00     0.315 HD
ENDBRANCH  18  19
ENDBRANCH   6  18
BRANCH   1  22
HETATM   22  C2  UNL     1      22.030   1.939  48.487  1.00  0.00     0.125 C 
HETATM   23  C1  UNL     1      22.202   2.509  47.084  1.00  0.00     0.027 C 
ENDBRANCH   1  22
TORSDOF 3
ENDMDL
MODEL 6
REMARK VINA RESULT:      -5.7      8.154      9.983
REMARK  3 active torsions:
REMARK  status: ('A' for Active; 'I' for Inactive)
REMARK    1  A    between atoms: C2_2  and  N1_3 
REMARK    2  A    between atoms: N3_8  and  C6_9 
REMARK    3  A    between atoms: C6_9  and  N4_10 
ROOT
HETATM    1  N1  UNL     1      30.783   9.950  46.135  1.00  0.00    -0.344 N 
HETATM    2  C3  UNL     1      31.659   8.765  45.959  1.00  0.00     0.203 C 
HETATM    3  N2  UNL     1      32.428   8.435  46.971  1.00  0.00    -0.279 NA
HETATM    4  C4  UNL     1      33.272   7.268  46.789  1.00  0.00     0.208 C 
HETATM    5  C5  UNL     1      33.431   6.540  48.095  1.00  0.00     0.049 C 
HETATM    6  N3  UNL     1      34.218   5.993  48.942  1.00  0.00    -0.263 NA
HETATM    7  C7  UNL     1      32.154   6.308  48.834  1.00  0.00     0.028 C 
HETATM    8  C8  UNL     1      30.802   6.418  48.926  1.00  0.00     0.129 C 
HETATM    9  N5  UNL     1      29.343   6.636  48.827  1.00  0.00    -0.397 N 
HETATM   10  C9  UNL     1      29.311   7.991  48.237  1.00  0.00     0.078 A 
HETATM   11  C10 UNL     1      28.857   7.243  47.204  1.00  0.00     0.008 A 
HETATM   12  C11 UNL     1      29.268   7.988  46.118  1.00  0.00     0.026 A 
HETATM   13  C12 UNL     1      29.886   9.018  46.786  1.00  0.00     0.039 A 
HETATM   14  C13 UNL     1      30.185   9.496  48.037  1.00  0.00     0.115 A 
HETATM   15 CL1  UNL     1      30.960  10.813  48.856  1.00  0.00    -0.109 Cl
HETATM   16  C14 UNL     1      29.812   8.827  49.173  1.00  0.00     0.061 A 
HETATM   17  H15 UNL     1      29.332   5.659  49.253  1.00  0.00     0.155 HD
ENDROOT
BRANCH   6  18
HETATM   18  C6  UNL     1      35.620   5.950  48.743  1.00  0.00     0.414 C 
BRANCH  18  19
HETATM   19  N4  UNL     1      36.319   5.703  50.008  1.00  0.00     0.097 N 
HETATM   20  H11 UNL     1      37.301   5.407  49.823  1.00  0.00     0.315 HD
HETATM   21  H12 UNL     1      35.796   4.954  50.491  1.00  0.00     0.315 HD
ENDBRANCH  18  19
ENDBRANCH   6  18
BRANCH   1  22
HETATM   22  C2  UNL     1      31.630  10.886  45.511  1.00  0.00     0.125 C 
HETATM   23  C1  UNL     1      31.050  12.296  45.492  1.00  0.00     0.027 C 
ENDBRANCH   1  22
TORSDOF 3
ENDMDL
MODEL 7
REMARK VINA RESULT:      -5.7      2.743      4.566
REMARK  3 active torsions:
REMARK  status: ('A' for Active; 'I' for Inactive)
REMARK    1  A    between atoms: C2_2  and  N1_3 
REMARK    2  A    between atoms: N3_8  and  C6_9 
REMARK    3  A    between atoms: C6_9  and  N4_10 
ROOT
HETATM    1  N1  UNL     1      20.675   3.834  49.536  1.00  0.00    -0.344 N 
HETATM    2  C3  UNL     1      20.451   3.208  50.864  1.00  0.00     0.203 C 
HETATM    3  N2  UNL     1      21.129   2.115  51.130  1.00  0.00    -0.279 NA
HETATM    4  C4  UNL     1      20.909   1.520  52.436  1.00  0.00     0.208 C 
HETATM    5  C5  UNL     1      22.179   0.887  52.933  1.00  0.00     0.049 C 
HETATM    6  N3  UNL     1      22.752  -0.136  53.443  1.00  0.00    -0.263 NA
HETATM    7  C7  UNL     1      23.390   1.751  52.810  1.00  0.00     0.028 C 
HETATM    8  C8  UNL     1      23.976   2.928  52.460  1.00  0.00     0.129 C 
HETATM    9  N5  UNL     1      24.408   4.272  52.022  1.00  0.00    -0.397 N 
HETATM   10  C9  UNL     1      23.579   4.440  50.809  1.00  0.00     0.078 A 
HETATM   11  C10 UNL     1      23.012   5.343  51.643  1.00  0.00     0.008 A 
HETATM   12  C11 UNL     1      21.711   5.367  51.187  1.00  0.00     0.026 A 
HETATM   13  C12 UNL     1      21.822   4.446  50.172  1.00  0.00     0.039 A 
HETATM   14  C13 UNL     1      22.708   3.614  49.534  1.00  0.00     0.115 A 
HETATM   15 CL1  UNL     1      22.826   2.467  48.239  1.00  0.00    -0.109 Cl
HETATM   16  C14 UNL     1      24.021   3.529  49.915  1.00  0.00     0.061 A 
HETATM   17  H15 UNL     1      25.019   4.181  52.890  1.00  0.00     0.155 HD
ENDROOT
BRANCH   6  18
HETATM   18  C6  UNL     1      22.037  -1.318  53.755  1.00  0.00     0.414 C 
BRANCH  18  19
HETATM   19  N4  UNL     1      21.038  -1.062  54.798  1.00  0.00     0.097 N 
HETATM   20  H11 UNL     1      20.141  -1.537  54.559  1.00  0.00     0.315 HD
HETATM   21  H12 UNL     1      20.910  -0.037  54.837  1.00  0.00     0.315 HD
ENDBRANCH  18  19
ENDBRANCH   6  18
BRANCH   1  22
HETATM   22  C2  UNL     1      19.569   3.255  48.884  1.00  0.00     0.125 C 
HETATM   23  C1  UNL     1      18.232   3.712  49.456  1.00  0.00     0.027 C 
ENDBRANCH   1  22
TORSDOF 3
ENDMDL
MODEL 8
REMARK VINA RESULT:      -5.7      2.189      4.211
REMARK  3 active torsions:
REMARK  status: ('A' for Active; 'I' for Inactive)
REMARK    1  A    between atoms: C2_2  and  N1_3 
REMARK    2  A    between atoms: N3_8  and  C6_9 
REMARK    3  A    between atoms: C6_9  and  N4_10 
ROOT
HETATM    1  N1  UNL     1      25.147   2.875  51.686  1.00  0.00    -0.344 N 
HETATM    2  C3  UNL     1      24.254   1.722  51.409  1.00  0.00     0.203 C 
HETATM    3  N2  UNL     1      23.127   1.666  52.082  1.00  0.00    -0.279 NA
HETATM    4  C4  UNL     1      22.258   0.540  51.795  1.00  0.00     0.208 C 
HETATM    5  C5  UNL     1      20.819   0.956  51.924  1.00  0.00     0.049 C 
HETATM    6  N3  UNL     1      19.658   0.709  52.403  1.00  0.00    -0.263 NA
HETATM    7  C7  UNL     1      20.478   2.232  51.229  1.00  0.00     0.028 C 
HETATM    8  C8  UNL     1      20.836   3.294  50.458  1.00  0.00     0.129 C 
HETATM    9  N5  UNL     1      21.428   4.356  49.616  1.00  0.00    -0.397 N 
HETATM   10  C9  UNL     1      22.753   4.502  50.257  1.00  0.00     0.078 A 
HETATM   11  C10 UNL     1      23.093   3.940  49.073  1.00  0.00     0.008 A 
HETATM   12  C11 UNL     1      24.242   3.255  49.409  1.00  0.00     0.026 A 
HETATM   13  C12 UNL     1      24.303   3.579  50.744  1.00  0.00     0.039 A 
HETATM   14  C13 UNL     1      23.670   4.288  51.734  1.00  0.00     0.115 A 
HETATM   15 CL1  UNL     1      23.777   4.693  53.417  1.00  0.00    -0.109 Cl
HETATM   16  C14 UNL     1      22.527   5.003  51.491  1.00  0.00     0.061 A 
HETATM   17  H15 UNL     1      20.482   4.274  49.133  1.00  0.00     0.155 HD
ENDROOT
BRANCH   6  18
HETATM   18  C6  UNL     1      19.406  -0.429  53.208  1.00  0.00     0.414 C 
BRANCH  18  19
HETATM   19  N4  UNL     1      20.188  -0.374  54.447  1.00  0.00     0.097 N 
HETATM   20  H11 UNL     1      20.627  -1.300  54.635  1.00  0.00     0.315 HD
HETATM   21  H12 UNL     1      19.527  -0.123  55.201  1.00  0.00     0.315 HD
ENDBRANCH  18  19
ENDBRANCH   6  18
BRANCH   1  22
HETATM   22  C2  UNL     1      25.989   2.224  52.608  1.00  0.00     0.125 C 
HETATM   23  C1  UNL     1      26.678   0.996  52.023  1.00  0.00     0.027 C 
ENDBRANCH   1  22
TORSDOF 3
ENDMDL
MODEL 9
REMARK VINA RESULT:      -5.6      8.453     10.871
REMARK  3 active torsions:
REMARK  status: ('A' for Active; 'I' for Inactive)
REMARK    1  A    between atoms: C2_2  and  N1_3 
REMARK    2  A    between atoms: N3_8  and  C6_9 
REMARK    3  A    between atoms: C6_9  and  N4_10 
ROOT
HETATM    1  N1  UNL     1      29.060   9.491  48.569  1.00  0.00    -0.344 N 
HETATM    2  C3  UNL     1      30.209   8.909  49.309  1.00  0.00     0.203 C 
HETATM    3  N2  UNL     1      30.979   8.073  48.652  1.00  0.00    -0.279 NA
HETATM    4  C4  UNL     1      32.105   7.520  49.383  1.00  0.00     0.208 C 
HETATM    5  C5  UNL     1      33.267   7.307  48.453  1.00  0.00     0.049 C 
HETATM    6  N3  UNL     1      34.181   6.522  48.023  1.00  0.00    -0.263 NA
HETATM    7  C7  UNL     1      33.576   8.472  47.571  1.00  0.00     0.028 C 
HETATM    8  C8  UNL     1      33.327   9.743  47.156  1.00  0.00     0.129 C 
HETATM    9  N5  UNL     1      32.895  11.125  46.858  1.00  0.00    -0.397 N 
HETATM   10  C9  UNL     1      31.427  10.976  46.953  1.00  0.00     0.078 A 
HETATM   11  C10 UNL     1      31.687  11.728  48.048  1.00  0.00     0.008 A 
HETATM   12  C11 UNL     1      30.665  11.353  48.895  1.00  0.00     0.026 A 
HETATM   13  C12 UNL     1      30.035  10.442  48.080  1.00  0.00     0.039 A 
HETATM   14  C13 UNL     1      30.082   9.860  46.838  1.00  0.00     0.115 A 
HETATM   15 CL1  UNL     1      29.262   8.717  45.824  1.00  0.00    -0.109 Cl
HETATM   16  C14 UNL     1      31.058  10.176  45.929  1.00  0.00     0.061 A 
HETATM   17  H15 UNL     1      33.949  11.265  46.783  1.00  0.00     0.155 HD
ENDROOT
BRANCH   6  18
HETATM   18  C6  UNL     1      34.336   5.207  48.525  1.00  0.00     0.414 C 
BRANCH  18  19
HETATM   19  N4  UNL     1      35.459   5.137  49.466  1.00  0.00     0.097 N 
HETATM   20  H11 UNL     1      35.299   4.374  50.158  1.00  0.00     0.315 HD
HETATM   21  H12 UNL     1      35.503   6.055  49.938  1.00  0.00     0.315 HD
ENDBRANCH  18  19
ENDBRANCH   6  18
BRANCH   1  22
HETATM   22  C2  UNL     1      28.084   8.583  49.024  1.00  0.00     0.125 C 
HETATM   23  C1  UNL     1      27.268   9.120  50.193  1.00  0.00     0.027 C 
ENDBRANCH   1  22
TORSDOF 3
ENDMDL
