MODEL 1
REMARK VINA RESULT:      -7.8      0.000      0.000
REMARK  6 active torsions:
REMARK  status: ('A' for Active; 'I' for Inactive)
REMARK    1  A    between atoms: C2_2  and  C3_3 
REMARK    2  A    between atoms: C3_3  and  N1_5 
REMARK    3  A    between atoms: N1_5  and  C5_6 
REMARK    4  A    between atoms: C9_10  and  N2_11 
REMARK    5  A    between atoms: N2_11  and  N3_12 
REMARK    6  A    between atoms: N3_12  and  C10_13 
ROOT
HETATM    1  C5  UNL     1      27.388   2.168  52.547  1.00  0.00     0.030 A 
HETATM    2  C6  UNL     1      28.560   2.293  53.260  1.00  0.00     0.029 A 
HETATM    3  C7  UNL     1      29.046   1.418  54.206  1.00  0.00     0.005 A 
HETATM    4  C8  UNL     1      28.292   0.296  54.476  1.00  0.00     0.031 A 
HETATM    5  C9  UNL     1      27.109   0.115  53.792  1.00  0.00     0.050 A 
HETATM    6  C16 UNL     1      26.683   1.031  52.860  1.00  0.00     0.060 A 
ENDROOT
BRANCH   5   7
HETATM    7  N2  UNL     1      26.317  -1.036  54.056  1.00  0.00    -0.300 N 
HETATM    8  H14 UNL     1      26.582  -1.978  53.714  1.00  0.00     0.187 HD
BRANCH   7   9
HETATM    9  N3  UNL     1      25.151  -0.886  54.797  1.00  0.00    -0.300 N 
HETATM   10  H15 UNL     1      25.008  -0.786  55.826  1.00  0.00     0.187 HD
BRANCH   9  11
HETATM   11  C10 UNL     1      23.785  -0.817  54.406  1.00  0.00     0.049 A 
HETATM   12  C11 UNL     1      22.745  -1.341  55.149  1.00  0.00     0.031 A 
HETATM   13  C12 UNL     1      21.445  -1.230  54.695  1.00  0.00     0.004 A 
HETATM   14  C13 UNL     1      21.133  -0.600  53.497  1.00  0.00     0.019 A 
HETATM   15  C14 UNL     1      22.148  -0.066  52.729  1.00  0.00     0.013 A 
HETATM   16 BR1  UNL     1      21.859   0.822  51.071  1.00  0.00    -0.051 Br
HETATM   17  C15 UNL     1      23.432  -0.194  53.212  1.00  0.00     0.050 A 
ENDBRANCH   9  11
ENDBRANCH   7   9
ENDBRANCH   5   7
BRANCH   1  18
HETATM   18  N1  UNL     1      26.906   3.099  51.592  1.00  0.00    -0.386 N 
HETATM   19  H10 UNL     1      26.908   4.103  51.958  1.00  0.00     0.160 HD
BRANCH  18  20
HETATM   20  C3  UNL     1      26.428   2.966  50.255  1.00  0.00     0.077 C 
HETATM   21  C4  UNL     1      24.910   3.132  50.262  1.00  0.00     0.032 C 
BRANCH  20  22
HETATM   22  C2  UNL     1      26.933   3.997  49.284  1.00  0.00     0.020 C 
HETATM   23  C1  UNL     1      26.124   5.229  49.136  1.00  0.00     0.007 C 
ENDBRANCH  20  22
ENDBRANCH  18  20
ENDBRANCH   1  18
TORSDOF 6
ENDMDL
MODEL 2
REMARK VINA RESULT:      -7.3      2.404      6.443
REMARK  6 active torsions:
REMARK  status: ('A' for Active; 'I' for Inactive)
REMARK    1  A    between atoms: C2_2  and  C3_3 
REMARK    2  A    between atoms: C3_3  and  N1_5 
REMARK    3  A    between atoms: N1_5  and  C5_6 
REMARK    4  A    between atoms: C9_10  and  N2_11 
REMARK    5  A    between atoms: N2_11  and  N3_12 
REMARK    6  A    between atoms: N3_12  and  C10_13 
ROOT
HETATM    1  C5  UNL     1      22.500   1.428  50.942  1.00  0.00     0.030 A 
HETATM    2  C6  UNL     1      22.326   1.794  49.626  1.00  0.00     0.029 A 
HETATM    3  C7  UNL     1      23.079   2.704  48.917  1.00  0.00     0.005 A 
HETATM    4  C8  UNL     1      24.118   3.320  49.582  1.00  0.00     0.031 A 
HETATM    5  C9  UNL     1      24.342   2.994  50.902  1.00  0.00     0.050 A 
HETATM    6  C16 UNL     1      23.550   2.075  51.549  1.00  0.00     0.060 A 
ENDROOT
BRANCH   5   7
HETATM    7  N2  UNL     1      25.409   3.618  51.606  1.00  0.00    -0.300 N 
HETATM    8  H14 UNL     1      25.274   4.487  52.153  1.00  0.00     0.187 HD
BRANCH   7   9
HETATM    9  N3  UNL     1      26.671   3.036  51.553  1.00  0.00    -0.300 N 
HETATM   10  H15 UNL     1      27.468   3.201  50.900  1.00  0.00     0.187 HD
BRANCH   9  11
HETATM   11  C10 UNL     1      27.285   2.038  52.359  1.00  0.00     0.049 A 
HETATM   12  C11 UNL     1      28.201   2.312  53.357  1.00  0.00     0.031 A 
HETATM   13  C12 UNL     1      28.750   1.281  54.094  1.00  0.00     0.004 A 
HETATM   14  C13 UNL     1      28.413  -0.048  53.870  1.00  0.00     0.019 A 
HETATM   15  C14 UNL     1      27.501  -0.357  52.880  1.00  0.00     0.013 A 
HETATM   16 BR1  UNL     1      26.953  -2.132  52.471  1.00  0.00    -0.051 Br
HETATM   17  C15 UNL     1      26.974   0.696  52.165  1.00  0.00     0.050 A 
ENDBRANCH   9  11
ENDBRANCH   7   9
ENDBRANCH   5   7
BRANCH   1  18
HETATM   18  N1  UNL     1      21.694   0.500  51.648  1.00  0.00    -0.386 N 
HETATM   19  H10 UNL     1      21.141  -0.144  51.000  1.00  0.00     0.160 HD
BRANCH  18  20
HETATM   20  C3  UNL     1      21.479   0.254  53.037  1.00  0.00     0.077 C 
HETATM   21  C4  UNL     1      20.064  -0.293  53.220  1.00  0.00     0.032 C 
BRANCH  20  22
HETATM   22  C2  UNL     1      22.382  -0.775  53.658  1.00  0.00     0.020 C 
HETATM   23  C1  UNL     1      21.767  -1.701  54.636  1.00  0.00     0.007 C 
ENDBRANCH  20  22
ENDBRANCH  18  20
ENDBRANCH   1  18
TORSDOF 6
ENDMDL
MODEL 3
REMARK VINA RESULT:      -7.2      2.696      6.802
REMARK  6 active torsions:
REMARK  status: ('A' for Active; 'I' for Inactive)
REMARK    1  A    between atoms: C2_2  and  C3_3 
REMARK    2  A    between atoms: C3_3  and  N1_5 
REMARK    3  A    between atoms: N1_5  and  C5_6 
REMARK    4  A    between atoms: C9_10  and  N2_11 
REMARK    5  A    between atoms: N2_11  and  N3_12 
REMARK    6  A    between atoms: N3_12  and  C10_13 
ROOT
HETATM    1  C5  UNL     1      26.232   0.243  52.827  1.00  0.00     0.030 A 
HETATM    2  C6  UNL     1      25.058  -0.383  53.183  1.00  0.00     0.029 A 
HETATM    3  C7  UNL     1      23.797   0.170  53.182  1.00  0.00     0.005 A 
HETATM    4  C8  UNL     1      23.683   1.486  52.785  1.00  0.00     0.031 A 
HETATM    5  C9  UNL     1      24.824   2.165  52.415  1.00  0.00     0.050 A 
HETATM    6  C16 UNL     1      26.053   1.550  52.441  1.00  0.00     0.060 A 
ENDROOT
BRANCH   5   7
HETATM    7  N2  UNL     1      24.728   3.522  52.003  1.00  0.00    -0.300 N 
HETATM    8  H14 UNL     1      24.589   4.295  52.679  1.00  0.00     0.187 HD
BRANCH   7   9
HETATM    9  N3  UNL     1      24.825   3.814  50.647  1.00  0.00    -0.300 N 
HETATM   10  H15 UNL     1      24.231   3.514  49.844  1.00  0.00     0.187 HD
BRANCH   9  11
HETATM   11  C10 UNL     1      25.753   4.606  49.916  1.00  0.00     0.049 A 
HETATM   12  C11 UNL     1      26.856   4.092  49.263  1.00  0.00     0.031 A 
HETATM   13  C12 UNL     1      27.707   4.935  48.574  1.00  0.00     0.004 A 
HETATM   14  C13 UNL     1      27.495   6.306  48.508  1.00  0.00     0.019 A 
HETATM   15  C14 UNL     1      26.401   6.853  49.149  1.00  0.00     0.013 A 
HETATM   16 BR1  UNL     1      25.995   8.711  49.137  1.00  0.00    -0.051 Br
HETATM   17  C15 UNL     1      25.575   5.984  49.827  1.00  0.00     0.050 A 
ENDBRANCH   9  11
ENDBRANCH   7   9
ENDBRANCH   5   7
BRANCH   1  18
HETATM   18  N1  UNL     1      27.519  -0.351  52.857  1.00  0.00    -0.386 N 
HETATM   19  H10 UNL     1      27.850  -0.667  51.892  1.00  0.00     0.160 HD
BRANCH  18  20
HETATM   20  C3  UNL     1      28.452  -0.604  53.906  1.00  0.00     0.077 C 
HETATM   21  C4  UNL     1      29.819  -0.888  53.284  1.00  0.00     0.032 C 
BRANCH  20  22
HETATM   22  C2  UNL     1      28.681   0.538  54.856  1.00  0.00     0.020 C 
HETATM   23  C1  UNL     1      29.255   1.778  54.284  1.00  0.00     0.007 C 
ENDBRANCH  20  22
ENDBRANCH  18  20
ENDBRANCH   1  18
TORSDOF 6
ENDMDL
MODEL 4
REMARK VINA RESULT:      -7.0      3.037      7.416
REMARK  6 active torsions:
REMARK  status: ('A' for Active; 'I' for Inactive)
REMARK    1  A    between atoms: C2_2  and  C3_3 
REMARK    2  A    between atoms: C3_3  and  N1_5 
REMARK    3  A    between atoms: N1_5  and  C5_6 
REMARK    4  A    between atoms: C9_10  and  N2_11 
REMARK    5  A    between atoms: N2_11  and  N3_12 
REMARK    6  A    between atoms: N3_12  and  C10_13 
ROOT
HETATM    1  C5  UNL     1      26.112   0.435  52.555  1.00  0.00     0.030 A 
HETATM    2  C6  UNL     1      24.819   0.063  52.853  1.00  0.00     0.029 A 
HETATM    3  C7  UNL     1      23.679   0.803  52.633  1.00  0.00     0.005 A 
HETATM    4  C8  UNL     1      23.832   2.046  52.055  1.00  0.00     0.031 A 
HETATM    5  C9  UNL     1      25.103   2.472  51.734  1.00  0.00     0.050 A 
HETATM    6  C16 UNL     1      26.199   1.681  51.983  1.00  0.00     0.060 A 
ENDROOT
BRANCH   5   7
HETATM    7  N2  UNL     1      25.282   3.751  51.138  1.00  0.00    -0.300 N 
HETATM    8  H14 UNL     1      24.996   4.626  51.613  1.00  0.00     0.187 HD
BRANCH   7   9
HETATM    9  N3  UNL     1      25.861   3.820  49.875  1.00  0.00    -0.300 N 
HETATM   10  H15 UNL     1      25.981   3.088  49.142  1.00  0.00     0.187 HD
BRANCH   9  11
HETATM   11  C10 UNL     1      26.472   4.897  49.174  1.00  0.00     0.049 A 
HETATM   12  C11 UNL     1      25.797   6.033  48.771  1.00  0.00     0.031 A 
HETATM   13  C12 UNL     1      26.469   7.033  48.094  1.00  0.00     0.004 A 
HETATM   14  C13 UNL     1      27.822   6.942  47.797  1.00  0.00     0.019 A 
HETATM   15  C14 UNL     1      28.527   5.820  48.185  1.00  0.00     0.013 A 
HETATM   16 BR1  UNL     1      30.381   5.569  47.841  1.00  0.00    -0.051 Br
HETATM   17  C15 UNL     1      27.826   4.843  48.857  1.00  0.00     0.050 A 
ENDBRANCH   9  11
ENDBRANCH   7   9
ENDBRANCH   5   7
BRANCH   1  18
HETATM   18  N1  UNL     1      27.268  -0.344  52.813  1.00  0.00    -0.386 N 
HETATM   19  H10 UNL     1      27.158  -1.361  52.504  1.00  0.00     0.160 HD
BRANCH  18  20
HETATM   20  C3  UNL     1      28.537  -0.045  53.392  1.00  0.00     0.077 C 
HETATM   21  C4  UNL     1      28.341   0.225  54.883  1.00  0.00     0.032 C 
BRANCH  20  22
HETATM   22  C2  UNL     1      29.555  -1.150  53.321  1.00  0.00     0.020 C 
HETATM   23  C1  UNL     1      29.034  -2.529  53.180  1.00  0.00     0.007 C 
ENDBRANCH  20  22
ENDBRANCH  18  20
ENDBRANCH   1  18
TORSDOF 6
ENDMDL
MODEL 5
REMARK VINA RESULT:      -6.9      1.634      5.911
REMARK  6 active torsions:
REMARK  status: ('A' for Active; 'I' for Inactive)
REMARK    1  A    between atoms: C2_2  and  C3_3 
REMARK    2  A    between atoms: C3_3  and  N1_5 
REMARK    3  A    between atoms: N1_5  and  C5_6 
REMARK    4  A    between atoms: C9_10  and  N2_11 
REMARK    5  A    between atoms: N2_11  and  N3_12 
REMARK    6  A    between atoms: N3_12  and  C10_13 
ROOT
HETATM    1  C5  UNL     1      24.890  -0.012  53.113  1.00  0.00     0.030 A 
HETATM    2  C6  UNL     1      25.939  -0.903  53.172  1.00  0.00     0.029 A 
HETATM    3  C7  UNL     1      27.265  -0.632  52.919  1.00  0.00     0.005 A 
HETATM    4  C8  UNL     1      27.591   0.662  52.571  1.00  0.00     0.031 A 
HETATM    5  C9  UNL     1      26.583   1.599  52.496  1.00  0.00     0.050 A 
HETATM    6  C16 UNL     1      25.278   1.258  52.761  1.00  0.00     0.060 A 
ENDROOT
BRANCH   5   7
HETATM    7  N2  UNL     1      26.898   2.939  52.138  1.00  0.00    -0.300 N 
HETATM    8  H14 UNL     1      27.192   3.642  52.840  1.00  0.00     0.187 HD
BRANCH   7   9
HETATM    9  N3  UNL     1      26.806   3.309  50.801  1.00  0.00    -0.300 N 
HETATM   10  H15 UNL     1      27.498   3.228  50.025  1.00  0.00     0.187 HD
BRANCH   9  11
HETATM   11  C10 UNL     1      25.753   3.913  50.059  1.00  0.00     0.049 A 
HETATM   12  C11 UNL     1      25.742   5.242  49.682  1.00  0.00     0.031 A 
HETATM   13  C12 UNL     1      24.678   5.748  48.960  1.00  0.00     0.004 A 
HETATM   14  C13 UNL     1      23.597   4.960  48.589  1.00  0.00     0.019 A 
HETATM   15  C14 UNL     1      23.576   3.627  48.950  1.00  0.00     0.013 A 
HETATM   16 BR1  UNL     1      22.157   2.439  48.506  1.00  0.00    -0.051 Br
HETATM   17  C15 UNL     1      24.652   3.156  49.669  1.00  0.00     0.050 A 
ENDBRANCH   9  11
ENDBRANCH   7   9
ENDBRANCH   5   7
BRANCH   1  18
HETATM   18  N1  UNL     1      23.531  -0.329  53.362  1.00  0.00    -0.386 N 
HETATM   19  H10 UNL     1      23.390  -1.350  53.643  1.00  0.00     0.160 HD
BRANCH  18  20
HETATM   20  C3  UNL     1      22.326   0.434  53.315  1.00  0.00     0.077 C 
HETATM   21  C4  UNL     1      21.819   0.456  51.874  1.00  0.00     0.032 C 
BRANCH  20  22
HETATM   22  C2  UNL     1      21.185  -0.111  54.127  1.00  0.00     0.020 C 
HETATM   23  C1  UNL     1      21.252  -1.544  54.496  1.00  0.00     0.007 C 
ENDBRANCH  20  22
ENDBRANCH  18  20
ENDBRANCH   1  18
TORSDOF 6
ENDMDL
MODEL 6
REMARK VINA RESULT:      -6.9      2.453      5.171
REMARK  6 active torsions:
REMARK  status: ('A' for Active; 'I' for Inactive)
REMARK    1  A    between atoms: C2_2  and  C3_3 
REMARK    2  A    between atoms: C3_3  and  N1_5 
REMARK    3  A    between atoms: N1_5  and  C5_6 
REMARK    4  A    between atoms: C9_10  and  N2_11 
REMARK    5  A    between atoms: N2_11  and  N3_12 
REMARK    6  A    between atoms: N3_12  and  C10_13 
ROOT
HETATM    1  C5  UNL     1      25.126  -0.721  54.282  1.00  0.00     0.030 A 
HETATM    2  C6  UNL     1      24.578  -1.178  55.460  1.00  0.00     0.029 A 
HETATM    3  C7  UNL     1      23.245  -1.414  55.711  1.00  0.00     0.005 A 
HETATM    4  C8  UNL     1      22.356  -1.173  54.685  1.00  0.00     0.031 A 
HETATM    5  C9  UNL     1      22.845  -0.714  53.481  1.00  0.00     0.050 A 
HETATM    6  C16 UNL     1      24.191  -0.499  53.300  1.00  0.00     0.060 A 
ENDROOT
BRANCH   5   7
HETATM    7  N2  UNL     1      21.945  -0.459  52.411  1.00  0.00    -0.300 N 
HETATM    8  H14 UNL     1      21.372  -1.208  51.982  1.00  0.00     0.187 HD
BRANCH   7   9
HETATM    9  N3  UNL     1      21.835   0.841  51.929  1.00  0.00    -0.300 N 
HETATM   10  H15 UNL     1      21.489   1.709  52.392  1.00  0.00     0.187 HD
BRANCH   9  11
HETATM   11  C10 UNL     1      22.155   1.410  50.666  1.00  0.00     0.049 A 
HETATM   12  C11 UNL     1      21.512   1.078  49.488  1.00  0.00     0.031 A 
HETATM   13  C12 UNL     1      21.886   1.680  48.302  1.00  0.00     0.004 A 
HETATM   14  C13 UNL     1      22.901   2.626  48.243  1.00  0.00     0.019 A 
HETATM   15  C14 UNL     1      23.564   2.981  49.400  1.00  0.00     0.013 A 
HETATM   16 BR1  UNL     1      24.971   4.261  49.458  1.00  0.00    -0.051 Br
HETATM   17  C15 UNL     1      23.166   2.361  50.564  1.00  0.00     0.050 A 
ENDBRANCH   9  11
ENDBRANCH   7   9
ENDBRANCH   5   7
BRANCH   1  18
HETATM   18  N1  UNL     1      26.504  -0.469  54.063  1.00  0.00    -0.386 N 
HETATM   19  H10 UNL     1      27.011  -1.302  53.624  1.00  0.00     0.160 HD
BRANCH  18  20
HETATM   20  C3  UNL     1      27.341   0.661  54.303  1.00  0.00     0.077 C 
HETATM   21  C4  UNL     1      28.754   0.331  53.826  1.00  0.00     0.032 C 
BRANCH  20  22
HETATM   22  C2  UNL     1      26.959   1.915  53.567  1.00  0.00     0.020 C 
HETATM   23  C1  UNL     1      26.910   1.833  52.089  1.00  0.00     0.007 C 
ENDBRANCH  20  22
ENDBRANCH  18  20
ENDBRANCH   1  18
TORSDOF 6
ENDMDL
MODEL 7
REMARK VINA RESULT:      -6.9      2.230      6.096
REMARK  6 active torsions:
REMARK  status: ('A' for Active; 'I' for Inactive)
REMARK    1  A    between atoms: C2_2  and  C3_3 
REMARK    2  A    between atoms: C3_3  and  N1_5 
REMARK    3  A    between atoms: N1_5  and  C5_6 
REMARK    4  A    between atoms: C9_10  and  N2_11 
REMARK    5  A    between atoms: N2_11  and  N3_12 
REMARK    6  A    between atoms: N3_12  and  C10_13 
ROOT
HETATM    1  C5  UNL     1      25.082  -0.467  54.240  1.00  0.00     0.030 A 
HETATM    2  C6  UNL     1      24.057  -1.078  54.927  1.00  0.00     0.029 A 
HETATM    3  C7  UNL     1      22.710  -0.979  54.656  1.00  0.00     0.005 A 
HETATM    4  C8  UNL     1      22.336  -0.190  53.589  1.00  0.00     0.031 A 
HETATM    5  C9  UNL     1      23.318   0.448  52.863  1.00  0.00     0.050 A 
HETATM    6  C16 UNL     1      24.646   0.305  53.190  1.00  0.00     0.060 A 
ENDROOT
BRANCH   5   7
HETATM    7  N2  UNL     1      22.953   1.266  51.759  1.00  0.00    -0.300 N 
HETATM    8  H14 UNL     1      22.348   0.920  50.992  1.00  0.00     0.187 HD
BRANCH   7   9
HETATM    9  N3  UNL     1      23.428   2.572  51.714  1.00  0.00    -0.300 N 
HETATM   10  H15 UNL     1      23.163   3.411  52.275  1.00  0.00     0.187 HD
BRANCH   9  11
HETATM   11  C10 UNL     1      24.417   3.190  50.899  1.00  0.00     0.049 A 
HETATM   12  C11 UNL     1      25.719   2.741  50.797  1.00  0.00     0.031 A 
HETATM   13  C12 UNL     1      26.617   3.402  49.980  1.00  0.00     0.004 A 
HETATM   14  C13 UNL     1      26.257   4.521  49.242  1.00  0.00     0.019 A 
HETATM   15  C14 UNL     1      24.964   4.997  49.322  1.00  0.00     0.013 A 
HETATM   16 BR1  UNL     1      24.342   6.520  48.365  1.00  0.00    -0.051 Br
HETATM   17  C15 UNL     1      24.096   4.315  50.145  1.00  0.00     0.050 A 
ENDBRANCH   9  11
ENDBRANCH   7   9
ENDBRANCH   5   7
BRANCH   1  18
HETATM   18  N1  UNL     1      26.460  -0.575  54.558  1.00  0.00    -0.386 N 
HETATM   19  H10 UNL     1      26.634  -1.127  55.455  1.00  0.00     0.160 HD
BRANCH  18  20
HETATM   20  C3  UNL     1      27.647  -0.102  53.924  1.00  0.00     0.077 C 
HETATM   21  C4  UNL     1      28.620   0.370  55.003  1.00  0.00     0.032 C 
BRANCH  20  22
HETATM   22  C2  UNL     1      28.406  -1.128  53.129  1.00  0.00     0.020 C 
HETATM   23  C1  UNL     1      29.838  -1.306  53.464  1.00  0.00     0.007 C 
ENDBRANCH  20  22
ENDBRANCH  18  20
ENDBRANCH   1  18
TORSDOF 6
ENDMDL
MODEL 8
REMARK VINA RESULT:      -6.8      2.005      5.134
REMARK  6 active torsions:
REMARK  status: ('A' for Active; 'I' for Inactive)
REMARK    1  A    between atoms: C2_2  and  C3_3 
REMARK    2  A    between atoms: C3_3  and  N1_5 
REMARK    3  A    between atoms: N1_5  and  C5_6 
REMARK    4  A    between atoms: C9_10  and  N2_11 
REMARK    5  A    between atoms: N2_11  and  N3_12 
REMARK    6  A    between atoms: N3_12  and  C10_13 
ROOT
HETATM    1  C5  UNL     1      24.792  -0.295  53.478  1.00  0.00     0.030 A 
HETATM    2  C6  UNL     1      25.855  -1.116  53.176  1.00  0.00     0.029 A 
HETATM    3  C7  UNL     1      27.057  -0.736  52.621  1.00  0.00     0.005 A 
HETATM    4  C8  UNL     1      27.227   0.602  52.335  1.00  0.00     0.031 A 
HETATM    5  C9  UNL     1      26.198   1.473  52.617  1.00  0.00     0.050 A 
HETATM    6  C16 UNL     1      25.022   1.025  53.170  1.00  0.00     0.060 A 
ENDROOT
BRANCH   5   7
HETATM    7  N2  UNL     1      26.353   2.857  52.329  1.00  0.00    -0.300 N 
HETATM    8  H14 UNL     1      27.049   3.447  52.820  1.00  0.00     0.187 HD
BRANCH   7   9
HETATM    9  N3  UNL     1      25.541   3.429  51.356  1.00  0.00    -0.300 N 
HETATM   10  H15 UNL     1      25.786   3.990  50.511  1.00  0.00     0.187 HD
BRANCH   9  11
HETATM   11  C10 UNL     1      24.128   3.441  51.192  1.00  0.00     0.049 A 
HETATM   12  C11 UNL     1      23.274   4.234  51.934  1.00  0.00     0.031 A 
HETATM   13  C12 UNL     1      21.912   4.184  51.709  1.00  0.00     0.004 A 
HETATM   14  C13 UNL     1      21.353   3.352  50.748  1.00  0.00     0.019 A 
HETATM   15  C14 UNL     1      22.178   2.545  49.989  1.00  0.00     0.013 A 
HETATM   16 BR1  UNL     1      21.542   1.361  48.642  1.00  0.00    -0.051 Br
HETATM   17  C15 UNL     1      23.530   2.621  50.240  1.00  0.00     0.050 A 
ENDBRANCH   9  11
ENDBRANCH   7   9
ENDBRANCH   5   7
BRANCH   1  18
HETATM   18  N1  UNL     1      23.558  -0.721  54.032  1.00  0.00    -0.386 N 
HETATM   19  H10 UNL     1      23.553  -0.691  55.100  1.00  0.00     0.160 HD
BRANCH  18  20
HETATM   20  C3  UNL     1      22.334  -1.174  53.456  1.00  0.00     0.077 C 
HETATM   21  C4  UNL     1      21.392  -1.596  54.583  1.00  0.00     0.032 C 
BRANCH  20  22
HETATM   22  C2  UNL     1      21.572  -0.145  52.668  1.00  0.00     0.020 C 
HETATM   23  C1  UNL     1      20.802   0.854  53.445  1.00  0.00     0.007 C 
ENDBRANCH  20  22
ENDBRANCH  18  20
ENDBRANCH   1  18
TORSDOF 6
ENDMDL
MODEL 9
REMARK VINA RESULT:      -6.7      2.316      4.606
REMARK  6 active torsions:
REMARK  status: ('A' for Active; 'I' for Inactive)
REMARK    1  A    between atoms: C2_2  and  C3_3 
REMARK    2  A    between atoms: C3_3  and  N1_5 
REMARK    3  A    between atoms: N1_5  and  C5_6 
REMARK    4  A    between atoms: C9_10  and  N2_11 
REMARK    5  A    between atoms: N2_11  and  N3_12 
REMARK    6  A    between atoms: N3_12  and  C10_13 
ROOT
HETATM    1  C5  UNL     1      26.259   2.154  53.118  1.00  0.00     0.030 A 
HETATM    2  C6  UNL     1      26.825   2.261  51.867  1.00  0.00     0.029 A 
HETATM    3  C7  UNL     1      26.224   2.757  50.731  1.00  0.00     0.005 A 
HETATM    4  C8  UNL     1      24.922   3.196  50.845  1.00  0.00     0.031 A 
HETATM    5  C9  UNL     1      24.303   3.115  52.073  1.00  0.00     0.050 A 
HETATM    6  C16 UNL     1      24.963   2.607  53.167  1.00  0.00     0.060 A 
ENDROOT
BRANCH   5   7
HETATM    7  N2  UNL     1      22.960   3.562  52.211  1.00  0.00    -0.300 N 
HETATM    8  H14 UNL     1      22.714   4.410  52.753  1.00  0.00     0.187 HD
BRANCH   7   9
HETATM    9  N3  UNL     1      21.949   2.833  51.594  1.00  0.00    -0.300 N 
HETATM   10  H15 UNL     1      21.534   2.920  50.642  1.00  0.00     0.187 HD
BRANCH   9  11
HETATM   11  C10 UNL     1      21.158   1.743  52.051  1.00  0.00     0.049 A 
HETATM   12  C11 UNL     1      19.858   1.513  51.646  1.00  0.00     0.031 A 
HETATM   13  C12 UNL     1      19.160   0.428  52.140  1.00  0.00     0.004 A 
HETATM   14  C13 UNL     1      19.723  -0.461  53.046  1.00  0.00     0.019 A 
HETATM   15  C14 UNL     1      21.021  -0.261  53.472  1.00  0.00     0.013 A 
HETATM   16 BR1  UNL     1      21.910  -1.402  54.708  1.00  0.00    -0.051 Br
HETATM   17  C15 UNL     1      21.687   0.830  52.960  1.00  0.00     0.050 A 
ENDBRANCH   9  11
ENDBRANCH   7   9
ENDBRANCH   5   7
BRANCH   1  18
HETATM   18  N1  UNL     1      26.900   1.620  54.265  1.00  0.00    -0.386 N 
HETATM   19  H10 UNL     1      27.187   2.374  54.965  1.00  0.00     0.160 HD
BRANCH  18  20
HETATM   20  C3  UNL     1      27.231   0.292  54.669  1.00  0.00     0.077 C 
HETATM   21  C4  UNL     1      26.642  -0.686  53.654  1.00  0.00     0.032 C 
BRANCH  20  22
HETATM   22  C2  UNL     1      28.700  -0.021  54.714  1.00  0.00     0.020 C 
HETATM   23  C1  UNL     1      29.276  -0.692  53.525  1.00  0.00     0.007 C 
ENDBRANCH  20  22
ENDBRANCH  18  20
ENDBRANCH   1  18
TORSDOF 6
ENDMDL
