MODEL 1
REMARK VINA RESULT:      -7.7      0.000      0.000
REMARK  7 active torsions:
REMARK  status: ('A' for Active; 'I' for Inactive)
REMARK    1  A    between atoms: C2_2  and  C3_3 
REMARK    2  A    between atoms: C4_4  and  N1_5 
REMARK    3  A    between atoms: N1_5  and  C5_6 
REMARK    4  A    between atoms: C6_7  and  C7_8 
REMARK    5  A    between atoms: C7_8  and  C8_10 
REMARK    6  A    between atoms: C9_11  and  C10_12 
REMARK    7  A    between atoms: C10_12  and  C11_14 
ROOT
HETATM    1  N1  UNL     1      22.485   1.485  52.968  1.00  0.00    -0.351 N 
HETATM    2  H6  UNL     1      22.548   2.159  53.762  1.00  0.00     0.166 HD
ENDROOT
BRANCH   1   3
HETATM    3  C4  UNL     1      21.210   0.978  52.590  1.00  0.00     0.134 A 
HETATM    4  C3  UNL     1      20.534   0.092  53.382  1.00  0.00    -0.001 A 
HETATM    5  C14 UNL     1      19.284  -0.418  53.032  1.00  0.00    -0.011 A 
HETATM    6  C13 UNL     1      18.763   0.022  51.834  1.00  0.00     0.014 A 
HETATM    7  C15 UNL     1      18.260  -1.196  53.324  1.00  0.00     0.037 A 
HETATM    8  C12 UNL     1      19.424   0.914  51.018  1.00  0.00     0.133 A 
HETATM    9  C16 UNL     1      17.702  -0.736  52.061  1.00  0.00     0.047 A 
HETATM   10  N2  UNL     1      20.615   1.338  51.450  1.00  0.00    -0.242 NA
HETATM   11 CL1  UNL     1      16.232  -1.026  51.147  1.00  0.00    -0.083 Cl
BRANCH   4  12
HETATM   12  C2  UNL     1      21.187  -0.318  54.659  1.00  0.00     0.039 C 
HETATM   13  C1  UNL     1      21.837  -1.676  54.525  1.00  0.00     0.010 C 
ENDBRANCH   4  12
ENDBRANCH   1   3
BRANCH   1  14
HETATM   14  C5  UNL     1      23.629   1.041  52.232  1.00  0.00     0.089 C 
HETATM   15  C6  UNL     1      24.918   1.187  52.507  1.00  0.00     0.031 C 
BRANCH  15  16
HETATM   16  C7  UNL     1      26.335   0.950  52.130  1.00  0.00     0.217 C 
HETATM   17  F1  UNL     1      26.617   1.623  50.934  1.00  0.00    -0.241 F 
BRANCH  16  18
HETATM   18  C8  UNL     1      26.652  -0.500  52.014  1.00  0.00     0.013 C 
HETATM   19  C9  UNL     1      27.565  -1.034  52.817  1.00  0.00     0.014 C 
BRANCH  19  20
HETATM   20  C10 UNL     1      28.276  -0.209  53.828  1.00  0.00     0.257 C 
HETATM   21  F2  UNL     1      27.622  -0.237  55.036  1.00  0.00    -0.239 F 
BRANCH  20  22
HETATM   22  C11 UNL     1      29.686  -0.706  54.041  1.00  0.00     0.390 C 
HETATM   23  F3  UNL     1      29.742  -2.033  53.717  1.00  0.00    -0.211 F 
HETATM   24  F4  UNL     1      30.509  -0.000  53.175  1.00  0.00    -0.211 F 
ENDBRANCH  20  22
ENDBRANCH  19  20
ENDBRANCH  16  18
ENDBRANCH  15  16
ENDBRANCH   1  14
TORSDOF 7
ENDMDL
MODEL 2
REMARK VINA RESULT:      -7.4      1.136      2.157
REMARK  7 active torsions:
REMARK  status: ('A' for Active; 'I' for Inactive)
REMARK    1  A    between atoms: C2_2  and  C3_3 
REMARK    2  A    between atoms: C4_4  and  N1_5 
REMARK    3  A    between atoms: N1_5  and  C5_6 
REMARK    4  A    between atoms: C6_7  and  C7_8 
REMARK    5  A    between atoms: C7_8  and  C8_10 
REMARK    6  A    between atoms: C9_11  and  C10_12 
REMARK    7  A    between atoms: C10_12  and  C11_14 
ROOT
HETATM    1  N1  UNL     1      22.557   2.333  52.438  1.00  0.00    -0.351 N 
HETATM    2  H6  UNL     1      22.241   3.205  51.961  1.00  0.00     0.166 HD
ENDROOT
BRANCH   1   3
HETATM    3  C4  UNL     1      21.599   1.326  52.746  1.00  0.00     0.134 A 
HETATM    4  C3  UNL     1      20.496   1.132  51.963  1.00  0.00    -0.001 A 
HETATM    5  C14 UNL     1      19.543   0.153  52.244  1.00  0.00    -0.011 A 
HETATM    6  C13 UNL     1      19.777  -0.614  53.366  1.00  0.00     0.014 A 
HETATM    7  C15 UNL     1      18.416  -0.453  51.924  1.00  0.00     0.037 A 
HETATM    8  C12 UNL     1      20.880  -0.438  54.173  1.00  0.00     0.133 A 
HETATM    9  C16 UNL     1      18.655  -1.268  53.107  1.00  0.00     0.047 A 
HETATM   10  N2  UNL     1      21.727   0.529  53.809  1.00  0.00    -0.242 NA
HETATM   11 CL1  UNL     1      17.835  -2.590  53.918  1.00  0.00    -0.083 Cl
BRANCH   4  12
HETATM   12  C2  UNL     1      20.340   2.015  50.771  1.00  0.00     0.039 C 
HETATM   13  C1  UNL     1      20.688   1.278  49.498  1.00  0.00     0.010 C 
ENDBRANCH   4  12
ENDBRANCH   1   3
BRANCH   1  14
HETATM   14  C5  UNL     1      23.920   2.095  52.802  1.00  0.00     0.089 C 
HETATM   15  C6  UNL     1      24.896   1.535  52.099  1.00  0.00     0.031 C 
BRANCH  15  16
HETATM   16  C7  UNL     1      26.313   1.099  52.011  1.00  0.00     0.217 C 
HETATM   17  F1  UNL     1      26.897   1.644  50.861  1.00  0.00    -0.241 F 
BRANCH  16  18
HETATM   18  C8  UNL     1      26.449  -0.383  52.029  1.00  0.00     0.013 C 
HETATM   19  C9  UNL     1      27.284  -0.951  52.891  1.00  0.00     0.014 C 
BRANCH  19  20
HETATM   20  C10 UNL     1      28.085  -0.133  53.838  1.00  0.00     0.257 C 
HETATM   21  F2  UNL     1      27.527  -0.143  55.093  1.00  0.00    -0.239 F 
BRANCH  20  22
HETATM   22  C11 UNL     1      29.499  -0.653  53.944  1.00  0.00     0.390 C 
HETATM   23  F3  UNL     1      29.508  -1.983  53.627  1.00  0.00    -0.211 F 
HETATM   24  F4  UNL     1      30.263   0.033  53.011  1.00  0.00    -0.211 F 
ENDBRANCH  20  22
ENDBRANCH  19  20
ENDBRANCH  16  18
ENDBRANCH  15  16
ENDBRANCH   1  14
TORSDOF 7
ENDMDL
MODEL 3
REMARK VINA RESULT:      -7.2      5.107      7.704
REMARK  7 active torsions:
REMARK  status: ('A' for Active; 'I' for Inactive)
REMARK    1  A    between atoms: C2_2  and  C3_3 
REMARK    2  A    between atoms: C4_4  and  N1_5 
REMARK    3  A    between atoms: N1_5  and  C5_6 
REMARK    4  A    between atoms: C6_7  and  C7_8 
REMARK    5  A    between atoms: C7_8  and  C8_10 
REMARK    6  A    between atoms: C9_11  and  C10_12 
REMARK    7  A    between atoms: C10_12  and  C11_14 
ROOT
HETATM    1  N1  UNL     1      24.600   3.073  53.414  1.00  0.00    -0.351 N 
HETATM    2  H6  UNL     1      24.163   3.339  54.323  1.00  0.00     0.166 HD
ENDROOT
BRANCH   1   3
HETATM    3  C4  UNL     1      25.619   2.079  53.401  1.00  0.00     0.134 A 
HETATM    4  C3  UNL     1      25.351   0.791  53.032  1.00  0.00    -0.001 A 
HETATM    5  C14 UNL     1      26.333  -0.199  53.012  1.00  0.00    -0.011 A 
HETATM    6  C13 UNL     1      27.599   0.195  53.389  1.00  0.00     0.014 A 
HETATM    7  C15 UNL     1      26.667  -1.455  52.784  1.00  0.00     0.037 A 
HETATM    8  C12 UNL     1      27.895   1.487  53.766  1.00  0.00     0.133 A 
HETATM    9  C16 UNL     1      28.007  -1.047  53.180  1.00  0.00     0.047 A 
HETATM   10  N2  UNL     1      26.879   2.354  53.749  1.00  0.00    -0.242 NA
HETATM   11 CL1  UNL     1      29.570  -1.827  53.341  1.00  0.00    -0.083 Cl
BRANCH   4  12
HETATM   12  C2  UNL     1      23.948   0.471  52.641  1.00  0.00     0.039 C 
HETATM   13  C1  UNL     1      23.249  -0.321  53.722  1.00  0.00     0.010 C 
ENDBRANCH   4  12
ENDBRANCH   1   3
BRANCH   1  14
HETATM   14  C5  UNL     1      24.223   3.663  52.167  1.00  0.00     0.089 C 
HETATM   15  C6  UNL     1      24.918   3.778  51.043  1.00  0.00     0.031 C 
BRANCH  15  16
HETATM   16  C7  UNL     1      24.992   4.243  49.634  1.00  0.00     0.217 C 
HETATM   17  F1  UNL     1      24.230   3.394  48.823  1.00  0.00    -0.241 F 
BRANCH  16  18
HETATM   18  C8  UNL     1      26.394   4.334  49.143  1.00  0.00     0.013 C 
HETATM   19  C9  UNL     1      26.914   5.524  48.868  1.00  0.00     0.014 C 
BRANCH  19  20
HETATM   20  C10 UNL     1      26.119   6.768  49.040  1.00  0.00     0.257 C 
HETATM   21  F2  UNL     1      26.559   7.489  50.124  1.00  0.00    -0.239 F 
BRANCH  20  22
HETATM   22  C11 UNL     1      26.213   7.647  47.816  1.00  0.00     0.390 C 
HETATM   23  F3  UNL     1      27.372   7.358  47.150  1.00  0.00    -0.211 F 
HETATM   24  F4  UNL     1      25.138   7.334  46.998  1.00  0.00    -0.211 F 
ENDBRANCH  20  22
ENDBRANCH  19  20
ENDBRANCH  16  18
ENDBRANCH  15  16
ENDBRANCH   1  14
TORSDOF 7
ENDMDL
MODEL 4
REMARK VINA RESULT:      -7.1      6.085      8.599
REMARK  7 active torsions:
REMARK  status: ('A' for Active; 'I' for Inactive)
REMARK    1  A    between atoms: C2_2  and  C3_3 
REMARK    2  A    between atoms: C4_4  and  N1_5 
REMARK    3  A    between atoms: N1_5  and  C5_6 
REMARK    4  A    between atoms: C6_7  and  C7_8 
REMARK    5  A    between atoms: C7_8  and  C8_10 
REMARK    6  A    between atoms: C9_11  and  C10_12 
REMARK    7  A    between atoms: C10_12  and  C11_14 
ROOT
HETATM    1  N1  UNL     1      26.230   3.078  49.525  1.00  0.00    -0.351 N 
HETATM    2  H6  UNL     1      25.761   2.454  48.833  1.00  0.00     0.166 HD
ENDROOT
BRANCH   1   3
HETATM    3  C4  UNL     1      26.779   4.314  49.080  1.00  0.00     0.134 A 
HETATM    4  C3  UNL     1      26.001   5.428  48.940  1.00  0.00    -0.001 A 
HETATM    5  C14 UNL     1      26.517   6.649  48.506  1.00  0.00    -0.011 A 
HETATM    6  C13 UNL     1      27.866   6.671  48.224  1.00  0.00     0.014 A 
HETATM    7  C15 UNL     1      26.317   7.918  48.206  1.00  0.00     0.037 A 
HETATM    8  C12 UNL     1      28.673   5.561  48.356  1.00  0.00     0.133 A 
HETATM    9  C16 UNL     1      27.741   7.950  47.906  1.00  0.00     0.047 A 
HETATM   10  N2  UNL     1      28.074   4.444  48.779  1.00  0.00    -0.242 NA
HETATM   11 CL1  UNL     1      28.889   9.153  47.347  1.00  0.00    -0.083 Cl
BRANCH   4  12
HETATM   12  C2  UNL     1      24.553   5.297  49.274  1.00  0.00     0.039 C 
HETATM   13  C1  UNL     1      24.252   5.889  50.632  1.00  0.00     0.010 C 
ENDBRANCH   4  12
ENDBRANCH   1   3
BRANCH   1  14
HETATM   14  C5  UNL     1      26.348   2.752  50.913  1.00  0.00     0.089 C 
HETATM   15  C6  UNL     1      25.434   2.278  51.749  1.00  0.00     0.031 C 
BRANCH  15  16
HETATM   16  C7  UNL     1      25.074   1.823  53.116  1.00  0.00     0.217 C 
HETATM   17  F1  UNL     1      25.671   2.669  54.060  1.00  0.00    -0.241 F 
BRANCH  16  18
HETATM   18  C8  UNL     1      25.453   0.404  53.356  1.00  0.00     0.013 C 
HETATM   19  C9  UNL     1      24.504  -0.496  53.583  1.00  0.00     0.014 C 
BRANCH  19  20
HETATM   20  C10 UNL     1      23.069  -0.110  53.602  1.00  0.00     0.257 C 
HETATM   21  F2  UNL     1      22.475  -0.357  52.388  1.00  0.00    -0.239 F 
BRANCH  20  22
HETATM   22  C11 UNL     1      22.314  -0.875  54.663  1.00  0.00     0.390 C 
HETATM   23  F3  UNL     1      23.184  -1.230  55.657  1.00  0.00    -0.211 F 
HETATM   24  F4  UNL     1      21.360  -0.018  55.191  1.00  0.00    -0.211 F 
ENDBRANCH  20  22
ENDBRANCH  19  20
ENDBRANCH  16  18
ENDBRANCH  15  16
ENDBRANCH   1  14
TORSDOF 7
ENDMDL
MODEL 5
REMARK VINA RESULT:      -7.0      6.172      8.484
REMARK  7 active torsions:
REMARK  status: ('A' for Active; 'I' for Inactive)
REMARK    1  A    between atoms: C2_2  and  C3_3 
REMARK    2  A    between atoms: C4_4  and  N1_5 
REMARK    3  A    between atoms: N1_5  and  C5_6 
REMARK    4  A    between atoms: C6_7  and  C7_8 
REMARK    5  A    between atoms: C7_8  and  C8_10 
REMARK    6  A    between atoms: C9_11  and  C10_12 
REMARK    7  A    between atoms: C10_12  and  C11_14 
ROOT
HETATM    1  N1  UNL     1      26.119   3.577  49.364  1.00  0.00    -0.351 N 
HETATM    2  H6  UNL     1      25.364   3.219  48.739  1.00  0.00     0.166 HD
ENDROOT
BRANCH   1   3
HETATM    3  C4  UNL     1      26.869   4.718  48.960  1.00  0.00     0.134 A 
HETATM    4  C3  UNL     1      26.302   5.961  48.917  1.00  0.00    -0.001 A 
HETATM    5  C14 UNL     1      27.015   7.093  48.524  1.00  0.00    -0.011 A 
HETATM    6  C13 UNL     1      28.335   6.889  48.179  1.00  0.00     0.014 A 
HETATM    7  C15 UNL     1      27.039   8.393  48.303  1.00  0.00     0.037 A 
HETATM    8  C12 UNL     1      28.929   5.646  48.214  1.00  0.00     0.133 A 
HETATM    9  C16 UNL     1      28.433   8.186  47.937  1.00  0.00     0.047 A 
HETATM   10  N2  UNL     1      28.153   4.632  48.605  1.00  0.00    -0.242 NA
HETATM   11 CL1  UNL     1      29.759   9.195  47.388  1.00  0.00    -0.083 Cl
BRANCH   4  12
HETATM   12  C2  UNL     1      24.868   6.073  49.312  1.00  0.00     0.039 C 
HETATM   13  C1  UNL     1      23.982   6.250  48.101  1.00  0.00     0.010 C 
ENDBRANCH   4  12
ENDBRANCH   1   3
BRANCH   1  14
HETATM   14  C5  UNL     1      26.443   2.972  50.619  1.00  0.00     0.089 C 
HETATM   15  C6  UNL     1      25.652   2.679  51.643  1.00  0.00     0.031 C 
BRANCH  15  16
HETATM   16  C7  UNL     1      25.495   2.118  53.010  1.00  0.00     0.217 C 
HETATM   17  F1  UNL     1      24.792   3.029  53.808  1.00  0.00    -0.241 F 
BRANCH  16  18
HETATM   18  C8  UNL     1      26.801   1.763  53.628  1.00  0.00     0.013 C 
HETATM   19  C9  UNL     1      27.306   0.550  53.436  1.00  0.00     0.014 C 
BRANCH  19  20
HETATM   20  C10 UNL     1      26.588  -0.459  52.615  1.00  0.00     0.257 C 
HETATM   21  F2  UNL     1      26.765  -0.222  51.274  1.00  0.00    -0.239 F 
BRANCH  20  22
HETATM   22  C11 UNL     1      27.079  -1.855  52.918  1.00  0.00     0.390 C 
HETATM   23  F3  UNL     1      26.727  -2.682  51.887  1.00  0.00    -0.211 F 
HETATM   24  F4  UNL     1      28.463  -1.800  52.993  1.00  0.00    -0.211 F 
ENDBRANCH  20  22
ENDBRANCH  19  20
ENDBRANCH  16  18
ENDBRANCH  15  16
ENDBRANCH   1  14
TORSDOF 7
ENDMDL
MODEL 6
REMARK VINA RESULT:      -6.9      3.203      4.319
REMARK  7 active torsions:
REMARK  status: ('A' for Active; 'I' for Inactive)
REMARK    1  A    between atoms: C2_2  and  C3_3 
REMARK    2  A    between atoms: C4_4  and  N1_5 
REMARK    3  A    between atoms: N1_5  and  C5_6 
REMARK    4  A    between atoms: C6_7  and  C7_8 
REMARK    5  A    between atoms: C7_8  and  C8_10 
REMARK    6  A    between atoms: C9_11  and  C10_12 
REMARK    7  A    between atoms: C10_12  and  C11_14 
ROOT
HETATM    1  N1  UNL     1      22.209   1.183  52.459  1.00  0.00    -0.351 N 
HETATM    2  H6  UNL     1      21.496   1.537  53.133  1.00  0.00     0.166 HD
ENDROOT
BRANCH   1   3
HETATM    3  C4  UNL     1      22.166   1.631  51.108  1.00  0.00     0.134 A 
HETATM    4  C3  UNL     1      22.641   2.862  50.752  1.00  0.00    -0.001 A 
HETATM    5  C14 UNL     1      22.609   3.323  49.436  1.00  0.00    -0.011 A 
HETATM    6  C13 UNL     1      22.068   2.461  48.506  1.00  0.00     0.014 A 
HETATM    7  C15 UNL     1      22.874   4.279  48.567  1.00  0.00     0.037 A 
HETATM    8  C12 UNL     1      21.582   1.216  48.839  1.00  0.00     0.133 A 
HETATM    9  C16 UNL     1      22.303   3.375  47.578  1.00  0.00     0.047 A 
HETATM   10  N2  UNL     1      21.662   0.877  50.129  1.00  0.00    -0.242 NA
HETATM   11 CL1  UNL     1      22.013   3.414  45.848  1.00  0.00    -0.083 Cl
BRANCH   4  12
HETATM   12  C2  UNL     1      23.208   3.715  51.837  1.00  0.00     0.039 C 
HETATM   13  C1  UNL     1      22.247   4.816  52.222  1.00  0.00     0.010 C 
ENDBRANCH   4  12
ENDBRANCH   1   3
BRANCH   1  14
HETATM   14  C5  UNL     1      23.239   0.261  52.827  1.00  0.00     0.089 C 
HETATM   15  C6  UNL     1      24.553   0.434  52.865  1.00  0.00     0.031 C 
BRANCH  15  16
HETATM   16  C7  UNL     1      25.903  -0.122  53.138  1.00  0.00     0.217 C 
HETATM   17  F1  UNL     1      25.980  -1.426  52.634  1.00  0.00    -0.241 F 
BRANCH  16  18
HETATM   18  C8  UNL     1      26.244  -0.089  54.587  1.00  0.00     0.013 C 
HETATM   19  C9  UNL     1      27.487   0.192  54.959  1.00  0.00     0.014 C 
BRANCH  19  20
HETATM   20  C10 UNL     1      28.544   0.473  53.953  1.00  0.00     0.257 C 
HETATM   21  F2  UNL     1      29.237   1.616  54.272  1.00  0.00    -0.239 F 
BRANCH  20  22
HETATM   22  C11 UNL     1      29.529  -0.668  53.866  1.00  0.00     0.390 C 
HETATM   23  F3  UNL     1      29.018  -1.632  53.041  1.00  0.00    -0.211 F 
HETATM   24  F4  UNL     1      30.693  -0.169  53.300  1.00  0.00    -0.211 F 
ENDBRANCH  20  22
ENDBRANCH  19  20
ENDBRANCH  16  18
ENDBRANCH  15  16
ENDBRANCH   1  14
TORSDOF 7
ENDMDL
MODEL 7
REMARK VINA RESULT:      -6.9      6.500      8.886
REMARK  7 active torsions:
REMARK  status: ('A' for Active; 'I' for Inactive)
REMARK    1  A    between atoms: C2_2  and  C3_3 
REMARK    2  A    between atoms: C4_4  and  N1_5 
REMARK    3  A    between atoms: N1_5  and  C5_6 
REMARK    4  A    between atoms: C6_7  and  C7_8 
REMARK    5  A    between atoms: C7_8  and  C8_10 
REMARK    6  A    between atoms: C9_11  and  C10_12 
REMARK    7  A    between atoms: C10_12  and  C11_14 
ROOT
HETATM    1  N1  UNL     1      25.777   4.462  49.384  1.00  0.00    -0.351 N 
HETATM    2  H6  UNL     1      24.812   4.857  49.399  1.00  0.00     0.166 HD
ENDROOT
BRANCH   1   3
HETATM    3  C4  UNL     1      26.829   5.227  48.808  1.00  0.00     0.134 A 
HETATM    4  C3  UNL     1      26.614   6.494  48.343  1.00  0.00    -0.001 A 
HETATM    5  C14 UNL     1      27.629   7.264  47.774  1.00  0.00    -0.011 A 
HETATM    6  C13 UNL     1      28.872   6.671  47.705  1.00  0.00     0.014 A 
HETATM    7  C15 UNL     1      28.010   8.396  47.215  1.00  0.00     0.037 A 
HETATM    8  C12 UNL     1      29.115   5.395  48.165  1.00  0.00     0.133 A 
HETATM    9  C16 UNL     1      29.326   7.778  47.139  1.00  0.00     0.047 A 
HETATM   10  N2  UNL     1      28.071   4.749  48.692  1.00  0.00    -0.242 NA
HETATM   11 CL1  UNL     1      30.911   8.246  46.549  1.00  0.00    -0.083 Cl
BRANCH   4  12
HETATM   12  C2  UNL     1      25.232   7.042  48.467  1.00  0.00     0.039 C 
HETATM   13  C1  UNL     1      25.140   8.037  49.601  1.00  0.00     0.010 C 
ENDBRANCH   4  12
ENDBRANCH   1   3
BRANCH   1  14
HETATM   14  C5  UNL     1      26.099   3.174  49.919  1.00  0.00     0.089 C 
HETATM   15  C6  UNL     1      25.761   2.636  51.083  1.00  0.00     0.031 C 
BRANCH  15  16
HETATM   16  C7  UNL     1      25.822   1.482  52.017  1.00  0.00     0.217 C 
HETATM   17  F1  UNL     1      24.742   0.626  51.769  1.00  0.00    -0.241 F 
BRANCH  16  18
HETATM   18  C8  UNL     1      25.846   1.912  53.442  1.00  0.00     0.013 C 
HETATM   19  C9  UNL     1      27.013   2.103  54.046  1.00  0.00     0.014 C 
BRANCH  19  20
HETATM   20  C10 UNL     1      28.295   1.895  53.324  1.00  0.00     0.257 C 
HETATM   21  F2  UNL     1      29.131   2.975  53.481  1.00  0.00    -0.239 F 
BRANCH  20  22
HETATM   22  C11 UNL     1      29.010   0.665  53.829  1.00  0.00     0.390 C 
HETATM   23  F3  UNL     1      28.722   0.498  55.156  1.00  0.00    -0.211 F 
HETATM   24  F4  UNL     1      28.514  -0.421  53.125  1.00  0.00    -0.211 F 
ENDBRANCH  20  22
ENDBRANCH  19  20
ENDBRANCH  16  18
ENDBRANCH  15  16
ENDBRANCH   1  14
TORSDOF 7
ENDMDL
MODEL 8
REMARK VINA RESULT:      -6.7      4.328      6.120
REMARK  7 active torsions:
REMARK  status: ('A' for Active; 'I' for Inactive)
REMARK    1  A    between atoms: C2_2  and  C3_3 
REMARK    2  A    between atoms: C4_4  and  N1_5 
REMARK    3  A    between atoms: N1_5  and  C5_6 
REMARK    4  A    between atoms: C6_7  and  C7_8 
REMARK    5  A    between atoms: C7_8  and  C8_10 
REMARK    6  A    between atoms: C9_11  and  C10_12 
REMARK    7  A    between atoms: C10_12  and  C11_14 
ROOT
HETATM    1  N1  UNL     1      23.305   2.051  51.749  1.00  0.00    -0.351 N 
HETATM    2  H6  UNL     1      22.364   1.844  51.348  1.00  0.00     0.166 HD
ENDROOT
BRANCH   1   3
HETATM    3  C4  UNL     1      24.181   2.924  51.045  1.00  0.00     0.134 A 
HETATM    4  C3  UNL     1      23.975   4.276  51.029  1.00  0.00    -0.001 A 
HETATM    5  C14 UNL     1      24.820   5.151  50.347  1.00  0.00    -0.011 A 
HETATM    6  C13 UNL     1      25.882   4.574  49.683  1.00  0.00     0.014 A 
HETATM    7  C15 UNL     1      25.122   6.386  49.996  1.00  0.00     0.037 A 
HETATM    8  C12 UNL     1      26.110   3.216  49.683  1.00  0.00     0.133 A 
HETATM    9  C16 UNL     1      26.246   5.786  49.292  1.00  0.00     0.047 A 
HETATM   10  N2  UNL     1      25.239   2.471  50.369  1.00  0.00    -0.242 NA
HETATM   11 CL1  UNL     1      27.577   6.366  48.308  1.00  0.00    -0.083 Cl
BRANCH   4  12
HETATM   12  C2  UNL     1      22.797   4.796  51.782  1.00  0.00     0.039 C 
HETATM   13  C1  UNL     1      21.675   5.175  50.842  1.00  0.00     0.010 C 
ENDBRANCH   4  12
ENDBRANCH   1   3
BRANCH   1  14
HETATM   14  C5  UNL     1      23.763   1.494  52.985  1.00  0.00     0.089 C 
HETATM   15  C6  UNL     1      24.607   0.493  53.198  1.00  0.00     0.031 C 
BRANCH  15  16
HETATM   16  C7  UNL     1      25.332  -0.377  54.159  1.00  0.00     0.217 C 
HETATM   17  F1  UNL     1      24.409  -1.026  54.987  1.00  0.00    -0.241 F 
BRANCH  16  18
HETATM   18  C8  UNL     1      26.331   0.380  54.962  1.00  0.00     0.013 C 
HETATM   19  C9  UNL     1      27.624   0.240  54.696  1.00  0.00     0.014 C 
BRANCH  19  20
HETATM   20  C10 UNL     1      28.092  -0.660  53.609  1.00  0.00     0.257 C 
HETATM   21  F2  UNL     1      27.892  -0.089  52.375  1.00  0.00    -0.239 F 
BRANCH  20  22
HETATM   22  C11 UNL     1      29.562  -0.969  53.755  1.00  0.00     0.390 C 
HETATM   23  F3  UNL     1      29.932  -1.843  52.770  1.00  0.00    -0.211 F 
HETATM   24  F4  UNL     1      30.255   0.220  53.580  1.00  0.00    -0.211 F 
ENDBRANCH  20  22
ENDBRANCH  19  20
ENDBRANCH  16  18
ENDBRANCH  15  16
ENDBRANCH   1  14
TORSDOF 7
ENDMDL
MODEL 9
REMARK VINA RESULT:      -6.7      4.927      8.020
REMARK  7 active torsions:
REMARK  status: ('A' for Active; 'I' for Inactive)
REMARK    1  A    between atoms: C2_2  and  C3_3 
REMARK    2  A    between atoms: C4_4  and  N1_5 
REMARK    3  A    between atoms: N1_5  and  C5_6 
REMARK    4  A    between atoms: C6_7  and  C7_8 
REMARK    5  A    between atoms: C7_8  and  C8_10 
REMARK    6  A    between atoms: C9_11  and  C10_12 
REMARK    7  A    between atoms: C10_12  and  C11_14 
ROOT
HETATM    1  N1  UNL     1      24.192   2.811  53.137  1.00  0.00    -0.351 N 
HETATM    2  H6  UNL     1      23.535   2.831  53.948  1.00  0.00     0.166 HD
ENDROOT
BRANCH   1   3
HETATM    3  C4  UNL     1      25.302   1.920  53.168  1.00  0.00     0.134 A 
HETATM    4  C3  UNL     1      25.144   0.580  52.952  1.00  0.00    -0.001 A 
HETATM    5  C14 UNL     1      26.215  -0.312  52.977  1.00  0.00    -0.011 A 
HETATM    6  C13 UNL     1      27.454   0.237  53.234  1.00  0.00     0.014 A 
HETATM    7  C15 UNL     1      26.659  -1.549  52.862  1.00  0.00     0.037 A 
HETATM    8  C12 UNL     1      27.640   1.584  53.455  1.00  0.00     0.133 A 
HETATM    9  C16 UNL     1      27.971  -0.978  53.133  1.00  0.00     0.047 A 
HETATM   10  N2  UNL     1      26.544   2.346  53.408  1.00  0.00    -0.242 NA
HETATM   11 CL1  UNL     1      29.609  -1.588  53.280  1.00  0.00    -0.083 Cl
BRANCH   4  12
HETATM   12  C2  UNL     1      23.761   0.090  52.681  1.00  0.00     0.039 C 
HETATM   13  C1  UNL     1      23.179  -0.597  53.896  1.00  0.00     0.010 C 
ENDBRANCH   4  12
ENDBRANCH   1   3
BRANCH   1  14
HETATM   14  C5  UNL     1      24.030   3.642  51.984  1.00  0.00     0.089 C 
HETATM   15  C6  UNL     1      24.500   3.481  50.754  1.00  0.00     0.031 C 
BRANCH  15  16
HETATM   16  C7  UNL     1      24.615   3.980  49.360  1.00  0.00     0.217 C 
HETATM   17  F1  UNL     1      25.966   4.159  49.040  1.00  0.00    -0.241 F 
BRANCH  16  18
HETATM   18  C8  UNL     1      23.844   5.235  49.145  1.00  0.00     0.013 C 
HETATM   19  C9  UNL     1      22.787   5.222  48.342  1.00  0.00     0.014 C 
BRANCH  19  20
HETATM   20  C10 UNL     1      22.360   3.976  47.654  1.00  0.00     0.257 C 
HETATM   21  F2  UNL     1      21.352   3.350  48.347  1.00  0.00    -0.239 F 
BRANCH  20  22
HETATM   22  C11 UNL     1      21.864   4.268  46.258  1.00  0.00     0.390 C 
HETATM   23  F3  UNL     1      22.445   5.424  45.815  1.00  0.00    -0.211 F 
HETATM   24  F4  UNL     1      22.276   3.222  45.446  1.00  0.00    -0.211 F 
ENDBRANCH  20  22
ENDBRANCH  19  20
ENDBRANCH  16  18
ENDBRANCH  15  16
ENDBRANCH   1  14
TORSDOF 7
ENDMDL
