MODEL 1
REMARK VINA RESULT:      -8.0      0.000      0.000
REMARK  5 active torsions:
REMARK  status: ('A' for Active; 'I' for Inactive)
REMARK    1  A    between atoms: C4_5  and  C5_6 
REMARK    2  A    between atoms: C5_6  and  C6_7 
REMARK    3  A    between atoms: C7_8  and  N2_9 
REMARK    4  A    between atoms: N2_9  and  C8_10 
REMARK    5  A    between atoms: C8_10  and  C9_11 
ROOT
HETATM    1  N1  UNL     1      26.002  -1.052  52.786  1.00  0.00    -0.197 NA
HETATM    2  C1  UNL     1      25.283  -0.133  52.942  1.00  0.00     0.069 C 
HETATM    3  C2  UNL     1      24.381   0.996  53.155  1.00  0.00     0.133 C 
HETATM    4  C3  UNL     1      25.146   2.261  53.338  1.00  0.00     0.058 C 
HETATM    5  C4  UNL     1      26.375   2.164  52.500  1.00  0.00    -0.077 C 
HETATM    6  C10 UNL     1      26.330   1.927  51.015  1.00  0.00     0.053 C 
HETATM    7  C11 UNL     1      25.593   3.062  50.347  1.00  0.00     0.124 C 
HETATM    8  N3  UNL     1      24.195   2.816  50.184  1.00  0.00    -0.389 N 
HETATM    9  C12 UNL     1      23.341   1.879  50.869  1.00  0.00     0.037 A 
HETATM   10  C13 UNL     1      22.237   1.798  50.015  1.00  0.00     0.030 A 
HETATM   11  C14 UNL     1      21.177   0.977  50.335  1.00  0.00     0.004 A 
HETATM   12  C15 UNL     1      21.206   0.237  51.495  1.00  0.00     0.020 A 
HETATM   13  C16 UNL     1      22.308   0.349  52.302  1.00  0.00     0.020 A 
HETATM   14 BR1  UNL     1      22.308  -0.692  53.894  1.00  0.00    -0.050 Br
HETATM   15  C17 UNL     1      23.404   1.145  52.055  1.00  0.00     0.004 A 
HETATM   16  H15 UNL     1      23.741   3.410  49.455  1.00  0.00     0.159 HD
ENDROOT
BRANCH   5  17
HETATM   17  C5  UNL     1      27.623   2.283  52.996  1.00  0.00     0.004 C 
BRANCH  17  18
HETATM   18  C6  UNL     1      28.761   2.294  53.948  1.00  0.00     0.017 C 
HETATM   19  C7  UNL     1      29.544   1.332  54.496  1.00  0.00     0.083 C 
BRANCH  19  20
HETATM   20  N2  UNL     1      28.894   0.236  53.828  1.00  0.00    -0.393 N 
HETATM   21  H7  UNL     1      27.921   0.398  53.451  1.00  0.00     0.159 HD
BRANCH  20  22
HETATM   22  C8  UNL     1      29.790  -0.915  53.841  1.00  0.00     0.188 C 
BRANCH  22  23
HETATM   23  C9  UNL     1      29.121  -1.990  53.066  1.00  0.00     0.250 C 
HETATM   24  O1  UNL     1      28.864  -3.062  53.584  1.00  0.00    -0.305 OA
ENDBRANCH  22  23
ENDBRANCH  20  22
ENDBRANCH  19  20
ENDBRANCH  17  18
ENDBRANCH   5  17
TORSDOF 5
ENDMDL
MODEL 2
REMARK VINA RESULT:      -7.6      3.315      5.225
REMARK  5 active torsions:
REMARK  status: ('A' for Active; 'I' for Inactive)
REMARK    1  A    between atoms: C4_5  and  C5_6 
REMARK    2  A    between atoms: C5_6  and  C6_7 
REMARK    3  A    between atoms: C7_8  and  N2_9 
REMARK    4  A    between atoms: N2_9  and  C8_10 
REMARK    5  A    between atoms: C8_10  and  C9_11 
ROOT
HETATM    1  N1  UNL     1      20.364   3.131  52.687  1.00  0.00    -0.197 NA
HETATM    2  C1  UNL     1      20.300   2.066  52.192  1.00  0.00     0.069 C 
HETATM    3  C2  UNL     1      20.214   0.753  51.555  1.00  0.00     0.133 C 
HETATM    4  C3  UNL     1      21.502   0.017  51.678  1.00  0.00     0.058 C 
HETATM    5  C4  UNL     1      22.119   0.411  52.977  1.00  0.00    -0.077 C 
HETATM    6  C10 UNL     1      21.419   0.230  54.297  1.00  0.00     0.053 C 
HETATM    7  C11 UNL     1      21.141  -1.236  54.522  1.00  0.00     0.124 C 
HETATM    8  N3  UNL     1      19.855  -1.650  54.060  1.00  0.00    -0.389 N 
HETATM    9  C12 UNL     1      18.975  -1.022  53.105  1.00  0.00     0.037 A 
HETATM   10  C13 UNL     1      17.746  -1.626  53.384  1.00  0.00     0.030 A 
HETATM   11  C14 UNL     1      16.626  -1.277  52.662  1.00  0.00     0.004 A 
HETATM   12  C15 UNL     1      16.718  -0.331  51.666  1.00  0.00     0.020 A 
HETATM   13  C16 UNL     1      17.942   0.235  51.427  1.00  0.00     0.020 A 
HETATM   14 BR1  UNL     1      18.024   1.538  50.043  1.00  0.00    -0.050 Br
HETATM   15  C17 UNL     1      19.106  -0.060  52.102  1.00  0.00     0.004 A 
HETATM   16  H15 UNL     1      19.515  -2.540  54.487  1.00  0.00     0.159 HD
ENDROOT
BRANCH   5  17
HETATM   17  C5  UNL     1      23.347   0.955  53.081  1.00  0.00     0.004 C 
BRANCH  17  18
HETATM   18  C6  UNL     1      24.440   1.958  53.134  1.00  0.00     0.017 C 
HETATM   19  C7  UNL     1      25.761   1.902  53.431  1.00  0.00     0.083 C 
BRANCH  19  20
HETATM   20  N2  UNL     1      25.778   0.487  53.693  1.00  0.00    -0.393 N 
HETATM   21  H7  UNL     1      25.319  -0.148  52.985  1.00  0.00     0.159 HD
BRANCH  20  22
HETATM   22  C8  UNL     1      26.461   0.255  54.961  1.00  0.00     0.188 C 
BRANCH  22  23
HETATM   23  C9  UNL     1      27.910   0.150  54.656  1.00  0.00     0.250 C 
HETATM   24  O1  UNL     1      28.689   1.005  55.035  1.00  0.00    -0.305 OA
ENDBRANCH  22  23
ENDBRANCH  20  22
ENDBRANCH  19  20
ENDBRANCH  17  18
ENDBRANCH   5  17
TORSDOF 5
ENDMDL
MODEL 3
REMARK VINA RESULT:      -7.4      3.590      5.571
REMARK  5 active torsions:
REMARK  status: ('A' for Active; 'I' for Inactive)
REMARK    1  A    between atoms: C4_5  and  C5_6 
REMARK    2  A    between atoms: C5_6  and  C6_7 
REMARK    3  A    between atoms: C7_8  and  N2_9 
REMARK    4  A    between atoms: N2_9  and  C8_10 
REMARK    5  A    between atoms: C8_10  and  C9_11 
ROOT
HETATM    1  N1  UNL     1      23.609   4.460  52.897  1.00  0.00    -0.197 NA
HETATM    2  C1  UNL     1      23.302   3.437  52.403  1.00  0.00     0.069 C 
HETATM    3  C2  UNL     1      22.899   2.177  51.782  1.00  0.00     0.133 C 
HETATM    4  C3  UNL     1      23.905   1.733  50.778  1.00  0.00     0.058 C 
HETATM    5  C4  UNL     1      25.244   2.176  51.263  1.00  0.00    -0.077 C 
HETATM    6  C10 UNL     1      25.798   1.769  52.602  1.00  0.00     0.053 C 
HETATM    7  C11 UNL     1      25.934   0.267  52.655  1.00  0.00     0.124 C 
HETATM    8  N3  UNL     1      24.789  -0.389  53.202  1.00  0.00    -0.389 N 
HETATM    9  C12 UNL     1      23.435   0.087  53.341  1.00  0.00     0.037 A 
HETATM   10  C13 UNL     1      22.905  -0.787  54.294  1.00  0.00     0.030 A 
HETATM   11  C14 UNL     1      21.597  -0.648  54.704  1.00  0.00     0.004 A 
HETATM   12  C15 UNL     1      20.813   0.352  54.175  1.00  0.00     0.020 A 
HETATM   13  C16 UNL     1      21.374   1.185  53.243  1.00  0.00     0.020 A 
HETATM   14 BR1  UNL     1      20.257   2.553  52.538  1.00  0.00    -0.050 Br
HETATM   15  C17 UNL     1      22.670   1.111  52.781  1.00  0.00     0.004 A 
HETATM   16  H15 UNL     1      24.979  -1.355  53.549  1.00  0.00     0.159 HD
ENDROOT
BRANCH   5  17
HETATM   17  C5  UNL     1      26.068   2.967  50.549  1.00  0.00     0.004 C 
BRANCH  17  18
HETATM   18  C6  UNL     1      26.567   3.902  49.509  1.00  0.00     0.017 C 
HETATM   19  C7  UNL     1      26.439   5.234  49.297  1.00  0.00     0.083 C 
BRANCH  19  20
HETATM   20  N2  UNL     1      25.625   5.476  50.458  1.00  0.00    -0.393 N 
HETATM   21  H7  UNL     1      25.444   4.664  51.108  1.00  0.00     0.159 HD
BRANCH  20  22
HETATM   22  C8  UNL     1      25.210   6.875  50.455  1.00  0.00     0.188 C 
BRANCH  22  23
HETATM   23  C9  UNL     1      26.269   7.636  49.747  1.00  0.00     0.250 C 
HETATM   24  O1  UNL     1      26.812   8.588  50.278  1.00  0.00    -0.305 OA
ENDBRANCH  22  23
ENDBRANCH  20  22
ENDBRANCH  19  20
ENDBRANCH  17  18
ENDBRANCH   5  17
TORSDOF 5
ENDMDL
MODEL 4
REMARK VINA RESULT:      -7.2      3.304      5.231
REMARK  5 active torsions:
REMARK  status: ('A' for Active; 'I' for Inactive)
REMARK    1  A    between atoms: C4_5  and  C5_6 
REMARK    2  A    between atoms: C5_6  and  C6_7 
REMARK    3  A    between atoms: C7_8  and  N2_9 
REMARK    4  A    between atoms: N2_9  and  C8_10 
REMARK    5  A    between atoms: C8_10  and  C9_11 
ROOT
HETATM    1  N1  UNL     1      27.026   2.672  51.811  1.00  0.00    -0.197 NA
HETATM    2  C1  UNL     1      26.283   3.144  51.030  1.00  0.00     0.069 C 
HETATM    3  C2  UNL     1      25.377   3.726  50.042  1.00  0.00     0.133 C 
HETATM    4  C3  UNL     1      24.052   3.047  50.070  1.00  0.00     0.058 C 
HETATM    5  C4  UNL     1      23.792   2.634  51.479  1.00  0.00    -0.077 C 
HETATM    6  C10 UNL     1      23.773   3.612  52.623  1.00  0.00     0.053 C 
HETATM    7  C11 UNL     1      22.681   4.629  52.396  1.00  0.00     0.124 C 
HETATM    8  N3  UNL     1      23.129   5.804  51.718  1.00  0.00    -0.389 N 
HETATM    9  C12 UNL     1      24.302   6.004  50.904  1.00  0.00     0.037 A 
HETATM   10  C13 UNL     1      24.421   7.397  50.885  1.00  0.00     0.030 A 
HETATM   11  C14 UNL     1      25.452   7.991  50.191  1.00  0.00     0.004 A 
HETATM   12  C15 UNL     1      26.365   7.213  49.517  1.00  0.00     0.020 A 
HETATM   13  C16 UNL     1      26.210   5.853  49.563  1.00  0.00     0.020 A 
HETATM   14 BR1  UNL     1      27.495   4.815  48.620  1.00  0.00    -0.050 Br
HETATM   15  C17 UNL     1      25.209   5.184  50.231  1.00  0.00     0.004 A 
HETATM   16  H15 UNL     1      22.504   6.630  51.842  1.00  0.00     0.159 HD
ENDROOT
BRANCH   5  17
HETATM   17  C5  UNL     1      23.551   1.360  51.846  1.00  0.00     0.004 C 
BRANCH  17  18
HETATM   18  C6  UNL     1      23.418   0.139  52.680  1.00  0.00     0.017 C 
HETATM   19  C7  UNL     1      24.271  -0.570  53.459  1.00  0.00     0.083 C 
BRANCH  19  20
HETATM   20  N2  UNL     1      25.408   0.276  53.215  1.00  0.00    -0.393 N 
HETATM   21  H7  UNL     1      25.225   1.261  52.882  1.00  0.00     0.159 HD
BRANCH  20  22
HETATM   22  C8  UNL     1      26.623  -0.482  53.495  1.00  0.00     0.188 C 
BRANCH  22  23
HETATM   23  C9  UNL     1      27.239   0.122  54.703  1.00  0.00     0.250 C 
HETATM   24  O1  UNL     1      28.343  -0.226  55.079  1.00  0.00    -0.305 OA
ENDBRANCH  22  23
ENDBRANCH  20  22
ENDBRANCH  19  20
ENDBRANCH  17  18
ENDBRANCH   5  17
TORSDOF 5
ENDMDL
MODEL 5
REMARK VINA RESULT:      -7.0      3.363      5.390
REMARK  5 active torsions:
REMARK  status: ('A' for Active; 'I' for Inactive)
REMARK    1  A    between atoms: C4_5  and  C5_6 
REMARK    2  A    between atoms: C5_6  and  C6_7 
REMARK    3  A    between atoms: C7_8  and  N2_9 
REMARK    4  A    between atoms: N2_9  and  C8_10 
REMARK    5  A    between atoms: C8_10  and  C9_11 
ROOT
HETATM    1  N1  UNL     1      20.233   3.462  52.512  1.00  0.00    -0.197 NA
HETATM    2  C1  UNL     1      20.708   2.459  52.120  1.00  0.00     0.069 C 
HETATM    3  C2  UNL     1      21.274   1.206  51.625  1.00  0.00     0.133 C 
HETATM    4  C3  UNL     1      22.393   1.466  50.676  1.00  0.00     0.058 C 
HETATM    5  C4  UNL     1      23.075   2.714  51.123  1.00  0.00    -0.077 C 
HETATM    6  C10 UNL     1      23.665   2.871  52.499  1.00  0.00     0.053 C 
HETATM    7  C11 UNL     1      24.747   1.840  52.703  1.00  0.00     0.124 C 
HETATM    8  N3  UNL     1      24.279   0.632  53.306  1.00  0.00    -0.389 N 
HETATM    9  C12 UNL     1      22.939   0.106  53.388  1.00  0.00     0.037 A 
HETATM   10  C13 UNL     1      23.046  -0.829  54.421  1.00  0.00     0.030 A 
HETATM   11  C14 UNL     1      21.942  -1.559  54.808  1.00  0.00     0.004 A 
HETATM   12  C15 UNL     1      20.735  -1.365  54.176  1.00  0.00     0.020 A 
HETATM   13  C16 UNL     1      20.676  -0.438  53.169  1.00  0.00     0.020 A 
HETATM   14 BR1  UNL     1      18.989  -0.201  52.325  1.00  0.00    -0.050 Br
HETATM   15  C17 UNL     1      21.731   0.329  52.725  1.00  0.00     0.004 A 
HETATM   16  H15 UNL     1      25.030   0.059  53.749  1.00  0.00     0.159 HD
ENDROOT
BRANCH   5  17
HETATM   17  C5  UNL     1      23.226   3.799  50.338  1.00  0.00     0.004 C 
BRANCH  17  18
HETATM   18  C6  UNL     1      23.226   5.210  49.875  1.00  0.00     0.017 C 
HETATM   19  C7  UNL     1      24.162   6.188  49.826  1.00  0.00     0.083 C 
BRANCH  19  20
HETATM   20  N2  UNL     1      25.217   5.390  50.392  1.00  0.00    -0.393 N 
HETATM   21  H7  UNL     1      25.070   4.999  51.361  1.00  0.00     0.159 HD
BRANCH  20  22
HETATM   22  C8  UNL     1      26.313   5.316  49.431  1.00  0.00     0.188 C 
BRANCH  22  23
HETATM   23  C9  UNL     1      26.733   3.894  49.366  1.00  0.00     0.250 C 
HETATM   24  O1  UNL     1      27.035   3.287  50.377  1.00  0.00    -0.305 OA
ENDBRANCH  22  23
ENDBRANCH  20  22
ENDBRANCH  19  20
ENDBRANCH  17  18
ENDBRANCH   5  17
TORSDOF 5
ENDMDL
MODEL 6
REMARK VINA RESULT:      -6.9      3.844      6.044
REMARK  5 active torsions:
REMARK  status: ('A' for Active; 'I' for Inactive)
REMARK    1  A    between atoms: C4_5  and  C5_6 
REMARK    2  A    between atoms: C5_6  and  C6_7 
REMARK    3  A    between atoms: C7_8  and  N2_9 
REMARK    4  A    between atoms: N2_9  and  C8_10 
REMARK    5  A    between atoms: C8_10  and  C9_11 
ROOT
HETATM    1  N1  UNL     1      20.969   3.823  52.323  1.00  0.00    -0.197 NA
HETATM    2  C1  UNL     1      21.362   2.775  51.962  1.00  0.00     0.069 C 
HETATM    3  C2  UNL     1      21.828   1.469  51.501  1.00  0.00     0.133 C 
HETATM    4  C3  UNL     1      23.107   1.595  50.748  1.00  0.00     0.058 C 
HETATM    5  C4  UNL     1      23.870   2.725  51.353  1.00  0.00    -0.077 C 
HETATM    6  C10 UNL     1      24.250   2.762  52.808  1.00  0.00     0.053 C 
HETATM    7  C11 UNL     1      25.139   1.585  53.127  1.00  0.00     0.124 C 
HETATM    8  N3  UNL     1      24.425   0.440  53.592  1.00  0.00    -0.389 N 
HETATM    9  C12 UNL     1      23.031   0.103  53.444  1.00  0.00     0.037 A 
HETATM   10  C13 UNL     1      22.848  -0.865  54.435  1.00  0.00     0.030 A 
HETATM   11  C14 UNL     1      21.610  -1.444  54.613  1.00  0.00     0.004 A 
HETATM   12  C15 UNL     1      20.554  -1.069  53.814  1.00  0.00     0.020 A 
HETATM   13  C16 UNL     1      20.780  -0.116  52.855  1.00  0.00     0.020 A 
HETATM   14 BR1  UNL     1      19.294   0.375  51.774  1.00  0.00    -0.050 Br
HETATM   15  C17 UNL     1      21.984   0.508  52.614  1.00  0.00     0.004 A 
HETATM   16  H15 UNL     1      25.014  -0.244  54.118  1.00  0.00     0.159 HD
ENDROOT
BRANCH   5  17
HETATM   17  C5  UNL     1      24.287   3.798  50.653  1.00  0.00     0.004 C 
BRANCH  17  18
HETATM   18  C6  UNL     1      25.113   4.678  49.788  1.00  0.00     0.017 C 
HETATM   19  C7  UNL     1      25.459   5.987  49.830  1.00  0.00     0.083 C 
BRANCH  19  20
HETATM   20  N2  UNL     1      24.740   6.276  51.042  1.00  0.00    -0.393 N 
HETATM   21  H7  UNL     1      24.694   5.521  51.778  1.00  0.00     0.159 HD
BRANCH  20  22
HETATM   22  C8  UNL     1      24.202   7.630  50.954  1.00  0.00     0.188 C 
BRANCH  22  23
HETATM   23  C9  UNL     1      22.813   7.509  50.445  1.00  0.00     0.250 C 
HETATM   24  O1  UNL     1      22.021   6.750  50.972  1.00  0.00    -0.305 OA
ENDBRANCH  22  23
ENDBRANCH  20  22
ENDBRANCH  19  20
ENDBRANCH  17  18
ENDBRANCH   5  17
TORSDOF 5
ENDMDL
MODEL 7
REMARK VINA RESULT:      -6.7      4.274      6.352
REMARK  5 active torsions:
REMARK  status: ('A' for Active; 'I' for Inactive)
REMARK    1  A    between atoms: C4_5  and  C5_6 
REMARK    2  A    between atoms: C5_6  and  C6_7 
REMARK    3  A    between atoms: C7_8  and  N2_9 
REMARK    4  A    between atoms: N2_9  and  C8_10 
REMARK    5  A    between atoms: C8_10  and  C9_11 
ROOT
HETATM    1  N1  UNL     1      25.395   3.125  50.241  1.00  0.00    -0.197 NA
HETATM    2  C1  UNL     1      24.981   3.029  51.338  1.00  0.00     0.069 C 
HETATM    3  C2  UNL     1      24.492   2.904  52.710  1.00  0.00     0.133 C 
HETATM    4  C3  UNL     1      23.728   4.117  53.114  1.00  0.00     0.058 C 
HETATM    5  C4  UNL     1      23.042   4.639  51.896  1.00  0.00    -0.077 C 
HETATM    6  C10 UNL     1      22.086   3.808  51.084  1.00  0.00     0.053 C 
HETATM    7  C11 UNL     1      20.915   3.402  51.944  1.00  0.00     0.124 C 
HETATM    8  N3  UNL     1      21.090   2.137  52.584  1.00  0.00    -0.389 N 
HETATM    9  C12 UNL     1      22.300   1.399  52.847  1.00  0.00     0.037 A 
HETATM   10  C13 UNL     1      21.820   0.108  53.085  1.00  0.00     0.030 A 
HETATM   11  C14 UNL     1      22.700  -0.912  53.378  1.00  0.00     0.004 A 
HETATM   12  C15 UNL     1      24.051  -0.658  53.436  1.00  0.00     0.020 A 
HETATM   13  C16 UNL     1      24.477   0.622  53.196  1.00  0.00     0.020 A 
HETATM   14 BR1  UNL     1      26.352   0.929  53.284  1.00  0.00    -0.050 Br
HETATM   15  C17 UNL     1      23.663   1.693  52.898  1.00  0.00     0.004 A 
HETATM   16  H15 UNL     1      20.199   1.694  52.900  1.00  0.00     0.159 HD
ENDROOT
BRANCH   5  17
HETATM   17  C5  UNL     1      23.215   5.889  51.426  1.00  0.00     0.004 C 
BRANCH  17  18
HETATM   18  C6  UNL     1      23.033   7.128  50.628  1.00  0.00     0.017 C 
HETATM   19  C7  UNL     1      23.838   8.170  50.304  1.00  0.00     0.083 C 
BRANCH  19  20
HETATM   20  N2  UNL     1      24.988   7.674  51.012  1.00  0.00    -0.393 N 
HETATM   21  H7  UNL     1      24.868   7.429  52.032  1.00  0.00     0.159 HD
BRANCH  20  22
HETATM   22  C8  UNL     1      26.120   7.633  50.092  1.00  0.00     0.188 C 
BRANCH  22  23
HETATM   23  C9  UNL     1      26.505   9.041  49.820  1.00  0.00     0.250 C 
HETATM   24  O1  UNL     1      27.240   9.643  50.582  1.00  0.00    -0.305 OA
ENDBRANCH  22  23
ENDBRANCH  20  22
ENDBRANCH  19  20
ENDBRANCH  17  18
ENDBRANCH   5  17
TORSDOF 5
ENDMDL
MODEL 8
REMARK VINA RESULT:      -6.6      3.868      5.442
REMARK  5 active torsions:
REMARK  status: ('A' for Active; 'I' for Inactive)
REMARK    1  A    between atoms: C4_5  and  C5_6 
REMARK    2  A    between atoms: C5_6  and  C6_7 
REMARK    3  A    between atoms: C7_8  and  N2_9 
REMARK    4  A    between atoms: N2_9  and  C8_10 
REMARK    5  A    between atoms: C8_10  and  C9_11 
ROOT
HETATM    1  N1  UNL     1      26.797   2.493  50.231  1.00  0.00    -0.197 NA
HETATM    2  C1  UNL     1      25.897   2.751  50.945  1.00  0.00     0.069 C 
HETATM    3  C2  UNL     1      24.797   3.074  51.850  1.00  0.00     0.133 C 
HETATM    4  C3  UNL     1      24.046   4.268  51.371  1.00  0.00     0.058 C 
HETATM    5  C4  UNL     1      24.085   4.250  49.880  1.00  0.00    -0.077 C 
HETATM    6  C10 UNL     1      23.570   3.092  49.068  1.00  0.00     0.053 C 
HETATM    7  C11 UNL     1      22.098   2.903  49.338  1.00  0.00     0.124 C 
HETATM    8  N3  UNL     1      21.826   1.972  50.387  1.00  0.00    -0.389 N 
HETATM    9  C12 UNL     1      22.686   1.503  51.445  1.00  0.00     0.037 A 
HETATM   10  C13 UNL     1      22.036   0.339  51.867  1.00  0.00     0.030 A 
HETATM   11  C14 UNL     1      22.569  -0.415  52.890  1.00  0.00     0.004 A 
HETATM   12  C15 UNL     1      23.740  -0.022  53.496  1.00  0.00     0.020 A 
HETATM   13  C16 UNL     1      24.342   1.125  53.050  1.00  0.00     0.020 A 
HETATM   14 BR1  UNL     1      25.960   1.631  53.913  1.00  0.00    -0.050 Br
HETATM   15  C17 UNL     1      23.875   1.932  52.036  1.00  0.00     0.004 A 
HETATM   16  H15 UNL     1      20.857   1.583  50.370  1.00  0.00     0.159 HD
ENDROOT
BRANCH   5  17
HETATM   17  C5  UNL     1      24.576   5.262  49.138  1.00  0.00     0.004 C 
BRANCH  17  18
HETATM   18  C6  UNL     1      25.335   6.475  48.743  1.00  0.00     0.017 C 
HETATM   19  C7  UNL     1      26.652   6.793  48.702  1.00  0.00     0.083 C 
BRANCH  19  20
HETATM   20  N2  UNL     1      27.111   5.519  49.185  1.00  0.00    -0.393 N 
HETATM   21  H7  UNL     1      26.557   5.057  49.956  1.00  0.00     0.159 HD
BRANCH  20  22
HETATM   22  C8  UNL     1      28.318   5.149  48.452  1.00  0.00     0.188 C 
BRANCH  22  23
HETATM   23  C9  UNL     1      28.975   6.414  48.038  1.00  0.00     0.250 C 
HETATM   24  O1  UNL     1      30.178   6.461  47.861  1.00  0.00    -0.305 OA
ENDBRANCH  22  23
ENDBRANCH  20  22
ENDBRANCH  19  20
ENDBRANCH  17  18
ENDBRANCH   5  17
TORSDOF 5
ENDMDL
MODEL 9
REMARK VINA RESULT:      -6.4      3.716      7.174
REMARK  5 active torsions:
REMARK  status: ('A' for Active; 'I' for Inactive)
REMARK    1  A    between atoms: C4_5  and  C5_6 
REMARK    2  A    between atoms: C5_6  and  C6_7 
REMARK    3  A    between atoms: C7_8  and  N2_9 
REMARK    4  A    between atoms: N2_9  and  C8_10 
REMARK    5  A    between atoms: C8_10  and  C9_11 
ROOT
HETATM    1  N1  UNL     1      22.542   1.855  49.365  1.00  0.00    -0.197 NA
HETATM    2  C1  UNL     1      23.015   2.078  50.419  1.00  0.00     0.069 C 
HETATM    3  C2  UNL     1      23.617   2.374  51.717  1.00  0.00     0.133 C 
HETATM    4  C3  UNL     1      22.569   2.652  52.738  1.00  0.00     0.058 C 
HETATM    5  C4  UNL     1      21.385   1.810  52.402  1.00  0.00    -0.077 C 
HETATM    6  C10 UNL     1      21.459   0.311  52.292  1.00  0.00     0.053 C 
HETATM    7  C11 UNL     1      21.882  -0.271  53.618  1.00  0.00     0.124 C 
HETATM    8  N3  UNL     1      23.293  -0.453  53.737  1.00  0.00    -0.389 N 
HETATM    9  C12 UNL     1      24.365   0.160  52.992  1.00  0.00     0.037 A 
HETATM   10  C13 UNL     1      25.438  -0.699  53.246  1.00  0.00     0.030 A 
HETATM   11  C14 UNL     1      26.673  -0.442  52.690  1.00  0.00     0.004 A 
HETATM   12  C15 UNL     1      26.848   0.660  51.885  1.00  0.00     0.020 A 
HETATM   13  C16 UNL     1      25.769   1.474  51.663  1.00  0.00     0.020 A 
HETATM   14 BR1  UNL     1      26.054   2.984  50.543  1.00  0.00    -0.050 Br
HETATM   15  C17 UNL     1      24.506   1.287  52.181  1.00  0.00     0.004 A 
HETATM   16  H15 UNL     1      23.573  -1.136  54.475  1.00  0.00     0.159 HD
ENDROOT
BRANCH   5  17
HETATM   17  C5  UNL     1      20.156   2.314  52.175  1.00  0.00     0.004 C 
BRANCH  17  18
HETATM   18  C6  UNL     1      19.071   3.247  51.779  1.00  0.00     0.017 C 
HETATM   19  C7  UNL     1      18.905   4.124  50.759  1.00  0.00     0.083 C 
BRANCH  19  20
HETATM   20  N2  UNL     1      20.177   3.855  50.144  1.00  0.00    -0.393 N 
HETATM   21  H7  UNL     1      20.536   2.862  50.172  1.00  0.00     0.159 HD
BRANCH  20  22
HETATM   22  C8  UNL     1      20.706   5.102  49.601  1.00  0.00     0.188 C 
BRANCH  22  23
HETATM   23  C9  UNL     1      21.748   5.576  50.546  1.00  0.00     0.250 C 
HETATM   24  O1  UNL     1      21.589   6.600  51.185  1.00  0.00    -0.305 OA
ENDBRANCH  22  23
ENDBRANCH  20  22
ENDBRANCH  19  20
ENDBRANCH  17  18
ENDBRANCH   5  17
TORSDOF 5
ENDMDL
