MODEL 1
REMARK VINA RESULT:      -8.3      0.000      0.000
REMARK  5 active torsions:
REMARK  status: ('A' for Active; 'I' for Inactive)
REMARK    1  A    between atoms: C1_2  and  C2_3 
REMARK       I    between atoms: C1_2  and  N3_12 
REMARK    2  A    between atoms: C3_4  and  C4_5 
REMARK    3  A    between atoms: C4_5  and  N1_6 
REMARK    4  A    between atoms: N3_12  and  C9_13 
REMARK    5  A    between atoms: C9_13  and  C10_14 
ROOT
HETATM    1  C10 UNL     1      23.788   2.876  50.169  1.00  0.00    -0.029 C 
HETATM    2  C11 UNL     1      25.080   2.816  50.546  1.00  0.00     0.094 C 
HETATM    3  N4  UNL     1      26.054   3.417  49.717  1.00  0.00    -0.365 N 
HETATM    4  C12 UNL     1      26.489   4.701  49.308  1.00  0.00     0.042 A 
HETATM    5  C13 UNL     1      27.716   4.672  48.691  1.00  0.00     0.030 A 
HETATM    6  C14 UNL     1      28.264   5.844  48.232  1.00  0.00     0.002 A 
HETATM    7  C15 UNL     1      27.610   7.043  48.379  1.00  0.00     0.001 A 
HETATM    8  C16 UNL     1      26.381   7.027  49.005  1.00  0.00     0.014 A 
HETATM    9  C17 UNL     1      25.793   5.873  49.482  1.00  0.00    -0.008 A 
HETATM   10  C18 UNL     1      24.500   6.051  50.112  1.00  0.00     0.030 C 
HETATM   11  C19 UNL     1      23.277   5.589  50.012  1.00  0.00     0.084 C 
HETATM   12  N5  UNL     1      22.535   4.664  49.241  1.00  0.00    -0.395 N 
HETATM   13  C20 UNL     1      23.425   3.582  48.903  1.00  0.00     0.156 C 
HETATM   14  H16 UNL     1      26.484   2.527  49.388  1.00  0.00     0.165 HD
HETATM   15  H23 UNL     1      21.558   4.718  48.957  1.00  0.00     0.159 HD
ENDROOT
BRANCH   1  16
HETATM   16  C9  UNL     1      22.743   2.265  51.001  1.00  0.00     0.160 C 
BRANCH  16  17
HETATM   17  N3  UNL     1      23.334   1.797  52.252  1.00  0.00    -0.354 N 
HETATM   18  C1  UNL     1      22.792   0.514  52.570  1.00  0.00     0.241 C 
HETATM   19  O1  UNL     1      21.977   0.231  51.634  1.00  0.00    -0.269 OA
HETATM   20  H12 UNL     1      24.045   2.260  52.876  1.00  0.00     0.163 HD
BRANCH  18  21
HETATM   21  C2  UNL     1      23.185  -0.219  53.764  1.00  0.00     0.072 C 
HETATM   22  C3  UNL     1      24.415  -0.588  54.063  1.00  0.00     0.008 C 
BRANCH  22  23
HETATM   23  C4  UNL     1      25.683  -0.382  53.324  1.00  0.00     0.300 C 
BRANCH  23  24
HETATM   24  N1  UNL     1      26.609   0.366  54.123  1.00  0.00     0.098 N 
HETATM   25  C5  UNL     1      27.889  -0.257  54.118  1.00  0.00     0.319 C 
HETATM   26  C6  UNL     1      28.939   0.661  54.651  1.00  0.00     0.113 C 
HETATM   27  N2  UNL     1      28.945   1.905  54.306  1.00  0.00    -0.302 NA
HETATM   28  C7  UNL     1      27.894   2.323  53.401  1.00  0.00     0.178 C 
HETATM   29  C8  UNL     1      26.559   1.757  53.854  1.00  0.00     0.294 C 
ENDBRANCH  23  24
ENDBRANCH  22  23
ENDBRANCH  18  21
ENDBRANCH  16  17
ENDBRANCH   1  16
TORSDOF 5
ENDMDL
MODEL 2
REMARK VINA RESULT:      -8.1      2.098      6.862
REMARK  5 active torsions:
REMARK  status: ('A' for Active; 'I' for Inactive)
REMARK    1  A    between atoms: C1_2  and  C2_3 
REMARK       I    between atoms: C1_2  and  N3_12 
REMARK    2  A    between atoms: C3_4  and  C4_5 
REMARK    3  A    between atoms: C4_5  and  N1_6 
REMARK    4  A    between atoms: N3_12  and  C9_13 
REMARK    5  A    between atoms: C9_13  and  C10_14 
ROOT
HETATM    1  C10 UNL     1      25.042   1.633  52.615  1.00  0.00    -0.029 C 
HETATM    2  C11 UNL     1      24.853   0.435  53.198  1.00  0.00     0.094 C 
HETATM    3  N4  UNL     1      25.735  -0.621  52.874  1.00  0.00    -0.365 N 
HETATM    4  C12 UNL     1      27.082  -1.010  53.076  1.00  0.00     0.042 A 
HETATM    5  C13 UNL     1      27.305  -2.328  52.758  1.00  0.00     0.030 A 
HETATM    6  C14 UNL     1      28.567  -2.848  52.896  1.00  0.00     0.002 A 
HETATM    7  C15 UNL     1      29.612  -2.075  53.344  1.00  0.00     0.001 A 
HETATM    8  C16 UNL     1      29.345  -0.758  53.652  1.00  0.00     0.014 A 
HETATM    9  C17 UNL     1      28.090  -0.194  53.529  1.00  0.00    -0.008 A 
HETATM   10  C18 UNL     1      28.001   1.203  53.900  1.00  0.00     0.030 C 
HETATM   11  C19 UNL     1      27.601   2.341  53.385  1.00  0.00     0.084 C 
HETATM   12  N5  UNL     1      27.038   2.844  52.189  1.00  0.00    -0.395 N 
HETATM   13  C20 UNL     1      26.177   1.815  51.660  1.00  0.00     0.156 C 
HETATM   14  H16 UNL     1      25.045  -1.181  52.331  1.00  0.00     0.165 HD
HETATM   15  H23 UNL     1      27.188   3.752  51.752  1.00  0.00     0.159 HD
ENDROOT
BRANCH   1  16
HETATM   16  C9  UNL     1      24.147   2.758  52.923  1.00  0.00     0.160 C 
BRANCH  16  17
HETATM   17  N3  UNL     1      23.675   3.355  51.677  1.00  0.00    -0.354 N 
HETATM   18  C1  UNL     1      23.350   4.725  51.913  1.00  0.00     0.241 C 
HETATM   19  O1  UNL     1      23.595   4.942  53.144  1.00  0.00    -0.269 OA
HETATM   20  H12 UNL     1      23.562   2.923  50.723  1.00  0.00     0.163 HD
BRANCH  18  21
HETATM   21  C2  UNL     1      22.848   5.596  50.861  1.00  0.00     0.072 C 
HETATM   22  C3  UNL     1      23.547   6.526  50.242  1.00  0.00     0.008 C 
BRANCH  22  23
HETATM   23  C4  UNL     1      24.960   6.940  50.418  1.00  0.00     0.300 C 
BRANCH  23  24
HETATM   24  N1  UNL     1      25.729   6.592  49.259  1.00  0.00     0.098 N 
HETATM   25  C5  UNL     1      26.929   7.357  49.209  1.00  0.00     0.319 C 
HETATM   26  C6  UNL     1      27.891   6.789  48.219  1.00  0.00     0.113 C 
HETATM   27  N2  UNL     1      28.064   5.512  48.146  1.00  0.00    -0.302 NA
HETATM   28  C7  UNL     1      27.281   4.707  49.061  1.00  0.00     0.178 C 
HETATM   29  C8  UNL     1      25.840   5.190  49.081  1.00  0.00     0.294 C 
ENDBRANCH  23  24
ENDBRANCH  22  23
ENDBRANCH  18  21
ENDBRANCH  16  17
ENDBRANCH   1  16
TORSDOF 5
ENDMDL
MODEL 3
REMARK VINA RESULT:      -7.8      3.107      7.910
REMARK  5 active torsions:
REMARK  status: ('A' for Active; 'I' for Inactive)
REMARK    1  A    between atoms: C1_2  and  C2_3 
REMARK       I    between atoms: C1_2  and  N3_12 
REMARK    2  A    between atoms: C3_4  and  C4_5 
REMARK    3  A    between atoms: C4_5  and  N1_6 
REMARK    4  A    between atoms: N3_12  and  C9_13 
REMARK    5  A    between atoms: C9_13  and  C10_14 
ROOT
HETATM    1  C10 UNL     1      24.463   3.336  51.668  1.00  0.00    -0.029 C 
HETATM    2  C11 UNL     1      24.715   2.025  51.489  1.00  0.00     0.094 C 
HETATM    3  N4  UNL     1      24.403   1.128  52.536  1.00  0.00    -0.365 N 
HETATM    4  C12 UNL     1      23.276   0.570  53.187  1.00  0.00     0.042 A 
HETATM    5  C13 UNL     1      23.599  -0.507  53.975  1.00  0.00     0.030 A 
HETATM    6  C14 UNL     1      22.608  -1.148  54.676  1.00  0.00     0.002 A 
HETATM    7  C15 UNL     1      21.301  -0.733  54.604  1.00  0.00     0.001 A 
HETATM    8  C16 UNL     1      21.019   0.352  53.800  1.00  0.00     0.014 A 
HETATM    9  C17 UNL     1      21.984   1.026  53.078  1.00  0.00    -0.008 A 
HETATM   10  C18 UNL     1      21.500   2.140  52.288  1.00  0.00     0.030 C 
HETATM   11  C19 UNL     1      21.738   3.420  52.132  1.00  0.00     0.084 C 
HETATM   12  N5  UNL     1      22.593   4.427  52.638  1.00  0.00    -0.395 N 
HETATM   13  C20 UNL     1      23.851   3.798  52.951  1.00  0.00     0.156 C 
HETATM   14  H16 UNL     1      25.387   0.913  52.797  1.00  0.00     0.165 HD
HETATM   15  H23 UNL     1      22.393   5.417  52.773  1.00  0.00     0.159 HD
ENDROOT
BRANCH   1  16
HETATM   16  C9  UNL     1      24.772   4.302  50.605  1.00  0.00     0.160 C 
BRANCH  16  17
HETATM   17  N3  UNL     1      26.207   4.281  50.336  1.00  0.00    -0.354 N 
HETATM   18  C1  UNL     1      26.457   4.937  49.093  1.00  0.00     0.241 C 
HETATM   19  O1  UNL     1      25.322   5.315  48.657  1.00  0.00    -0.269 OA
HETATM   20  H12 UNL     1      26.994   3.874  50.907  1.00  0.00     0.163 HD
BRANCH  18  21
HETATM   21  C2  UNL     1      27.798   5.078  48.546  1.00  0.00     0.072 C 
HETATM   22  C3  UNL     1      28.394   6.222  48.274  1.00  0.00     0.008 C 
BRANCH  22  23
HETATM   23  C4  UNL     1      27.912   7.615  48.432  1.00  0.00     0.300 C 
BRANCH  23  24
HETATM   24  N1  UNL     1      28.958   8.543  48.117  1.00  0.00     0.098 N 
HETATM   25  C5  UNL     1      28.674   9.823  48.671  1.00  0.00     0.319 C 
HETATM   26  C6  UNL     1      29.881  10.701  48.649  1.00  0.00     0.113 C 
HETATM   27  N2  UNL     1      31.035  10.221  48.970  1.00  0.00    -0.302 NA
HETATM   28  C7  UNL     1      31.066   8.819  49.334  1.00  0.00     0.178 C 
HETATM   29  C8  UNL     1      30.250   8.005  48.345  1.00  0.00     0.294 C 
ENDBRANCH  23  24
ENDBRANCH  22  23
ENDBRANCH  18  21
ENDBRANCH  16  17
ENDBRANCH   1  16
TORSDOF 5
ENDMDL
MODEL 4
REMARK VINA RESULT:      -7.8      3.117      7.247
REMARK  5 active torsions:
REMARK  status: ('A' for Active; 'I' for Inactive)
REMARK    1  A    between atoms: C1_2  and  C2_3 
REMARK       I    between atoms: C1_2  and  N3_12 
REMARK    2  A    between atoms: C3_4  and  C4_5 
REMARK    3  A    between atoms: C4_5  and  N1_6 
REMARK    4  A    between atoms: N3_12  and  C9_13 
REMARK    5  A    between atoms: C9_13  and  C10_14 
ROOT
HETATM    1  C10 UNL     1      25.143   1.639  52.525  1.00  0.00    -0.029 C 
HETATM    2  C11 UNL     1      24.943   0.460  53.144  1.00  0.00     0.094 C 
HETATM    3  N4  UNL     1      25.814  -0.613  52.851  1.00  0.00    -0.365 N 
HETATM    4  C12 UNL     1      27.157  -1.010  53.064  1.00  0.00     0.042 A 
HETATM    5  C13 UNL     1      27.366  -2.338  52.785  1.00  0.00     0.030 A 
HETATM    6  C14 UNL     1      28.624  -2.867  52.938  1.00  0.00     0.002 A 
HETATM    7  C15 UNL     1      29.676  -2.092  53.363  1.00  0.00     0.001 A 
HETATM    8  C16 UNL     1      29.422  -0.763  53.632  1.00  0.00     0.014 A 
HETATM    9  C17 UNL     1      28.174  -0.191  53.493  1.00  0.00    -0.008 A 
HETATM   10  C18 UNL     1      28.098   1.218  53.823  1.00  0.00     0.030 C 
HETATM   11  C19 UNL     1      27.710   2.344  53.275  1.00  0.00     0.084 C 
HETATM   12  N5  UNL     1      27.151   2.817  52.064  1.00  0.00    -0.395 N 
HETATM   13  C20 UNL     1      26.281   1.782  51.566  1.00  0.00     0.156 C 
HETATM   14  H16 UNL     1      25.119  -1.182  52.325  1.00  0.00     0.165 HD
HETATM   15  H23 UNL     1      27.310   3.710  51.600  1.00  0.00     0.159 HD
ENDROOT
BRANCH   1  16
HETATM   16  C9  UNL     1      24.260   2.781  52.801  1.00  0.00     0.160 C 
BRANCH  16  17
HETATM   17  N3  UNL     1      23.375   2.993  51.659  1.00  0.00    -0.354 N 
HETATM   18  C1  UNL     1      22.788   4.291  51.761  1.00  0.00     0.241 C 
HETATM   19  O1  UNL     1      23.256   4.809  52.826  1.00  0.00    -0.269 OA
HETATM   20  H12 UNL     1      23.150   2.353  50.853  1.00  0.00     0.163 HD
BRANCH  18  21
HETATM   21  C2  UNL     1      21.853   4.800  50.769  1.00  0.00     0.072 C 
HETATM   22  C3  UNL     1      20.554   4.576  50.761  1.00  0.00     0.008 C 
BRANCH  22  23
HETATM   23  C4  UNL     1      19.710   3.793  51.695  1.00  0.00     0.300 C 
BRANCH  23  24
HETATM   24  N1  UNL     1      19.751   2.400  51.356  1.00  0.00     0.098 N 
HETATM   25  C5  UNL     1      20.104   1.620  52.493  1.00  0.00     0.319 C 
HETATM   26  C6  UNL     1      19.829   0.171  52.260  1.00  0.00     0.113 C 
HETATM   27  N2  UNL     1      18.738  -0.193  51.676  1.00  0.00    -0.302 NA
HETATM   28  C7  UNL     1      17.839   0.871  51.277  1.00  0.00     0.178 C 
HETATM   29  C8  UNL     1      18.619   1.990  50.607  1.00  0.00     0.294 C 
ENDBRANCH  23  24
ENDBRANCH  22  23
ENDBRANCH  18  21
ENDBRANCH  16  17
ENDBRANCH   1  16
TORSDOF 5
ENDMDL
MODEL 5
REMARK VINA RESULT:      -7.7      2.174      6.868
REMARK  5 active torsions:
REMARK  status: ('A' for Active; 'I' for Inactive)
REMARK    1  A    between atoms: C1_2  and  C2_3 
REMARK       I    between atoms: C1_2  and  N3_12 
REMARK    2  A    between atoms: C3_4  and  C4_5 
REMARK    3  A    between atoms: C4_5  and  N1_6 
REMARK    4  A    between atoms: N3_12  and  C9_13 
REMARK    5  A    between atoms: C9_13  and  C10_14 
ROOT
HETATM    1  C10 UNL     1      24.419   0.954  52.657  1.00  0.00    -0.029 C 
HETATM    2  C11 UNL     1      24.552  -0.271  53.199  1.00  0.00     0.094 C 
HETATM    3  N4  UNL     1      25.718  -1.015  52.910  1.00  0.00    -0.365 N 
HETATM    4  C12 UNL     1      27.106  -1.011  53.192  1.00  0.00     0.042 A 
HETATM    5  C13 UNL     1      27.717  -2.195  52.860  1.00  0.00     0.030 A 
HETATM    6  C14 UNL     1      29.066  -2.336  53.069  1.00  0.00     0.002 A 
HETATM    7  C15 UNL     1      29.816  -1.316  53.603  1.00  0.00     0.001 A 
HETATM    8  C16 UNL     1      29.163  -0.144  53.922  1.00  0.00     0.014 A 
HETATM    9  C17 UNL     1      27.808   0.041  53.729  1.00  0.00    -0.008 A 
HETATM   10  C18 UNL     1      27.298   1.338  54.126  1.00  0.00     0.030 C 
HETATM   11  C19 UNL     1      26.618   2.334  53.612  1.00  0.00     0.084 C 
HETATM   12  N5  UNL     1      26.002   2.703  52.393  1.00  0.00    -0.395 N 
HETATM   13  C20 UNL     1      25.507   1.493  51.785  1.00  0.00     0.156 C 
HETATM   14  H16 UNL     1      25.251  -1.727  52.311  1.00  0.00     0.165 HD
HETATM   15  H23 UNL     1      25.908   3.632  51.987  1.00  0.00     0.159 HD
ENDROOT
BRANCH   1  16
HETATM   16  C9  UNL     1      23.222   1.762  52.931  1.00  0.00     0.160 C 
BRANCH  16  17
HETATM   17  N3  UNL     1      22.551   2.072  51.672  1.00  0.00    -0.354 N 
HETATM   18  C1  UNL     1      22.480   3.490  51.521  1.00  0.00     0.241 C 
HETATM   19  O1  UNL     1      23.040   3.985  52.552  1.00  0.00    -0.269 OA
HETATM   20  H12 UNL     1      22.155   1.424  50.942  1.00  0.00     0.163 HD
BRANCH  18  21
HETATM   21  C2  UNL     1      21.862   4.116  50.362  1.00  0.00     0.072 C 
HETATM   22  C3  UNL     1      22.504   4.537  49.290  1.00  0.00     0.008 C 
BRANCH  22  23
HETATM   23  C4  UNL     1      23.949   4.501  48.962  1.00  0.00     0.300 C 
BRANCH  23  24
HETATM   24  N1  UNL     1      24.513   5.816  49.049  1.00  0.00     0.098 N 
HETATM   25  C5  UNL     1      23.705   6.753  48.344  1.00  0.00     0.319 C 
HETATM   26  C6  UNL     1      24.075   8.156  48.695  1.00  0.00     0.113 C 
HETATM   27  N2  UNL     1      24.319   8.473  49.922  1.00  0.00    -0.302 NA
HETATM   28  C7  UNL     1      24.213   7.402  50.892  1.00  0.00     0.178 C 
HETATM   29  C8  UNL     1      24.904   6.154  50.370  1.00  0.00     0.294 C 
ENDBRANCH  23  24
ENDBRANCH  22  23
ENDBRANCH  18  21
ENDBRANCH  16  17
ENDBRANCH   1  16
TORSDOF 5
ENDMDL
MODEL 6
REMARK VINA RESULT:      -7.6      3.773      7.713
REMARK  5 active torsions:
REMARK  status: ('A' for Active; 'I' for Inactive)
REMARK    1  A    between atoms: C1_2  and  C2_3 
REMARK       I    between atoms: C1_2  and  N3_12 
REMARK    2  A    between atoms: C3_4  and  C4_5 
REMARK    3  A    between atoms: C4_5  and  N1_6 
REMARK    4  A    between atoms: N3_12  and  C9_13 
REMARK    5  A    between atoms: C9_13  and  C10_14 
ROOT
HETATM    1  C10 UNL     1      24.011   0.546  52.757  1.00  0.00    -0.029 C 
HETATM    2  C11 UNL     1      24.461  -0.589  53.324  1.00  0.00     0.094 C 
HETATM    3  N4  UNL     1      25.785  -1.002  53.051  1.00  0.00    -0.365 N 
HETATM    4  C12 UNL     1      27.120  -0.623  53.332  1.00  0.00     0.042 A 
HETATM    5  C13 UNL     1      28.026  -1.608  53.025  1.00  0.00     0.030 A 
HETATM    6  C14 UNL     1      29.363  -1.381  53.237  1.00  0.00     0.002 A 
HETATM    7  C15 UNL     1      29.811  -0.188  53.749  1.00  0.00     0.001 A 
HETATM    8  C16 UNL     1      28.869   0.774  54.044  1.00  0.00     0.014 A 
HETATM    9  C17 UNL     1      27.515   0.589  53.847  1.00  0.00    -0.008 A 
HETATM   10  C18 UNL     1      26.676   1.711  54.217  1.00  0.00     0.030 C 
HETATM   11  C19 UNL     1      25.758   2.480  53.682  1.00  0.00     0.084 C 
HETATM   12  N5  UNL     1      25.073   2.647  52.455  1.00  0.00    -0.395 N 
HETATM   13  C20 UNL     1      24.921   1.337  51.873  1.00  0.00     0.156 C 
HETATM   14  H16 UNL     1      25.527  -1.823  52.466  1.00  0.00     0.165 HD
HETATM   15  H23 UNL     1      24.738   3.510  52.030  1.00  0.00     0.159 HD
ENDROOT
BRANCH   1  16
HETATM   16  C9  UNL     1      22.641   1.012  53.014  1.00  0.00     0.160 C 
BRANCH  16  17
HETATM   17  N3  UNL     1      21.714  -0.105  52.856  1.00  0.00    -0.354 N 
HETATM   18  C1  UNL     1      20.389   0.347  53.140  1.00  0.00     0.241 C 
HETATM   19  O1  UNL     1      20.491   1.582  53.432  1.00  0.00    -0.269 OA
HETATM   20  H12 UNL     1      21.903  -1.104  52.581  1.00  0.00     0.163 HD
BRANCH  18  21
HETATM   21  C2  UNL     1      19.236  -0.538  53.070  1.00  0.00     0.072 C 
HETATM   22  C3  UNL     1      18.261  -0.451  52.188  1.00  0.00     0.008 C 
BRANCH  22  23
HETATM   23  C4  UNL     1      18.057   0.508  51.076  1.00  0.00     0.300 C 
BRANCH  23  24
HETATM   24  N1  UNL     1      17.271   1.623  51.517  1.00  0.00     0.098 N 
HETATM   25  C5  UNL     1      17.986   2.841  51.338  1.00  0.00     0.319 C 
HETATM   26  C6  UNL     1      17.083   4.022  51.469  1.00  0.00     0.113 C 
HETATM   27  N2  UNL     1      15.912   4.003  50.928  1.00  0.00    -0.302 NA
HETATM   28  C7  UNL     1      15.556   2.793  50.215  1.00  0.00     0.178 C 
HETATM   29  C8  UNL     1      15.938   1.572  51.037  1.00  0.00     0.294 C 
ENDBRANCH  23  24
ENDBRANCH  22  23
ENDBRANCH  18  21
ENDBRANCH  16  17
ENDBRANCH   1  16
TORSDOF 5
ENDMDL
MODEL 7
REMARK VINA RESULT:      -7.6      2.243      6.882
REMARK  5 active torsions:
REMARK  status: ('A' for Active; 'I' for Inactive)
REMARK    1  A    between atoms: C1_2  and  C2_3 
REMARK       I    between atoms: C1_2  and  N3_12 
REMARK    2  A    between atoms: C3_4  and  C4_5 
REMARK    3  A    between atoms: C4_5  and  N1_6 
REMARK    4  A    between atoms: N3_12  and  C9_13 
REMARK    5  A    between atoms: C9_13  and  C10_14 
ROOT
HETATM    1  C10 UNL     1      24.678   2.854  51.280  1.00  0.00    -0.029 C 
HETATM    2  C11 UNL     1      25.982   2.900  50.944  1.00  0.00     0.094 C 
HETATM    3  N4  UNL     1      26.948   2.841  51.974  1.00  0.00    -0.365 N 
HETATM    4  C12 UNL     1      27.476   1.925  52.915  1.00  0.00     0.042 A 
HETATM    5  C13 UNL     1      28.646   2.366  53.484  1.00  0.00     0.030 A 
HETATM    6  C14 UNL     1      29.272   1.585  54.423  1.00  0.00     0.002 A 
HETATM    7  C15 UNL     1      28.752   0.372  54.803  1.00  0.00     0.001 A 
HETATM    8  C16 UNL     1      27.576  -0.034  54.207  1.00  0.00     0.014 A 
HETATM    9  C17 UNL     1      26.913   0.719  53.259  1.00  0.00    -0.008 A 
HETATM   10  C18 UNL     1      25.694   0.130  52.743  1.00  0.00     0.030 C 
HETATM   11  C19 UNL     1      24.427   0.439  52.603  1.00  0.00     0.084 C 
HETATM   12  N5  UNL     1      23.543   1.510  52.872  1.00  0.00    -0.395 N 
HETATM   13  C20 UNL     1      24.295   2.730  52.720  1.00  0.00     0.156 C 
HETATM   14  H16 UNL     1      27.263   3.830  51.888  1.00  0.00     0.165 HD
HETATM   15  H23 UNL     1      22.558   1.467  53.129  1.00  0.00     0.159 HD
ENDROOT
BRANCH   1  16
HETATM   16  C9  UNL     1      23.641   2.913  50.241  1.00  0.00     0.160 C 
BRANCH  16  17
HETATM   17  N3  UNL     1      24.106   3.755  49.142  1.00  0.00    -0.354 N 
HETATM   18  C1  UNL     1      23.275   4.914  49.063  1.00  0.00     0.241 C 
HETATM   19  O1  UNL     1      22.415   4.799  49.994  1.00  0.00    -0.269 OA
HETATM   20  H12 UNL     1      24.906   3.609  48.474  1.00  0.00     0.163 HD
BRANCH  18  21
HETATM   21  C2  UNL     1      23.484   5.950  48.062  1.00  0.00     0.072 C 
HETATM   22  C3  UNL     1      24.264   7.003  48.206  1.00  0.00     0.008 C 
BRANCH  22  23
HETATM   23  C4  UNL     1      25.107   7.421  49.351  1.00  0.00     0.300 C 
BRANCH  23  24
HETATM   24  N1  UNL     1      26.250   8.153  48.887  1.00  0.00     0.098 N 
HETATM   25  C5  UNL     1      26.943   8.743  49.982  1.00  0.00     0.319 C 
HETATM   26  C6  UNL     1      28.298   9.216  49.572  1.00  0.00     0.113 C 
HETATM   27  N2  UNL     1      29.032   8.485  48.802  1.00  0.00    -0.302 NA
HETATM   28  C7  UNL     1      28.459   7.222  48.382  1.00  0.00     0.178 C 
HETATM   29  C8  UNL     1      27.017   7.422  47.946  1.00  0.00     0.294 C 
ENDBRANCH  23  24
ENDBRANCH  22  23
ENDBRANCH  18  21
ENDBRANCH  16  17
ENDBRANCH   1  16
TORSDOF 5
ENDMDL
MODEL 8
REMARK VINA RESULT:      -7.5      2.300      7.717
REMARK  5 active torsions:
REMARK  status: ('A' for Active; 'I' for Inactive)
REMARK    1  A    between atoms: C1_2  and  C2_3 
REMARK       I    between atoms: C1_2  and  N3_12 
REMARK    2  A    between atoms: C3_4  and  C4_5 
REMARK    3  A    between atoms: C4_5  and  N1_6 
REMARK    4  A    between atoms: N3_12  and  C9_13 
REMARK    5  A    between atoms: C9_13  and  C10_14 
ROOT
HETATM    1  C10 UNL     1      25.706   2.098  51.501  1.00  0.00    -0.029 C 
HETATM    2  C11 UNL     1      26.105   0.867  51.874  1.00  0.00     0.094 C 
HETATM    3  N4  UNL     1      25.613   0.335  53.087  1.00  0.00    -0.365 N 
HETATM    4  C12 UNL     1      24.408  -0.155  53.647  1.00  0.00     0.042 A 
HETATM    5  C13 UNL     1      24.608  -0.832  54.825  1.00  0.00     0.030 A 
HETATM    6  C14 UNL     1      23.529  -1.359  55.489  1.00  0.00     0.002 A 
HETATM    7  C15 UNL     1      22.253  -1.222  54.998  1.00  0.00     0.001 A 
HETATM    8  C16 UNL     1      22.096  -0.536  53.812  1.00  0.00     0.014 A 
HETATM    9  C17 UNL     1      23.153   0.010  53.111  1.00  0.00    -0.008 A 
HETATM   10  C18 UNL     1      22.795   0.694  51.885  1.00  0.00     0.030 C 
HETATM   11  C19 UNL     1      22.956   1.867  51.322  1.00  0.00     0.084 C 
HETATM   12  N5  UNL     1      23.564   3.116  51.589  1.00  0.00    -0.395 N 
HETATM   13  C20 UNL     1      24.750   2.853  52.367  1.00  0.00     0.156 C 
HETATM   14  H16 UNL     1      26.512   0.392  53.608  1.00  0.00     0.165 HD
HETATM   15  H23 UNL     1      23.254   4.044  51.306  1.00  0.00     0.159 HD
ENDROOT
BRANCH   1  16
HETATM   16  C9  UNL     1      26.195   2.689  50.248  1.00  0.00     0.160 C 
BRANCH  16  17
HETATM   17  N3  UNL     1      26.609   4.067  50.493  1.00  0.00    -0.354 N 
HETATM   18  C1  UNL     1      25.841   4.938  49.662  1.00  0.00     0.241 C 
HETATM   19  O1  UNL     1      25.054   4.191  48.996  1.00  0.00    -0.269 OA
HETATM   20  H12 UNL     1      27.340   4.444  51.152  1.00  0.00     0.163 HD
BRANCH  18  21
HETATM   21  C2  UNL     1      26.022   6.382  49.675  1.00  0.00     0.072 C 
HETATM   22  C3  UNL     1      25.287   7.237  50.358  1.00  0.00     0.008 C 
BRANCH  22  23
HETATM   23  C4  UNL     1      24.133   7.002  51.258  1.00  0.00     0.300 C 
BRANCH  23  24
HETATM   24  N1  UNL     1      22.905   7.314  50.586  1.00  0.00     0.098 N 
HETATM   25  C5  UNL     1      23.076   8.439  49.731  1.00  0.00     0.319 C 
HETATM   26  C6  UNL     1      21.932   8.575  48.782  1.00  0.00     0.113 C 
HETATM   27  N2  UNL     1      21.445   7.530  48.203  1.00  0.00    -0.302 NA
HETATM   28  C7  UNL     1      22.069   6.265  48.536  1.00  0.00     0.178 C 
HETATM   29  C8  UNL     1      22.279   6.166  50.038  1.00  0.00     0.294 C 
ENDBRANCH  23  24
ENDBRANCH  22  23
ENDBRANCH  18  21
ENDBRANCH  16  17
ENDBRANCH   1  16
TORSDOF 5
ENDMDL
MODEL 9
REMARK VINA RESULT:      -7.5      3.406      6.938
REMARK  5 active torsions:
REMARK  status: ('A' for Active; 'I' for Inactive)
REMARK    1  A    between atoms: C1_2  and  C2_3 
REMARK       I    between atoms: C1_2  and  N3_12 
REMARK    2  A    between atoms: C3_4  and  C4_5 
REMARK    3  A    between atoms: C4_5  and  N1_6 
REMARK    4  A    between atoms: N3_12  and  C9_13 
REMARK    5  A    between atoms: C9_13  and  C10_14 
ROOT
HETATM    1  C10 UNL     1      24.162   0.627  52.821  1.00  0.00    -0.029 C 
HETATM    2  C11 UNL     1      24.525  -0.533  53.401  1.00  0.00     0.094 C 
HETATM    3  N4  UNL     1      25.791  -1.079  53.087  1.00  0.00    -0.365 N 
HETATM    4  C12 UNL     1      27.167  -0.824  53.305  1.00  0.00     0.042 A 
HETATM    5  C13 UNL     1      27.960  -1.899  52.990  1.00  0.00     0.030 A 
HETATM    6  C14 UNL     1      29.320  -1.798  53.143  1.00  0.00     0.002 A 
HETATM    7  C15 UNL     1      29.902  -0.642  53.605  1.00  0.00     0.001 A 
HETATM    8  C16 UNL     1      29.069   0.414  53.910  1.00  0.00     0.014 A 
HETATM    9  C17 UNL     1      27.697   0.355  53.772  1.00  0.00    -0.008 A 
HETATM   10  C18 UNL     1      26.985   1.562  54.143  1.00  0.00     0.030 C 
HETATM   11  C19 UNL     1      26.124   2.403  53.624  1.00  0.00     0.084 C 
HETATM   12  N5  UNL     1      25.407   2.607  52.421  1.00  0.00    -0.395 N 
HETATM   13  C20 UNL     1      25.106   1.304  51.881  1.00  0.00     0.156 C 
HETATM   14  H16 UNL     1      25.431  -1.885  52.536  1.00  0.00     0.165 HD
HETATM   15  H23 UNL     1      25.139   3.488  51.986  1.00  0.00     0.159 HD
ENDROOT
BRANCH   1  16
HETATM   16  C9  UNL     1      22.855   1.228  53.119  1.00  0.00     0.160 C 
BRANCH  16  17
HETATM   17  N3  UNL     1      21.920   0.908  52.045  1.00  0.00    -0.354 N 
HETATM   18  C1  UNL     1      20.658   0.560  52.616  1.00  0.00     0.241 C 
HETATM   19  O1  UNL     1      20.801   0.657  53.877  1.00  0.00    -0.269 OA
HETATM   20  H12 UNL     1      22.066   0.908  51.002  1.00  0.00     0.163 HD
BRANCH  18  21
HETATM   21  C2  UNL     1      19.513   0.186  51.799  1.00  0.00     0.072 C 
HETATM   22  C3  UNL     1      18.610   1.022  51.325  1.00  0.00     0.008 C 
BRANCH  22  23
HETATM   23  C4  UNL     1      18.494   2.492  51.472  1.00  0.00     0.300 C 
BRANCH  23  24
HETATM   24  N1  UNL     1      19.066   3.152  50.334  1.00  0.00     0.098 N 
HETATM   25  C5  UNL     1      20.275   3.811  50.694  1.00  0.00     0.319 C 
HETATM   26  C6  UNL     1      21.053   4.212  49.485  1.00  0.00     0.113 C 
HETATM   27  N2  UNL     1      21.159   3.402  48.487  1.00  0.00    -0.302 NA
HETATM   28  C7  UNL     1      20.489   2.124  48.625  1.00  0.00     0.178 C 
HETATM   29  C8  UNL     1      19.090   2.327  49.182  1.00  0.00     0.294 C 
ENDBRANCH  23  24
ENDBRANCH  22  23
ENDBRANCH  18  21
ENDBRANCH  16  17
ENDBRANCH   1  16
TORSDOF 5
ENDMDL
