MODEL 1
REMARK VINA RESULT:     -10.1      0.000      0.000
REMARK  3 active torsions:
REMARK  status: ('A' for Active; 'I' for Inactive)
REMARK    1  A    between atoms: C4_5  and  N1_6 
REMARK    2  A    between atoms: N1_6  and  C5_7 
REMARK    3  A    between atoms: C10_14  and  N4_15 
ROOT
HETATM    1  C5  UNL     1      23.956  -0.229  53.597  1.00  0.00     0.142 A 
HETATM    2  N2  UNL     1      23.960  -0.978  54.697  1.00  0.00    -0.224 NA
HETATM    3  C6  UNL     1      22.879  -1.425  55.341  1.00  0.00     0.236 A 
HETATM    4  N3  UNL     1      21.664  -1.108  54.861  1.00  0.00    -0.241 NA
HETATM    5  C7  UNL     1      21.571  -0.349  53.747  1.00  0.00     0.072 A 
HETATM    6  C8  UNL     1      20.308  -0.076  53.335  1.00  0.00     0.035 A 
HETATM    7  C9  UNL     1      20.097   0.692  52.208  1.00  0.00     0.032 A 
HETATM    8  C10 UNL     1      21.199   1.163  51.528  1.00  0.00     0.040 A 
HETATM    9  C18 UNL     1      22.450   0.845  52.007  1.00  0.00     0.047 A 
HETATM   10  C19 UNL     1      22.720   0.085  53.123  1.00  0.00     0.041 A 
ENDROOT
BRANCH   8  11
HETATM   11  N4  UNL     1      21.027   1.966  50.351  1.00  0.00    -0.293 N 
HETATM   12  C11 UNL     1      21.206   3.357  50.700  1.00  0.00     0.176 C 
HETATM   13  S1  UNL     1      20.912   3.721  52.287  1.00  0.00    -0.041 SA
HETATM   14  N5  UNL     1      21.589   4.563  50.000  1.00  0.00    -0.366 N 
HETATM   15  C12 UNL     1      21.978   4.782  48.599  1.00  0.00     0.128 C 
HETATM   16  H7  UNL     1      21.592   5.421  50.576  1.00  0.00     0.161 HD
HETATM   17  C13 UNL     1      21.261   3.798  47.672  1.00  0.00     0.032 C 
HETATM   18  C14 UNL     1      22.091   2.606  47.317  1.00  0.00     0.012 C 
HETATM   19  C17 UNL     1      19.881   3.457  48.129  1.00  0.00     0.278 C 
HETATM   20  C15 UNL     1      21.993   1.448  48.254  1.00  0.00     0.058 C 
HETATM   21  C16 UNL     1      20.721   1.367  49.041  1.00  0.00     0.328 C 
HETATM   22  N6  UNL     1      19.691   2.046  48.320  1.00  0.00     0.107 N 
HETATM   23  H16 UNL     1      18.733   1.881  48.707  1.00  0.00     0.318 HD
ENDBRANCH   8  11
BRANCH   1  24
HETATM   24  N1  UNL     1      25.094   0.251  52.907  1.00  0.00    -0.340 N 
HETATM   25  H3  UNL     1      25.020   0.889  52.094  1.00  0.00     0.167 HD
BRANCH  24  26
HETATM   26  C4  UNL     1      26.470  -0.005  53.141  1.00  0.00     0.035 A 
HETATM   27  C3  UNL     1      27.141  -1.163  52.882  1.00  0.00     0.032 A 
HETATM   28  C2  UNL     1      28.462  -1.397  53.107  1.00  0.00     0.046 A 
HETATM   29  C1  UNL     1      29.237  -0.399  53.646  1.00  0.00     0.138 A 
HETATM   30  F1  UNL     1      30.540  -0.671  53.853  1.00  0.00    -0.204 F 
HETATM   31  C21 UNL     1      28.621   0.795  53.931  1.00  0.00     0.074 A 
HETATM   32  C20 UNL     1      27.277   0.975  53.682  1.00  0.00     0.056 A 
HETATM   33 CL1  UNL     1      29.664   2.031  54.618  1.00  0.00    -0.081 Cl
ENDBRANCH  24  26
ENDBRANCH   1  24
TORSDOF 3
ENDMDL
MODEL 2
REMARK VINA RESULT:      -9.8      2.508      3.382
REMARK  3 active torsions:
REMARK  status: ('A' for Active; 'I' for Inactive)
REMARK    1  A    between atoms: C4_5  and  N1_6 
REMARK    2  A    between atoms: N1_6  and  C5_7 
REMARK    3  A    between atoms: C10_14  and  N4_15 
ROOT
HETATM    1  C5  UNL     1      24.397   0.638  53.433  1.00  0.00     0.142 A 
HETATM    2  N2  UNL     1      23.860  -0.508  53.844  1.00  0.00    -0.224 NA
HETATM    3  C6  UNL     1      22.734  -1.054  53.377  1.00  0.00     0.236 A 
HETATM    4  N3  UNL     1      22.062  -0.415  52.404  1.00  0.00    -0.241 NA
HETATM    5  C7  UNL     1      22.540   0.756  51.930  1.00  0.00     0.072 A 
HETATM    6  C8  UNL     1      21.797   1.332  50.951  1.00  0.00     0.035 A 
HETATM    7  C9  UNL     1      22.194   2.530  50.395  1.00  0.00     0.032 A 
HETATM    8  C10 UNL     1      23.352   3.112  50.863  1.00  0.00     0.040 A 
HETATM    9  C18 UNL     1      24.052   2.469  51.859  1.00  0.00     0.047 A 
HETATM   10  C19 UNL     1      23.706   1.274  52.449  1.00  0.00     0.041 A 
ENDROOT
BRANCH   8  11
HETATM   11  N4  UNL     1      23.802   4.359  50.314  1.00  0.00    -0.293 N 
HETATM   12  C11 UNL     1      23.642   5.396  51.309  1.00  0.00     0.176 C 
HETATM   13  S1  UNL     1      22.485   5.093  52.452  1.00  0.00    -0.041 SA
HETATM   14  N5  UNL     1      24.251   6.679  51.580  1.00  0.00    -0.366 N 
HETATM   15  C12 UNL     1      25.336   7.394  50.893  1.00  0.00     0.128 C 
HETATM   16  H7  UNL     1      23.863   7.185  52.393  1.00  0.00     0.161 HD
HETATM   17  C13 UNL     1      25.342   7.075  49.396  1.00  0.00     0.032 C 
HETATM   18  C14 UNL     1      26.322   6.010  49.021  1.00  0.00     0.012 C 
HETATM   19  C17 UNL     1      23.974   6.860  48.835  1.00  0.00     0.278 C 
HETATM   20  C15 UNL     1      25.812   4.608  49.091  1.00  0.00     0.058 C 
HETATM   21  C16 UNL     1      24.328   4.459  48.943  1.00  0.00     0.328 C 
HETATM   22  N6  UNL     1      23.825   5.576  48.209  1.00  0.00     0.107 N 
HETATM   23  H16 UNL     1      22.831   5.461  47.902  1.00  0.00     0.318 HD
ENDBRANCH   8  11
BRANCH   1  24
HETATM   24  N1  UNL     1      25.588   1.226  53.921  1.00  0.00    -0.340 N 
HETATM   25  H3  UNL     1      25.589   2.121  54.442  1.00  0.00     0.167 HD
BRANCH  24  26
HETATM   26  C4  UNL     1      26.929   0.773  53.821  1.00  0.00     0.035 A 
HETATM   27  C3  UNL     1      28.057   1.520  53.992  1.00  0.00     0.032 A 
HETATM   28  C2  UNL     1      29.339   1.075  53.898  1.00  0.00     0.046 A 
HETATM   29  C1  UNL     1      29.570  -0.247  53.605  1.00  0.00     0.138 A 
HETATM   30  F1  UNL     1      30.854  -0.647  53.521  1.00  0.00    -0.204 F 
HETATM   31  C21 UNL     1      28.475  -1.054  53.421  1.00  0.00     0.074 A 
HETATM   32  C20 UNL     1      27.197  -0.547  53.528  1.00  0.00     0.056 A 
HETATM   33 CL1  UNL     1      28.835  -2.733  53.049  1.00  0.00    -0.081 Cl
ENDBRANCH  24  26
ENDBRANCH   1  24
TORSDOF 3
ENDMDL
MODEL 3
REMARK VINA RESULT:      -9.6      4.305      5.942
REMARK  3 active torsions:
REMARK  status: ('A' for Active; 'I' for Inactive)
REMARK    1  A    between atoms: C4_5  and  N1_6 
REMARK    2  A    between atoms: N1_6  and  C5_7 
REMARK    3  A    between atoms: C10_14  and  N4_15 
ROOT
HETATM    1  C5  UNL     1      24.909   2.677  51.356  1.00  0.00     0.142 A 
HETATM    2  N2  UNL     1      24.044   1.673  51.479  1.00  0.00    -0.224 NA
HETATM    3  C6  UNL     1      22.915   1.526  50.781  1.00  0.00     0.236 A 
HETATM    4  N3  UNL     1      22.595   2.456  49.864  1.00  0.00    -0.241 NA
HETATM    5  C7  UNL     1      23.421   3.510  49.677  1.00  0.00     0.072 A 
HETATM    6  C8  UNL     1      23.020   4.400  48.735  1.00  0.00     0.035 A 
HETATM    7  C9  UNL     1      23.788   5.513  48.464  1.00  0.00     0.032 A 
HETATM    8  C10 UNL     1      24.957   5.685  49.172  1.00  0.00     0.040 A 
HETATM    9  C18 UNL     1      25.298   4.739  50.113  1.00  0.00     0.047 A 
HETATM   10  C19 UNL     1      24.573   3.611  50.426  1.00  0.00     0.041 A 
ENDROOT
BRANCH   8  11
HETATM   11  N4  UNL     1      25.787   6.829  48.923  1.00  0.00    -0.293 N 
HETATM   12  C11 UNL     1      25.565   7.807  49.964  1.00  0.00     0.176 C 
HETATM   13  S1  UNL     1      24.096   7.704  50.717  1.00  0.00    -0.041 SA
HETATM   14  N5  UNL     1      26.320   8.895  50.545  1.00  0.00    -0.366 N 
HETATM   15  C12 UNL     1      27.676   9.386  50.262  1.00  0.00     0.128 C 
HETATM   16  H7  UNL     1      25.828   9.422  51.286  1.00  0.00     0.161 HD
HETATM   17  C13 UNL     1      28.040   9.173  48.791  1.00  0.00     0.032 C 
HETATM   18  C14 UNL     1      28.849   7.939  48.554  1.00  0.00     0.012 C 
HETATM   19  C17 UNL     1      26.873   9.315  47.869  1.00  0.00     0.278 C 
HETATM   20  C15 UNL     1      28.068   6.690  48.309  1.00  0.00     0.058 C 
HETATM   21  C16 UNL     1      26.689   6.895  47.761  1.00  0.00     0.328 C 
HETATM   22  N6  UNL     1      26.651   8.144  47.068  1.00  0.00     0.107 N 
HETATM   23  H16 UNL     1      25.783   8.281  46.500  1.00  0.00     0.318 HD
ENDBRANCH   8  11
BRANCH   1  24
HETATM   24  N1  UNL     1      26.107   2.844  52.090  1.00  0.00    -0.340 N 
HETATM   25  H3  UNL     1      26.471   3.778  52.348  1.00  0.00     0.167 HD
BRANCH  24  26
HETATM   26  C4  UNL     1      27.004   1.866  52.594  1.00  0.00     0.035 A 
HETATM   27  C3  UNL     1      28.149   2.095  53.296  1.00  0.00     0.032 A 
HETATM   28  C2  UNL     1      29.001   1.151  53.780  1.00  0.00     0.046 A 
HETATM   29  C1  UNL     1      28.720  -0.176  53.565  1.00  0.00     0.138 A 
HETATM   30  F1  UNL     1      29.588  -1.081  54.061  1.00  0.00    -0.204 F 
HETATM   31  C21 UNL     1      27.579  -0.476  52.863  1.00  0.00     0.074 A 
HETATM   32  C20 UNL     1      26.752   0.525  52.397  1.00  0.00     0.056 A 
HETATM   33 CL1  UNL     1      27.275  -2.189  52.622  1.00  0.00    -0.081 Cl
ENDBRANCH  24  26
ENDBRANCH   1  24
TORSDOF 3
ENDMDL
MODEL 4
REMARK VINA RESULT:      -9.6      2.242      3.244
REMARK  3 active torsions:
REMARK  status: ('A' for Active; 'I' for Inactive)
REMARK    1  A    between atoms: C4_5  and  N1_6 
REMARK    2  A    between atoms: N1_6  and  C5_7 
REMARK    3  A    between atoms: C10_14  and  N4_15 
ROOT
HETATM    1  C5  UNL     1      22.963  -0.556  53.162  1.00  0.00     0.142 A 
HETATM    2  N2  UNL     1      22.143  -1.303  53.897  1.00  0.00    -0.224 NA
HETATM    3  C6  UNL     1      20.895  -0.980  54.246  1.00  0.00     0.236 A 
HETATM    4  N3  UNL     1      20.393   0.197  53.833  1.00  0.00    -0.241 NA
HETATM    5  C7  UNL     1      21.162   1.016  53.081  1.00  0.00     0.072 A 
HETATM    6  C8  UNL     1      20.576   2.182  52.710  1.00  0.00     0.035 A 
HETATM    7  C9  UNL     1      21.271   3.092  51.942  1.00  0.00     0.032 A 
HETATM    8  C10 UNL     1      22.560   2.779  51.571  1.00  0.00     0.040 A 
HETATM    9  C18 UNL     1      23.088   1.577  51.986  1.00  0.00     0.047 A 
HETATM   10  C19 UNL     1      22.443   0.631  52.751  1.00  0.00     0.041 A 
ENDROOT
BRANCH   8  11
HETATM   11  N4  UNL     1      23.321   3.697  50.772  1.00  0.00    -0.293 N 
HETATM   12  C11 UNL     1      22.906   3.577  49.393  1.00  0.00     0.176 C 
HETATM   13  S1  UNL     1      22.239   2.118  48.990  1.00  0.00    -0.041 SA
HETATM   14  N5  UNL     1      22.921   4.430  48.225  1.00  0.00    -0.366 N 
HETATM   15  C12 UNL     1      23.374   5.817  48.052  1.00  0.00     0.128 C 
HETATM   16  H7  UNL     1      22.550   3.997  47.363  1.00  0.00     0.161 HD
HETATM   17  C13 UNL     1      24.538   6.135  48.993  1.00  0.00     0.032 C 
HETATM   18  C14 UNL     1      24.112   6.834  50.245  1.00  0.00     0.012 C 
HETATM   19  C17 UNL     1      25.438   4.968  49.231  1.00  0.00     0.278 C 
HETATM   20  C15 UNL     1      23.727   5.947  51.382  1.00  0.00     0.058 C 
HETATM   21  C16 UNL     1      24.341   4.580  51.363  1.00  0.00     0.328 C 
HETATM   22  N6  UNL     1      25.561   4.634  50.623  1.00  0.00     0.107 N 
HETATM   23  H16 UNL     1      26.144   3.770  50.715  1.00  0.00     0.318 HD
ENDBRANCH   8  11
BRANCH   1  24
HETATM   24  N1  UNL     1      24.287  -0.888  52.787  1.00  0.00    -0.340 N 
HETATM   25  H3  UNL     1      24.496  -1.485  51.967  1.00  0.00     0.167 HD
BRANCH  24  26
HETATM   26  C4  UNL     1      25.518  -0.516  53.387  1.00  0.00     0.035 A 
HETATM   27  C3  UNL     1      25.702   0.420  54.361  1.00  0.00     0.032 A 
HETATM   28  C2  UNL     1      26.886   0.766  54.933  1.00  0.00     0.046 A 
HETATM   29  C1  UNL     1      28.037   0.138  54.524  1.00  0.00     0.138 A 
HETATM   30  F1  UNL     1      29.189   0.509  55.115  1.00  0.00    -0.204 F 
HETATM   31  C21 UNL     1      27.921  -0.818  53.544  1.00  0.00     0.074 A 
HETATM   32  C20 UNL     1      26.692  -1.127  53.000  1.00  0.00     0.056 A 
HETATM   33 CL1  UNL     1      29.427  -1.586  53.065  1.00  0.00    -0.081 Cl
ENDBRANCH  24  26
ENDBRANCH   1  24
TORSDOF 3
ENDMDL
MODEL 5
REMARK VINA RESULT:      -9.3      5.653      7.555
REMARK  3 active torsions:
REMARK  status: ('A' for Active; 'I' for Inactive)
REMARK    1  A    between atoms: C4_5  and  N1_6 
REMARK    2  A    between atoms: N1_6  and  C5_7 
REMARK    3  A    between atoms: C10_14  and  N4_15 
ROOT
HETATM    1  C5  UNL     1      25.310   3.954  50.353  1.00  0.00     0.142 A 
HETATM    2  N2  UNL     1      24.121   3.368  50.472  1.00  0.00    -0.224 NA
HETATM    3  C6  UNL     1      22.995   3.759  49.869  1.00  0.00     0.236 A 
HETATM    4  N3  UNL     1      23.033   4.833  49.062  1.00  0.00    -0.241 NA
HETATM    5  C7  UNL     1      24.203   5.486  48.887  1.00  0.00     0.072 A 
HETATM    6  C8  UNL     1      24.149   6.560  48.058  1.00  0.00     0.035 A 
HETATM    7  C9  UNL     1      25.286   7.299  47.809  1.00  0.00     0.032 A 
HETATM    8  C10 UNL     1      26.459   6.914  48.421  1.00  0.00     0.040 A 
HETATM    9  C18 UNL     1      26.436   5.814  49.249  1.00  0.00     0.047 A 
HETATM   10  C19 UNL     1      25.334   5.040  49.534  1.00  0.00     0.041 A 
ENDROOT
BRANCH   8  11
HETATM   11  N4  UNL     1      27.667   7.655  48.190  1.00  0.00    -0.293 N 
HETATM   12  C11 UNL     1      27.852   8.600  49.268  1.00  0.00     0.176 C 
HETATM   13  S1  UNL     1      26.465   9.046  50.051  1.00  0.00    -0.041 SA
HETATM   14  N5  UNL     1      28.976   9.286  49.867  1.00  0.00    -0.366 N 
HETATM   15  C12 UNL     1      30.414   9.221  49.569  1.00  0.00     0.128 C 
HETATM   16  H7  UNL     1      28.735   9.932  50.636  1.00  0.00     0.161 HD
HETATM   17  C13 UNL     1      30.653   8.942  48.083  1.00  0.00     0.032 C 
HETATM   18  C14 UNL     1      30.916   7.501  47.786  1.00  0.00     0.012 C 
HETATM   19  C17 UNL     1      29.626   9.563  47.195  1.00  0.00     0.278 C 
HETATM   20  C15 UNL     1      29.708   6.665  47.519  1.00  0.00     0.058 C 
HETATM   21  C16 UNL     1      28.513   7.412  47.010  1.00  0.00     0.328 C 
HETATM   22  N6  UNL     1      28.958   8.604  46.360  1.00  0.00     0.107 N 
HETATM   23  H16 UNL     1      28.206   9.089  45.818  1.00  0.00     0.318 HD
ENDBRANCH   8  11
BRANCH   1  24
HETATM   24  N1  UNL     1      26.508   3.550  50.987  1.00  0.00    -0.340 N 
HETATM   25  H3  UNL     1      27.339   4.167  51.043  1.00  0.00     0.167 HD
BRANCH  24  26
HETATM   26  C4  UNL     1      26.824   2.326  51.632  1.00  0.00     0.035 A 
HETATM   27  C3  UNL     1      26.328   1.093  51.329  1.00  0.00     0.032 A 
HETATM   28  C2  UNL     1      26.640  -0.076  51.951  1.00  0.00     0.046 A 
HETATM   29  C1  UNL     1      27.539  -0.064  52.989  1.00  0.00     0.138 A 
HETATM   30  F1  UNL     1      27.822  -1.242  53.578  1.00  0.00    -0.204 F 
HETATM   31  C21 UNL     1      28.078   1.149  53.344  1.00  0.00     0.074 A 
HETATM   32  C20 UNL     1      27.723   2.303  52.677  1.00  0.00     0.056 A 
HETATM   33 CL1  UNL     1      29.221   1.100  54.678  1.00  0.00    -0.081 Cl
ENDBRANCH  24  26
ENDBRANCH   1  24
TORSDOF 3
ENDMDL
MODEL 6
REMARK VINA RESULT:      -9.2      2.100      2.846
REMARK  3 active torsions:
REMARK  status: ('A' for Active; 'I' for Inactive)
REMARK    1  A    between atoms: C4_5  and  N1_6 
REMARK    2  A    between atoms: N1_6  and  C5_7 
REMARK    3  A    between atoms: C10_14  and  N4_15 
ROOT
HETATM    1  C5  UNL     1      23.802   0.440  52.558  1.00  0.00     0.142 A 
HETATM    2  N2  UNL     1      23.360  -0.669  53.146  1.00  0.00    -0.224 NA
HETATM    3  C6  UNL     1      22.121  -0.868  53.604  1.00  0.00     0.236 A 
HETATM    4  N3  UNL     1      21.217   0.119  53.474  1.00  0.00    -0.241 NA
HETATM    5  C7  UNL     1      21.586   1.279  52.888  1.00  0.00     0.072 A 
HETATM    6  C8  UNL     1      20.612   2.219  52.800  1.00  0.00     0.035 A 
HETATM    7  C9  UNL     1      20.880   3.442  52.219  1.00  0.00     0.032 A 
HETATM    8  C10 UNL     1      22.152   3.669  51.740  1.00  0.00     0.040 A 
HETATM    9  C18 UNL     1      23.088   2.667  51.866  1.00  0.00     0.047 A 
HETATM   10  C19 UNL     1      22.878   1.430  52.433  1.00  0.00     0.041 A 
ENDROOT
BRANCH   8  11
HETATM   11  N4  UNL     1      22.476   4.926  51.129  1.00  0.00    -0.293 N 
HETATM   12  C11 UNL     1      23.476   5.595  51.930  1.00  0.00     0.176 C 
HETATM   13  S1  UNL     1      23.508   5.148  53.522  1.00  0.00    -0.041 SA
HETATM   14  N5  UNL     1      24.498   6.592  51.697  1.00  0.00    -0.366 N 
HETATM   15  C12 UNL     1      24.902   7.287  50.467  1.00  0.00     0.128 C 
HETATM   16  H7  UNL     1      25.040   6.866  52.533  1.00  0.00     0.161 HD
HETATM   17  C13 UNL     1      23.710   7.475  49.526  1.00  0.00     0.032 C 
HETATM   18  C14 UNL     1      23.630   6.434  48.457  1.00  0.00     0.012 C 
HETATM   19  C17 UNL     1      22.421   7.700  50.247  1.00  0.00     0.278 C 
HETATM   20  C15 UNL     1      22.869   5.199  48.812  1.00  0.00     0.058 C 
HETATM   21  C16 UNL     1      21.834   5.371  49.881  1.00  0.00     0.328 C 
HETATM   22  N6  UNL     1      21.414   6.736  49.899  1.00  0.00     0.107 N 
HETATM   23  H16 UNL     1      20.565   6.904  50.487  1.00  0.00     0.318 HD
ENDBRANCH   8  11
BRANCH   1  24
HETATM   24  N1  UNL     1      25.112   0.662  52.070  1.00  0.00    -0.340 N 
HETATM   25  H3  UNL     1      25.295   1.199  51.203  1.00  0.00     0.167 HD
BRANCH  24  26
HETATM   26  C4  UNL     1      26.360   0.245  52.601  1.00  0.00     0.035 A 
HETATM   27  C3  UNL     1      26.872  -1.019  52.585  1.00  0.00     0.032 A 
HETATM   28  C2  UNL     1      28.072  -1.408  53.094  1.00  0.00     0.046 A 
HETATM   29  C1  UNL     1      28.882  -0.474  53.690  1.00  0.00     0.138 A 
HETATM   30  F1  UNL     1      30.062  -0.900  54.181  1.00  0.00    -0.204 F 
HETATM   31  C21 UNL     1      28.424   0.820  53.740  1.00  0.00     0.074 A 
HETATM   32  C20 UNL     1      27.198   1.157  53.207  1.00  0.00     0.056 A 
HETATM   33 CL1  UNL     1      29.505   1.969  54.514  1.00  0.00    -0.081 Cl
ENDBRANCH  24  26
ENDBRANCH   1  24
TORSDOF 3
ENDMDL
MODEL 7
REMARK VINA RESULT:      -9.2      1.307      2.156
REMARK  3 active torsions:
REMARK  status: ('A' for Active; 'I' for Inactive)
REMARK    1  A    between atoms: C4_5  and  N1_6 
REMARK    2  A    between atoms: N1_6  and  C5_7 
REMARK    3  A    between atoms: C10_14  and  N4_15 
ROOT
HETATM    1  C5  UNL     1      23.953  -0.117  53.323  1.00  0.00     0.142 A 
HETATM    2  N2  UNL     1      23.786  -0.989  54.314  1.00  0.00    -0.224 NA
HETATM    3  C6  UNL     1      22.665  -1.166  55.018  1.00  0.00     0.236 A 
HETATM    4  N3  UNL     1      21.591  -0.414  54.724  1.00  0.00    -0.241 NA
HETATM    5  C7  UNL     1      21.676   0.498  53.730  1.00  0.00     0.072 A 
HETATM    6  C8  UNL     1      20.547   1.215  53.502  1.00  0.00     0.035 A 
HETATM    7  C9  UNL     1      20.523   2.173  52.510  1.00  0.00     0.032 A 
HETATM    8  C10 UNL     1      21.669   2.373  51.772  1.00  0.00     0.040 A 
HETATM    9  C18 UNL     1      22.777   1.608  52.062  1.00  0.00     0.047 A 
HETATM   10  C19 UNL     1      22.858   0.639  53.036  1.00  0.00     0.041 A 
ENDROOT
BRANCH   8  11
HETATM   11  N4  UNL     1      21.689   3.360  50.731  1.00  0.00    -0.293 N 
HETATM   12  C11 UNL     1      20.900   2.886  49.617  1.00  0.00     0.176 C 
HETATM   13  S1  UNL     1      20.749   1.242  49.519  1.00  0.00    -0.041 SA
HETATM   14  N5  UNL     1      20.179   3.494  48.521  1.00  0.00    -0.366 N 
HETATM   15  C12 UNL     1      19.974   4.907  48.168  1.00  0.00     0.128 C 
HETATM   16  H7  UNL     1      19.727   2.829  47.872  1.00  0.00     0.161 HD
HETATM   17  C13 UNL     1      21.176   5.756  48.589  1.00  0.00     0.032 C 
HETATM   18  C14 UNL     1      20.980   6.451  49.899  1.00  0.00     0.012 C 
HETATM   19  C17 UNL     1      22.477   5.030  48.481  1.00  0.00     0.278 C 
HETATM   20  C15 UNL     1      21.387   5.676  51.109  1.00  0.00     0.058 C 
HETATM   21  C16 UNL     1      22.429   4.625  50.876  1.00  0.00     0.328 C 
HETATM   22  N6  UNL     1      23.194   4.984  49.724  1.00  0.00     0.107 N 
HETATM   23  H16 UNL     1      24.056   4.405  49.598  1.00  0.00     0.318 HD
ENDBRANCH   8  11
BRANCH   1  24
HETATM   24  N1  UNL     1      25.135   0.081  52.572  1.00  0.00    -0.340 N 
HETATM   25  H3  UNL     1      25.120   0.459  51.607  1.00  0.00     0.167 HD
BRANCH  24  26
HETATM   26  C4  UNL     1      26.486  -0.168  52.926  1.00  0.00     0.035 A 
HETATM   27  C3  UNL     1      27.167  -1.340  52.774  1.00  0.00     0.032 A 
HETATM   28  C2  UNL     1      28.464  -1.568  53.114  1.00  0.00     0.046 A 
HETATM   29  C1  UNL     1      29.201  -0.549  53.666  1.00  0.00     0.138 A 
HETATM   30  F1  UNL     1      30.482  -0.815  53.989  1.00  0.00    -0.204 F 
HETATM   31  C21 UNL     1      28.573   0.659  53.847  1.00  0.00     0.074 A 
HETATM   32  C20 UNL     1      27.254   0.832  53.483  1.00  0.00     0.056 A 
HETATM   33 CL1  UNL     1      29.567   1.922  54.557  1.00  0.00    -0.081 Cl
ENDBRANCH  24  26
ENDBRANCH   1  24
TORSDOF 3
ENDMDL
MODEL 8
REMARK VINA RESULT:      -9.0      3.130      5.461
REMARK  3 active torsions:
REMARK  status: ('A' for Active; 'I' for Inactive)
REMARK    1  A    between atoms: C4_5  and  N1_6 
REMARK    2  A    between atoms: N1_6  and  C5_7 
REMARK    3  A    between atoms: C10_14  and  N4_15 
ROOT
HETATM    1  C5  UNL     1      26.432   3.648  49.522  1.00  0.00     0.142 A 
HETATM    2  N2  UNL     1      27.489   4.350  49.119  1.00  0.00    -0.224 NA
HETATM    3  C6  UNL     1      27.457   5.583  48.608  1.00  0.00     0.236 A 
HETATM    4  N3  UNL     1      26.270   6.199  48.477  1.00  0.00    -0.241 NA
HETATM    5  C7  UNL     1      25.146   5.555  48.862  1.00  0.00     0.072 A 
HETATM    6  C8  UNL     1      23.993   6.249  48.693  1.00  0.00     0.035 A 
HETATM    7  C9  UNL     1      22.786   5.687  49.053  1.00  0.00     0.032 A 
HETATM    8  C10 UNL     1      22.795   4.415  49.583  1.00  0.00     0.040 A 
HETATM    9  C18 UNL     1      24.004   3.772  49.724  1.00  0.00     0.047 A 
HETATM   10  C19 UNL     1      25.237   4.283  49.384  1.00  0.00     0.041 A 
ENDROOT
BRANCH   8  11
HETATM   11  N4  UNL     1      21.562   3.790  49.971  1.00  0.00    -0.293 N 
HETATM   12  C11 UNL     1      21.205   2.799  48.981  1.00  0.00     0.176 C 
HETATM   13  S1  UNL     1      21.836   3.060  47.474  1.00  0.00    -0.041 SA
HETATM   14  N5  UNL     1      20.409   1.592  48.959  1.00  0.00    -0.366 N 
HETATM   15  C12 UNL     1      19.667   0.908  50.028  1.00  0.00     0.128 C 
HETATM   16  H7  UNL     1      20.349   1.124  48.040  1.00  0.00     0.161 HD
HETATM   17  C13 UNL     1      19.136   1.912  51.054  1.00  0.00     0.032 C 
HETATM   18  C14 UNL     1      20.006   2.038  52.263  1.00  0.00     0.012 C 
HETATM   19  C17 UNL     1      18.748   3.222  50.451  1.00  0.00     0.278 C 
HETATM   20  C15 UNL     1      21.099   3.051  52.170  1.00  0.00     0.058 C 
HETATM   21  C16 UNL     1      20.854   4.170  51.205  1.00  0.00     0.328 C 
HETATM   22  N6  UNL     1      19.445   4.333  51.037  1.00  0.00     0.107 N 
HETATM   23  H16 UNL     1      19.183   5.207  50.525  1.00  0.00     0.318 HD
ENDBRANCH   8  11
BRANCH   1  24
HETATM   24  N1  UNL     1      26.452   2.342  50.065  1.00  0.00    -0.340 N 
HETATM   25  H3  UNL     1      26.456   1.495  49.468  1.00  0.00     0.167 HD
BRANCH  24  26
HETATM   26  C4  UNL     1      26.470   1.924  51.421  1.00  0.00     0.035 A 
HETATM   27  C3  UNL     1      27.400   2.250  52.363  1.00  0.00     0.032 A 
HETATM   28  C2  UNL     1      27.406   1.848  53.663  1.00  0.00     0.046 A 
HETATM   29  C1  UNL     1      26.397   1.034  54.116  1.00  0.00     0.138 A 
HETATM   30  F1  UNL     1      26.439   0.658  55.410  1.00  0.00    -0.204 F 
HETATM   31  C21 UNL     1      25.427   0.668  53.216  1.00  0.00     0.074 A 
HETATM   32  C20 UNL     1      25.472   1.107  51.910  1.00  0.00     0.056 A 
HETATM   33 CL1  UNL     1      24.164  -0.372  53.857  1.00  0.00    -0.081 Cl
ENDBRANCH  24  26
ENDBRANCH   1  24
TORSDOF 3
ENDMDL
MODEL 9
REMARK VINA RESULT:      -9.0      8.812     11.727
REMARK  3 active torsions:
REMARK  status: ('A' for Active; 'I' for Inactive)
REMARK    1  A    between atoms: C4_5  and  N1_6 
REMARK    2  A    between atoms: N1_6  and  C5_7 
REMARK    3  A    between atoms: C10_14  and  N4_15 
ROOT
HETATM    1  C5  UNL     1      28.072   8.517  48.102  1.00  0.00     0.142 A 
HETATM    2  N2  UNL     1      27.445   9.626  48.487  1.00  0.00    -0.224 NA
HETATM    3  C6  UNL     1      28.032  10.767  48.855  1.00  0.00     0.236 A 
HETATM    4  N3  UNL     1      29.375  10.835  48.847  1.00  0.00    -0.241 NA
HETATM    5  C7  UNL     1      30.089   9.752  48.470  1.00  0.00     0.072 A 
HETATM    6  C8  UNL     1      31.436   9.908  48.493  1.00  0.00     0.035 A 
HETATM    7  C9  UNL     1      32.261   8.865  48.126  1.00  0.00     0.032 A 
HETATM    8  C10 UNL     1      31.676   7.678  47.743  1.00  0.00     0.040 A 
HETATM    9  C18 UNL     1      30.301   7.594  47.745  1.00  0.00     0.047 A 
HETATM   10  C19 UNL     1      29.430   8.600  48.099  1.00  0.00     0.041 A 
ENDROOT
BRANCH   8  11
HETATM   11  N4  UNL     1      32.495   6.566  47.354  1.00  0.00    -0.293 N 
HETATM   12  C11 UNL     1      32.353   5.512  48.333  1.00  0.00     0.176 C 
HETATM   13  S1  UNL     1      31.890   6.016  49.839  1.00  0.00    -0.041 SA
HETATM   14  N5  UNL     1      32.514   4.075  48.344  1.00  0.00    -0.366 N 
HETATM   15  C12 UNL     1      32.879   3.139  47.271  1.00  0.00     0.128 C 
HETATM   16  H7  UNL     1      32.344   3.622  49.257  1.00  0.00     0.161 HD
HETATM   17  C13 UNL     1      33.820   3.802  46.262  1.00  0.00     0.032 C 
HETATM   18  C14 UNL     1      33.117   4.320  45.049  1.00  0.00     0.012 C 
HETATM   19  C17 UNL     1      34.752   4.788  46.886  1.00  0.00     0.278 C 
HETATM   20  C15 UNL     1      32.601   5.718  45.148  1.00  0.00     0.058 C 
HETATM   21  C16 UNL     1      33.314   6.595  46.131  1.00  0.00     0.328 C 
HETATM   22  N6  UNL     1      34.642   6.099  46.310  1.00  0.00     0.107 N 
HETATM   23  H16 UNL     1      35.265   6.755  46.836  1.00  0.00     0.318 HD
ENDBRANCH   8  11
BRANCH   1  24
HETATM   24  N1  UNL     1      27.461   7.303  47.711  1.00  0.00    -0.340 N 
HETATM   25  H3  UNL     1      27.336   7.042  46.716  1.00  0.00     0.167 HD
BRANCH  24  26
HETATM   26  C4  UNL     1      26.929   6.258  48.510  1.00  0.00     0.035 A 
HETATM   27  C3  UNL     1      27.399   4.981  48.603  1.00  0.00     0.032 A 
HETATM   28  C2  UNL     1      26.883   3.988  49.376  1.00  0.00     0.046 A 
HETATM   29  C1  UNL     1      25.783   4.247  50.156  1.00  0.00     0.138 A 
HETATM   30  F1  UNL     1      25.303   3.236  50.907  1.00  0.00    -0.204 F 
HETATM   31  C21 UNL     1      25.260   5.516  50.108  1.00  0.00     0.074 A 
HETATM   32  C20 UNL     1      25.824   6.484  49.305  1.00  0.00     0.056 A 
HETATM   33 CL1  UNL     1      23.854   5.786  51.127  1.00  0.00    -0.081 Cl
ENDBRANCH  24  26
ENDBRANCH   1  24
TORSDOF 3
ENDMDL
