MODEL 1
REMARK VINA RESULT:      -7.9      0.000      0.000
REMARK  9 active torsions:
REMARK  status: ('A' for Active; 'I' for Inactive)
REMARK    1  A    between atoms: N1_2  and  C3_4 
REMARK    2  A    between atoms: C3_4  and  C4_5 
REMARK    3  A    between atoms: C4_5  and  O1_6 
REMARK    4  A    between atoms: O1_6  and  C5_7 
REMARK    5  A    between atoms: C8_10  and  C9_11 
REMARK    6  A    between atoms: C9_11  and  C10_12 
REMARK    7  A    between atoms: C11_13  and  C12_15 
REMARK    8  A    between atoms: C18_23  and  O2_24 
REMARK    9  A    between atoms: O2_24  and  N4_25 
ROOT
HETATM    1  C5  UNL     1      24.439  -0.389  53.549  1.00  0.00     0.105 A 
HETATM    2  C6  UNL     1      25.029   0.502  52.669  1.00  0.00     0.055 A 
HETATM    3  C7  UNL     1      26.228   1.139  52.913  1.00  0.00     0.021 A 
HETATM    4  C8  UNL     1      26.758   2.017  51.979  1.00  0.00     0.052 A 
HETATM    5  N2  UNL     1      27.932   2.589  52.299  1.00  0.00    -0.245 NA
HETATM    6  C15 UNL     1      28.553   2.318  53.466  1.00  0.00     0.234 A 
HETATM    7  N3  UNL     1      28.036   1.464  54.371  1.00  0.00    -0.241 NA
HETATM    8  C16 UNL     1      26.846   0.846  54.114  1.00  0.00     0.073 A 
HETATM    9  C17 UNL     1      26.280  -0.038  55.010  1.00  0.00     0.074 A 
HETATM   10  C18 UNL     1      25.078  -0.665  54.744  1.00  0.00     0.127 A 
ENDROOT
BRANCH   4  11
HETATM   11  C9  UNL     1      26.066   2.321  50.696  1.00  0.00     0.090 C 
BRANCH  11  12
HETATM   12  C10 UNL     1      26.151   3.776  50.417  1.00  0.00     0.021 C 
HETATM   13  C11 UNL     1      26.744   4.173  49.280  1.00  0.00     0.112 C 
HETATM   14  F1  UNL     1      27.119   3.021  48.677  1.00  0.00    -0.206 F 
BRANCH  13  15
HETATM   15  C12 UNL     1      26.911   5.554  48.864  1.00  0.00     0.037 C 
HETATM   16  C13 UNL     1      27.998   6.129  48.379  1.00  0.00    -0.028 C 
HETATM   17  C14 UNL     1      29.276   5.439  48.171  1.00  0.00     0.036 C 
ENDBRANCH  13  15
ENDBRANCH  11  12
ENDBRANCH   4  11
BRANCH   1  18
HETATM   18  O1  UNL     1      23.232  -1.030  53.303  1.00  0.00    -0.346 OA
BRANCH  18  19
HETATM   19  C4  UNL     1      22.104  -0.330  52.812  1.00  0.00     0.206 C 
BRANCH  19  20
HETATM   20  C3  UNL     1      20.907  -0.523  53.709  1.00  0.00     0.297 C 
BRANCH  20  21
HETATM   21  N1  UNL     1      19.685  -0.044  53.090  1.00  0.00     0.082 N 
HETATM   22  C1  UNL     1      18.676  -1.071  53.297  1.00  0.00     0.309 C 
HETATM   23  C2  UNL     1      19.841   0.263  51.694  1.00  0.00     0.309 C 
ENDBRANCH  20  21
ENDBRANCH  19  20
ENDBRANCH  18  19
ENDBRANCH   1  18
BRANCH  10  24
HETATM   24  O2  UNL     1      24.623  -1.517  55.711  1.00  0.00    -0.264 OA
BRANCH  24  25
HETATM   25  N4  UNL     1      23.288  -1.670  56.004  1.00  0.00    -0.209 NA
HETATM   26  H22 UNL     1      22.842  -2.483  55.568  1.00  0.00     0.150 HD
HETATM   27  H23 UNL     1      22.814  -0.775  55.740  1.00  0.00     0.150 HD
ENDBRANCH  24  25
ENDBRANCH  10  24
TORSDOF 9
ENDMDL
MODEL 2
REMARK VINA RESULT:      -7.7      1.882      4.724
REMARK  9 active torsions:
REMARK  status: ('A' for Active; 'I' for Inactive)
REMARK    1  A    between atoms: N1_2  and  C3_4 
REMARK    2  A    between atoms: C3_4  and  C4_5 
REMARK    3  A    between atoms: C4_5  and  O1_6 
REMARK    4  A    between atoms: O1_6  and  C5_7 
REMARK    5  A    between atoms: C8_10  and  C9_11 
REMARK    6  A    between atoms: C9_11  and  C10_12 
REMARK    7  A    between atoms: C11_13  and  C12_15 
REMARK    8  A    between atoms: C18_23  and  O2_24 
REMARK    9  A    between atoms: O2_24  and  N4_25 
ROOT
HETATM    1  C5  UNL     1      24.401  -0.129  53.404  1.00  0.00     0.105 A 
HETATM    2  C6  UNL     1      24.636   0.890  52.496  1.00  0.00     0.055 A 
HETATM    3  C7  UNL     1      23.656   1.744  52.032  1.00  0.00     0.021 A 
HETATM    4  C8  UNL     1      23.971   2.743  51.124  1.00  0.00     0.052 A 
HETATM    5  N2  UNL     1      22.955   3.530  50.730  1.00  0.00    -0.245 NA
HETATM    6  C15 UNL     1      21.701   3.350  51.197  1.00  0.00     0.234 A 
HETATM    7  N3  UNL     1      21.399   2.378  52.079  1.00  0.00    -0.241 NA
HETATM    8  C16 UNL     1      22.381   1.540  52.525  1.00  0.00     0.073 A 
HETATM    9  C17 UNL     1      22.119   0.533  53.430  1.00  0.00     0.074 A 
HETATM   10  C18 UNL     1      23.116  -0.310  53.881  1.00  0.00     0.127 A 
ENDROOT
BRANCH   4  11
HETATM   11  C9  UNL     1      25.354   2.935  50.604  1.00  0.00     0.090 C 
BRANCH  11  12
HETATM   12  C10 UNL     1      25.518   4.331  50.130  1.00  0.00     0.021 C 
HETATM   13  C11 UNL     1      26.470   4.587  49.218  1.00  0.00     0.112 C 
HETATM   14  F1  UNL     1      27.042   3.384  48.984  1.00  0.00    -0.206 F 
BRANCH  13  15
HETATM   15  C12 UNL     1      26.759   5.895  48.658  1.00  0.00     0.037 C 
HETATM   16  C13 UNL     1      27.921   6.351  48.223  1.00  0.00    -0.028 C 
HETATM   17  C14 UNL     1      29.170   5.579  48.233  1.00  0.00     0.036 C 
ENDBRANCH  13  15
ENDBRANCH  11  12
ENDBRANCH   4  11
BRANCH   1  18
HETATM   18  O1  UNL     1      25.387  -0.988  53.871  1.00  0.00    -0.346 OA
BRANCH  18  19
HETATM   19  C4  UNL     1      26.763  -0.699  53.710  1.00  0.00     0.206 C 
BRANCH  19  20
HETATM   20  C3  UNL     1      27.258   0.227  54.793  1.00  0.00     0.297 C 
BRANCH  20  21
HETATM   21  N1  UNL     1      28.608   0.691  54.531  1.00  0.00     0.082 N 
HETATM   22  C1  UNL     1      28.492   1.879  53.699  1.00  0.00     0.309 C 
HETATM   23  C2  UNL     1      29.439  -0.304  53.910  1.00  0.00     0.309 C 
ENDBRANCH  20  21
ENDBRANCH  19  20
ENDBRANCH  18  19
ENDBRANCH   1  18
BRANCH  10  24
HETATM   24  O2  UNL     1      22.728  -1.267  54.776  1.00  0.00    -0.264 OA
BRANCH  24  25
HETATM   25  N4  UNL     1      23.482  -1.614  55.873  1.00  0.00    -0.209 NA
HETATM   26  H22 UNL     1      22.948  -2.009  56.655  1.00  0.00     0.150 HD
HETATM   27  H23 UNL     1      24.017  -0.760  56.157  1.00  0.00     0.150 HD
ENDBRANCH  24  25
ENDBRANCH  10  24
TORSDOF 9
ENDMDL
MODEL 3
REMARK VINA RESULT:      -7.7      2.734      7.276
REMARK  9 active torsions:
REMARK  status: ('A' for Active; 'I' for Inactive)
REMARK    1  A    between atoms: N1_2  and  C3_4 
REMARK    2  A    between atoms: C3_4  and  C4_5 
REMARK    3  A    between atoms: C4_5  and  O1_6 
REMARK    4  A    between atoms: O1_6  and  C5_7 
REMARK    5  A    between atoms: C8_10  and  C9_11 
REMARK    6  A    between atoms: C9_11  and  C10_12 
REMARK    7  A    between atoms: C11_13  and  C12_15 
REMARK    8  A    between atoms: C18_23  and  O2_24 
REMARK    9  A    between atoms: O2_24  and  N4_25 
ROOT
HETATM    1  C5  UNL     1      26.628   1.707  52.282  1.00  0.00     0.105 A 
HETATM    2  C6  UNL     1      25.327   1.254  52.421  1.00  0.00     0.055 A 
HETATM    3  C7  UNL     1      24.920   0.381  53.409  1.00  0.00     0.021 A 
HETATM    4  C8  UNL     1      23.595  -0.024  53.484  1.00  0.00     0.052 A 
HETATM    5  N2  UNL     1      23.289  -0.872  54.481  1.00  0.00    -0.245 NA
HETATM    6  C15 UNL     1      24.223  -1.300  55.356  1.00  0.00     0.234 A 
HETATM    7  N3  UNL     1      25.509  -0.904  55.280  1.00  0.00    -0.241 NA
HETATM    8  C16 UNL     1      25.894  -0.043  54.292  1.00  0.00     0.073 A 
HETATM    9  C17 UNL     1      27.198   0.392  54.178  1.00  0.00     0.074 A 
HETATM   10  C18 UNL     1      27.583   1.267  53.180  1.00  0.00     0.127 A 
ENDROOT
BRANCH   4  11
HETATM   11  C9  UNL     1      22.567   0.443  52.513  1.00  0.00     0.090 C 
BRANCH  11  12
HETATM   12  C10 UNL     1      21.380  -0.445  52.579  1.00  0.00     0.021 C 
HETATM   13  C11 UNL     1      20.222   0.072  53.020  1.00  0.00     0.112 C 
HETATM   14  F1  UNL     1      20.514   1.364  53.294  1.00  0.00    -0.206 F 
BRANCH  13  15
HETATM   15  C12 UNL     1      18.975  -0.662  53.148  1.00  0.00     0.037 C 
HETATM   16  C13 UNL     1      17.975  -0.715  52.287  1.00  0.00    -0.028 C 
HETATM   17  C14 UNL     1      17.952  -0.010  50.999  1.00  0.00     0.036 C 
ENDBRANCH  13  15
ENDBRANCH  11  12
ENDBRANCH   4  11
BRANCH   1  18
HETATM   18  O1  UNL     1      27.036   2.585  51.288  1.00  0.00    -0.346 OA
BRANCH  18  19
HETATM   19  C4  UNL     1      26.106   3.281  50.481  1.00  0.00     0.206 C 
BRANCH  19  20
HETATM   20  C3  UNL     1      26.788   3.962  49.321  1.00  0.00     0.297 C 
BRANCH  20  21
HETATM   21  N1  UNL     1      26.133   5.207  48.964  1.00  0.00     0.082 N 
HETATM   22  C1  UNL     1      27.176   6.123  48.529  1.00  0.00     0.309 C 
HETATM   23  C2  UNL     1      25.358   5.767  50.037  1.00  0.00     0.309 C 
ENDBRANCH  20  21
ENDBRANCH  19  20
ENDBRANCH  18  19
ENDBRANCH   1  18
BRANCH  10  24
HETATM   24  O2  UNL     1      28.902   1.622  53.174  1.00  0.00    -0.264 OA
BRANCH  24  25
HETATM   25  N4  UNL     1      29.324   2.930  53.158  1.00  0.00    -0.209 NA
HETATM   26  H22 UNL     1      30.083   3.131  52.497  1.00  0.00     0.150 HD
HETATM   27  H23 UNL     1      29.587   3.178  54.141  1.00  0.00     0.150 HD
ENDBRANCH  24  25
ENDBRANCH  10  24
TORSDOF 9
ENDMDL
MODEL 4
REMARK VINA RESULT:      -7.4      2.592      6.482
REMARK  9 active torsions:
REMARK  status: ('A' for Active; 'I' for Inactive)
REMARK    1  A    between atoms: N1_2  and  C3_4 
REMARK    2  A    between atoms: C3_4  and  C4_5 
REMARK    3  A    between atoms: C4_5  and  O1_6 
REMARK    4  A    between atoms: O1_6  and  C5_7 
REMARK    5  A    between atoms: C8_10  and  C9_11 
REMARK    6  A    between atoms: C9_11  and  C10_12 
REMARK    7  A    between atoms: C11_13  and  C12_15 
REMARK    8  A    between atoms: C18_23  and  O2_24 
REMARK    9  A    between atoms: O2_24  and  N4_25 
ROOT
HETATM    1  C5  UNL     1      26.556   1.337  52.150  1.00  0.00     0.105 A 
HETATM    2  C6  UNL     1      25.295   0.807  52.363  1.00  0.00     0.055 A 
HETATM    3  C7  UNL     1      24.946   0.089  53.488  1.00  0.00     0.021 A 
HETATM    4  C8  UNL     1      23.658  -0.407  53.631  1.00  0.00     0.052 A 
HETATM    5  N2  UNL     1      23.407  -1.092  54.760  1.00  0.00    -0.245 NA
HETATM    6  C15 UNL     1      24.359  -1.281  55.698  1.00  0.00     0.234 A 
HETATM    7  N3  UNL     1      25.609  -0.797  55.556  1.00  0.00    -0.241 NA
HETATM    8  C16 UNL     1      25.938  -0.091  54.433  1.00  0.00     0.073 A 
HETATM    9  C17 UNL     1      27.203   0.425  54.247  1.00  0.00     0.074 A 
HETATM   10  C18 UNL     1      27.530   1.142  53.112  1.00  0.00     0.127 A 
ENDROOT
BRANCH   4  11
HETATM   11  C9  UNL     1      22.611  -0.205  52.592  1.00  0.00     0.090 C 
BRANCH  11  12
HETATM   12  C10 UNL     1      21.785   0.977  52.941  1.00  0.00     0.021 C 
HETATM   13  C11 UNL     1      21.671   1.965  52.038  1.00  0.00     0.112 C 
HETATM   14  F1  UNL     1      22.411   1.544  50.986  1.00  0.00    -0.206 F 
BRANCH  13  15
HETATM   15  C12 UNL     1      20.907   3.185  52.227  1.00  0.00     0.037 C 
HETATM   16  C13 UNL     1      19.648   3.411  51.893  1.00  0.00    -0.028 C 
HETATM   17  C14 UNL     1      18.773   2.427  51.247  1.00  0.00     0.036 C 
ENDBRANCH  13  15
ENDBRANCH  11  12
ENDBRANCH   4  11
BRANCH   1  18
HETATM   18  O1  UNL     1      26.907   2.059  51.017  1.00  0.00    -0.346 OA
BRANCH  18  19
HETATM   19  C4  UNL     1      26.285   3.288  50.696  1.00  0.00     0.206 C 
BRANCH  19  20
HETATM   20  C3  UNL     1      26.730   3.791  49.345  1.00  0.00     0.297 C 
BRANCH  20  21
HETATM   21  N1  UNL     1      26.094   5.049  49.000  1.00  0.00     0.082 N 
HETATM   22  C1  UNL     1      27.152   5.958  48.591  1.00  0.00     0.309 C 
HETATM   23  C2  UNL     1      25.314   5.602  50.074  1.00  0.00     0.309 C 
ENDBRANCH  20  21
ENDBRANCH  19  20
ENDBRANCH  18  19
ENDBRANCH   1  18
BRANCH  10  24
HETATM   24  O2  UNL     1      28.815   1.599  53.046  1.00  0.00    -0.264 OA
BRANCH  24  25
HETATM   25  N4  UNL     1      29.133   2.938  53.040  1.00  0.00    -0.209 NA
HETATM   26  H22 UNL     1      28.617   3.500  52.354  1.00  0.00     0.150 HD
HETATM   27  H23 UNL     1      30.168   3.005  52.901  1.00  0.00     0.150 HD
ENDBRANCH  24  25
ENDBRANCH  10  24
TORSDOF 9
ENDMDL
MODEL 5
REMARK VINA RESULT:      -7.4      3.387      5.493
REMARK  9 active torsions:
REMARK  status: ('A' for Active; 'I' for Inactive)
REMARK    1  A    between atoms: N1_2  and  C3_4 
REMARK    2  A    between atoms: C3_4  and  C4_5 
REMARK    3  A    between atoms: C4_5  and  O1_6 
REMARK    4  A    between atoms: O1_6  and  C5_7 
REMARK    5  A    between atoms: C8_10  and  C9_11 
REMARK    6  A    between atoms: C9_11  and  C10_12 
REMARK    7  A    between atoms: C11_13  and  C12_15 
REMARK    8  A    between atoms: C18_23  and  O2_24 
REMARK    9  A    between atoms: O2_24  and  N4_25 
ROOT
HETATM    1  C5  UNL     1      20.532   0.162  52.171  1.00  0.00     0.105 A 
HETATM    2  C6  UNL     1      21.899   0.244  52.379  1.00  0.00     0.055 A 
HETATM    3  C7  UNL     1      22.548  -0.340  53.447  1.00  0.00     0.021 A 
HETATM    4  C8  UNL     1      23.923  -0.216  53.585  1.00  0.00     0.052 A 
HETATM    5  N2  UNL     1      24.470  -0.820  54.653  1.00  0.00    -0.245 NA
HETATM    6  C15 UNL     1      23.718  -1.508  55.538  1.00  0.00     0.234 A 
HETATM    7  N3  UNL     1      22.382  -1.627  55.401  1.00  0.00    -0.241 NA
HETATM    8  C16 UNL     1      21.756  -1.039  54.339  1.00  0.00     0.073 A 
HETATM    9  C17 UNL     1      20.393  -1.137  54.157  1.00  0.00     0.074 A 
HETATM   10  C18 UNL     1      19.764  -0.544  53.079  1.00  0.00     0.127 A 
ENDROOT
BRANCH   4  11
HETATM   11  C9  UNL     1      24.750   0.550  52.612  1.00  0.00     0.090 C 
BRANCH  11  12
HETATM   12  C10 UNL     1      25.990   1.023  53.277  1.00  0.00     0.021 C 
HETATM   13  C11 UNL     1      27.172   0.627  52.778  1.00  0.00     0.112 C 
HETATM   14  F1  UNL     1      26.845  -0.154  51.722  1.00  0.00    -0.206 F 
BRANCH  13  15
HETATM   15  C12 UNL     1      28.470   0.996  53.313  1.00  0.00     0.037 C 
HETATM   16  C13 UNL     1      29.478   0.197  53.617  1.00  0.00    -0.028 C 
HETATM   17  C14 UNL     1      29.454  -1.262  53.460  1.00  0.00     0.036 C 
ENDBRANCH  13  15
ENDBRANCH  11  12
ENDBRANCH   4  11
BRANCH   1  18
HETATM   18  O1  UNL     1      19.880   0.750  51.096  1.00  0.00    -0.346 OA
BRANCH  18  19
HETATM   19  C4  UNL     1      19.897   2.150  50.891  1.00  0.00     0.206 C 
BRANCH  19  20
HETATM   20  C3  UNL     1      21.060   2.561  50.022  1.00  0.00     0.297 C 
BRANCH  20  21
HETATM   21  N1  UNL     1      21.682   3.784  50.496  1.00  0.00     0.082 N 
HETATM   22  C1  UNL     1      23.057   3.767  50.024  1.00  0.00     0.309 C 
HETATM   23  C2  UNL     1      21.620   3.934  51.924  1.00  0.00     0.309 C 
ENDBRANCH  20  21
ENDBRANCH  19  20
ENDBRANCH  18  19
ENDBRANCH   1  18
BRANCH  10  24
HETATM   24  O2  UNL     1      18.410  -0.713  53.012  1.00  0.00    -0.264 OA
BRANCH  24  25
HETATM   25  N4  UNL     1      17.695  -1.403  53.963  1.00  0.00    -0.209 NA
HETATM   26  H22 UNL     1      16.815  -0.958  54.247  1.00  0.00     0.150 HD
HETATM   27  H23 UNL     1      18.336  -1.553  54.777  1.00  0.00     0.150 HD
ENDBRANCH  24  25
ENDBRANCH  10  24
TORSDOF 9
ENDMDL
MODEL 6
REMARK VINA RESULT:      -7.1      3.871      6.377
REMARK  9 active torsions:
REMARK  status: ('A' for Active; 'I' for Inactive)
REMARK    1  A    between atoms: N1_2  and  C3_4 
REMARK    2  A    between atoms: C3_4  and  C4_5 
REMARK    3  A    between atoms: C4_5  and  O1_6 
REMARK    4  A    between atoms: O1_6  and  C5_7 
REMARK    5  A    between atoms: C8_10  and  C9_11 
REMARK    6  A    between atoms: C9_11  and  C10_12 
REMARK    7  A    between atoms: C11_13  and  C12_15 
REMARK    8  A    between atoms: C18_23  and  O2_24 
REMARK    9  A    between atoms: O2_24  and  N4_25 
ROOT
HETATM    1  C5  UNL     1      21.451   1.489  50.939  1.00  0.00     0.105 A 
HETATM    2  C6  UNL     1      22.549   1.055  51.662  1.00  0.00     0.055 A 
HETATM    3  C7  UNL     1      22.461   0.251  52.780  1.00  0.00     0.021 A 
HETATM    4  C8  UNL     1      23.609  -0.145  53.449  1.00  0.00     0.052 A 
HETATM    5  N2  UNL     1      23.429  -0.931  54.525  1.00  0.00    -0.245 NA
HETATM    6  C15 UNL     1      22.196  -1.309  54.924  1.00  0.00     0.234 A 
HETATM    7  N3  UNL     1      21.083  -0.922  54.271  1.00  0.00    -0.241 NA
HETATM    8  C16 UNL     1      21.189  -0.123  53.169  1.00  0.00     0.073 A 
HETATM    9  C17 UNL     1      20.077   0.295  52.467  1.00  0.00     0.074 A 
HETATM   10  C18 UNL     1      20.189   1.100  51.350  1.00  0.00     0.127 A 
ENDROOT
BRANCH   4  11
HETATM   11  C9  UNL     1      24.968   0.280  53.012  1.00  0.00     0.090 C 
BRANCH  11  12
HETATM   12  C10 UNL     1      25.970  -0.717  53.463  1.00  0.00     0.021 C 
HETATM   13  C11 UNL     1      26.997  -1.004  52.646  1.00  0.00     0.112 C 
HETATM   14  F1  UNL     1      26.788  -0.225  51.560  1.00  0.00    -0.206 F 
BRANCH  13  15
HETATM   15  C12 UNL     1      28.055  -1.955  52.937  1.00  0.00     0.037 C 
HETATM   16  C13 UNL     1      29.285  -1.698  53.346  1.00  0.00    -0.028 C 
HETATM   17  C14 UNL     1      29.813  -0.350  53.586  1.00  0.00     0.036 C 
ENDBRANCH  13  15
ENDBRANCH  11  12
ENDBRANCH   4  11
BRANCH   1  18
HETATM   18  O1  UNL     1      21.539   2.299  49.815  1.00  0.00    -0.346 OA
BRANCH  18  19
HETATM   19  C4  UNL     1      22.414   3.410  49.765  1.00  0.00     0.206 C 
BRANCH  19  20
HETATM   20  C3  UNL     1      21.649   4.710  49.797  1.00  0.00     0.297 C 
BRANCH  20  21
HETATM   21  N1  UNL     1      21.648   5.303  51.121  1.00  0.00     0.082 N 
HETATM   22  C1  UNL     1      21.617   6.746  50.938  1.00  0.00     0.309 C 
HETATM   23  C2  UNL     1      22.772   4.902  51.923  1.00  0.00     0.309 C 
ENDBRANCH  20  21
ENDBRANCH  19  20
ENDBRANCH  18  19
ENDBRANCH   1  18
BRANCH  10  24
HETATM   24  O2  UNL     1      19.014   1.445  50.744  1.00  0.00    -0.264 OA
BRANCH  24  25
HETATM   25  N4  UNL     1      18.701   1.078  49.456  1.00  0.00    -0.209 NA
HETATM   26  H22 UNL     1      19.502   0.785  48.885  1.00  0.00     0.150 HD
HETATM   27  H23 UNL     1      18.188   1.883  49.025  1.00  0.00     0.150 HD
ENDBRANCH  24  25
ENDBRANCH  10  24
TORSDOF 9
ENDMDL
MODEL 7
REMARK VINA RESULT:      -6.9      2.102      2.673
REMARK  9 active torsions:
REMARK  status: ('A' for Active; 'I' for Inactive)
REMARK    1  A    between atoms: N1_2  and  C3_4 
REMARK    2  A    between atoms: C3_4  and  C4_5 
REMARK    3  A    between atoms: C4_5  and  O1_6 
REMARK    4  A    between atoms: O1_6  and  C5_7 
REMARK    5  A    between atoms: C8_10  and  C9_11 
REMARK    6  A    between atoms: C9_11  and  C10_12 
REMARK    7  A    between atoms: C11_13  and  C12_15 
REMARK    8  A    between atoms: C18_23  and  O2_24 
REMARK    9  A    between atoms: O2_24  and  N4_25 
ROOT
HETATM    1  C5  UNL     1      23.347  -0.294  53.425  1.00  0.00     0.105 A 
HETATM    2  C6  UNL     1      24.420   0.262  52.749  1.00  0.00     0.055 A 
HETATM    3  C7  UNL     1      25.705   0.298  53.249  1.00  0.00     0.021 A 
HETATM    4  C8  UNL     1      26.729   0.870  52.508  1.00  0.00     0.052 A 
HETATM    5  N2  UNL     1      27.949   0.858  53.072  1.00  0.00    -0.245 NA
HETATM    6  C15 UNL     1      28.158   0.317  54.290  1.00  0.00     0.234 A 
HETATM    7  N3  UNL     1      27.161  -0.238  55.007  1.00  0.00    -0.241 NA
HETATM    8  C16 UNL     1      25.894  -0.262  54.498  1.00  0.00     0.073 A 
HETATM    9  C17 UNL     1      24.844  -0.822  55.194  1.00  0.00     0.074 A 
HETATM   10  C18 UNL     1      23.564  -0.848  54.674  1.00  0.00     0.127 A 
ENDROOT
BRANCH   4  11
HETATM   11  C9  UNL     1      26.495   1.474  51.167  1.00  0.00     0.090 C 
BRANCH  11  12
HETATM   12  C10 UNL     1      26.200   2.921  51.317  1.00  0.00     0.021 C 
HETATM   13  C11 UNL     1      25.103   3.414  50.718  1.00  0.00     0.112 C 
HETATM   14  F1  UNL     1      24.548   2.344  50.104  1.00  0.00    -0.206 F 
BRANCH  13  15
HETATM   15  C12 UNL     1      24.678   4.801  50.766  1.00  0.00     0.037 C 
HETATM   16  C13 UNL     1      23.774   5.344  51.561  1.00  0.00    -0.028 C 
HETATM   17  C14 UNL     1      23.012   4.606  52.575  1.00  0.00     0.036 C 
ENDBRANCH  13  15
ENDBRANCH  11  12
ENDBRANCH   4  11
BRANCH   1  18
HETATM   18  O1  UNL     1      22.054  -0.330  52.922  1.00  0.00    -0.346 OA
BRANCH  18  19
HETATM   19  C4  UNL     1      21.244   0.829  52.866  1.00  0.00     0.206 C 
BRANCH  19  20
HETATM   20  C3  UNL     1      19.802   0.477  52.599  1.00  0.00     0.297 C 
BRANCH  20  21
HETATM   21  N1  UNL     1      19.156   1.457  51.746  1.00  0.00     0.082 N 
HETATM   22  C1  UNL     1      19.365   1.025  50.373  1.00  0.00     0.309 C 
HETATM   23  C2  UNL     1      19.639   2.795  51.954  1.00  0.00     0.309 C 
ENDBRANCH  20  21
ENDBRANCH  19  20
ENDBRANCH  18  19
ENDBRANCH   1  18
BRANCH  10  24
HETATM   24  O2  UNL     1      22.612  -1.431  55.461  1.00  0.00    -0.264 OA
BRANCH  24  25
HETATM   25  N4  UNL     1      21.584  -2.191  54.953  1.00  0.00    -0.209 NA
HETATM   26  H22 UNL     1      21.621  -2.342  53.938  1.00  0.00     0.150 HD
HETATM   27  H23 UNL     1      20.691  -1.731  55.247  1.00  0.00     0.150 HD
ENDBRANCH  24  25
ENDBRANCH  10  24
TORSDOF 9
ENDMDL
MODEL 8
REMARK VINA RESULT:      -6.8      1.892      2.539
REMARK  9 active torsions:
REMARK  status: ('A' for Active; 'I' for Inactive)
REMARK    1  A    between atoms: N1_2  and  C3_4 
REMARK    2  A    between atoms: C3_4  and  C4_5 
REMARK    3  A    between atoms: C4_5  and  O1_6 
REMARK    4  A    between atoms: O1_6  and  C5_7 
REMARK    5  A    between atoms: C8_10  and  C9_11 
REMARK    6  A    between atoms: C9_11  and  C10_12 
REMARK    7  A    between atoms: C11_13  and  C12_15 
REMARK    8  A    between atoms: C18_23  and  O2_24 
REMARK    9  A    between atoms: O2_24  and  N4_25 
ROOT
HETATM    1  C5  UNL     1      22.029   0.569  53.258  1.00  0.00     0.105 A 
HETATM    2  C6  UNL     1      23.046   1.161  52.528  1.00  0.00     0.055 A 
HETATM    3  C7  UNL     1      24.379   0.833  52.664  1.00  0.00     0.021 A 
HETATM    4  C8  UNL     1      25.340   1.470  51.893  1.00  0.00     0.052 A 
HETATM    5  N2  UNL     1      26.612   1.084  52.090  1.00  0.00    -0.245 NA
HETATM    6  C15 UNL     1      26.929   0.129  52.990  1.00  0.00     0.234 A 
HETATM    7  N3  UNL     1      25.992  -0.488  53.738  1.00  0.00    -0.241 NA
HETATM    8  C16 UNL     1      24.678  -0.147  53.592  1.00  0.00     0.073 A 
HETATM    9  C17 UNL     1      23.686  -0.754  54.333  1.00  0.00     0.074 A 
HETATM   10  C18 UNL     1      22.356  -0.409  54.179  1.00  0.00     0.127 A 
ENDROOT
BRANCH   4  11
HETATM   11  C9  UNL     1      24.989   2.529  50.906  1.00  0.00     0.090 C 
BRANCH  11  12
HETATM   12  C10 UNL     1      26.183   2.862  50.089  1.00  0.00     0.021 C 
HETATM   13  C11 UNL     1      26.349   4.134  49.693  1.00  0.00     0.112 C 
HETATM   14  F1  UNL     1      25.281   4.788  50.207  1.00  0.00    -0.206 F 
BRANCH  13  15
HETATM   15  C12 UNL     1      27.456   4.620  48.890  1.00  0.00     0.037 C 
HETATM   16  C13 UNL     1      27.600   5.818  48.349  1.00  0.00    -0.028 C 
HETATM   17  C14 UNL     1      26.622   6.905  48.473  1.00  0.00     0.036 C 
ENDBRANCH  13  15
ENDBRANCH  11  12
ENDBRANCH   4  11
BRANCH   1  18
HETATM   18  O1  UNL     1      20.688   0.900  53.120  1.00  0.00    -0.346 OA
BRANCH  18  19
HETATM   19  C4  UNL     1      20.001   0.728  51.896  1.00  0.00     0.206 C 
BRANCH  19  20
HETATM   20  C3  UNL     1      18.923   1.769  51.722  1.00  0.00     0.297 C 
BRANCH  20  21
HETATM   21  N1  UNL     1      17.602   1.172  51.652  1.00  0.00     0.082 N 
HETATM   22  C1  UNL     1      17.749  -0.096  50.956  1.00  0.00     0.309 C 
HETATM   23  C2  UNL     1      16.634   2.016  51.005  1.00  0.00     0.309 C 
ENDBRANCH  20  21
ENDBRANCH  19  20
ENDBRANCH  18  19
ENDBRANCH   1  18
BRANCH  10  24
HETATM   24  O2  UNL     1      21.470  -1.082  54.972  1.00  0.00    -0.264 OA
BRANCH  24  25
HETATM   25  N4  UNL     1      20.335  -1.684  54.480  1.00  0.00    -0.209 NA
HETATM   26  H22 UNL     1      19.575  -1.792  55.161  1.00  0.00     0.150 HD
HETATM   27  H23 UNL     1      20.629  -2.603  54.074  1.00  0.00     0.150 HD
ENDBRANCH  24  25
ENDBRANCH  10  24
TORSDOF 9
ENDMDL
MODEL 9
REMARK VINA RESULT:      -6.7      2.561      5.306
REMARK  9 active torsions:
REMARK  status: ('A' for Active; 'I' for Inactive)
REMARK    1  A    between atoms: N1_2  and  C3_4 
REMARK    2  A    between atoms: C3_4  and  C4_5 
REMARK    3  A    between atoms: C4_5  and  O1_6 
REMARK    4  A    between atoms: O1_6  and  C5_7 
REMARK    5  A    between atoms: C8_10  and  C9_11 
REMARK    6  A    between atoms: C9_11  and  C10_12 
REMARK    7  A    between atoms: C11_13  and  C12_15 
REMARK    8  A    between atoms: C18_23  and  O2_24 
REMARK    9  A    between atoms: O2_24  and  N4_25 
ROOT
HETATM    1  C5  UNL     1      23.790  -0.020  53.357  1.00  0.00     0.105 A 
HETATM    2  C6  UNL     1      23.834   1.117  52.568  1.00  0.00     0.055 A 
HETATM    3  C7  UNL     1      22.739   1.915  52.312  1.00  0.00     0.021 A 
HETATM    4  C8  UNL     1      22.864   3.042  51.512  1.00  0.00     0.052 A 
HETATM    5  N2  UNL     1      21.746   3.762  51.320  1.00  0.00    -0.245 NA
HETATM    6  C15 UNL     1      20.570   3.402  51.877  1.00  0.00     0.234 A 
HETATM    7  N3  UNL     1      20.452   2.307  52.654  1.00  0.00    -0.241 NA
HETATM    8  C16 UNL     1      21.547   1.526  52.893  1.00  0.00     0.073 A 
HETATM    9  C17 UNL     1      21.473   0.399  53.684  1.00  0.00     0.074 A 
HETATM   10  C18 UNL     1      22.584  -0.386  53.927  1.00  0.00     0.127 A 
ENDROOT
BRANCH   4  11
HETATM   11  C9  UNL     1      24.161   3.432  50.891  1.00  0.00     0.090 C 
BRANCH  11  12
HETATM   12  C10 UNL     1      23.906   4.157  49.622  1.00  0.00     0.021 C 
HETATM   13  C11 UNL     1      24.372   5.410  49.498  1.00  0.00     0.112 C 
HETATM   14  F1  UNL     1      24.991   5.655  50.676  1.00  0.00    -0.206 F 
BRANCH  13  15
HETATM   15  C12 UNL     1      24.205   6.251  48.327  1.00  0.00     0.037 C 
HETATM   16  C13 UNL     1      23.172   7.017  48.020  1.00  0.00    -0.028 C 
HETATM   17  C14 UNL     1      21.967   7.152  48.848  1.00  0.00     0.036 C 
ENDBRANCH  13  15
ENDBRANCH  11  12
ENDBRANCH   4  11
BRANCH   1  18
HETATM   18  O1  UNL     1      24.893  -0.823  53.614  1.00  0.00    -0.346 OA
BRANCH  18  19
HETATM   19  C4  UNL     1      26.099  -0.290  54.125  1.00  0.00     0.206 C 
BRANCH  19  20
HETATM   20  C3  UNL     1      27.164  -0.223  53.058  1.00  0.00     0.297 C 
BRANCH  20  21
HETATM   21  N1  UNL     1      28.322   0.532  53.497  1.00  0.00     0.082 N 
HETATM   22  C1  UNL     1      28.572   0.156  54.880  1.00  0.00     0.309 C 
HETATM   23  C2  UNL     1      28.155   1.954  53.363  1.00  0.00     0.309 C 
ENDBRANCH  20  21
ENDBRANCH  19  20
ENDBRANCH  18  19
ENDBRANCH   1  18
BRANCH  10  24
HETATM   24  O2  UNL     1      22.381  -1.476  54.725  1.00  0.00    -0.264 OA
BRANCH  24  25
HETATM   25  N4  UNL     1      23.129  -1.727  55.852  1.00  0.00    -0.209 NA
HETATM   26  H22 UNL     1      22.597  -1.740  56.729  1.00  0.00     0.150 HD
HETATM   27  H23 UNL     1      23.898  -1.016  55.872  1.00  0.00     0.150 HD
ENDBRANCH  24  25
ENDBRANCH  10  24
TORSDOF 9
ENDMDL
