MODEL 1
REMARK VINA RESULT:      -6.7      0.000      0.000
REMARK  7 active torsions:
REMARK  status: ('A' for Active; 'I' for Inactive)
REMARK    1  A    between atoms: C2_2  and  O1_3 
REMARK    2  A    between atoms: O1_3  and  C3_4 
REMARK    3  A    between atoms: C3_4  and  N1_5 
REMARK    4  A    between atoms: C3_4  and  N2_6 
REMARK    5  A    between atoms: N2_6  and  C4_7 
REMARK    6  A    between atoms: C4_7  and  N3_8 
REMARK    7  A    between atoms: C7_11  and  O2_12 
ROOT
HETATM    1  N3  UNL     1      25.441   0.930  52.672  1.00  0.00    -0.339 N 
HETATM    2  C5  UNL     1      26.489   0.787  51.678  1.00  0.00     0.135 C 
HETATM    3  C6  UNL     1      26.675   1.975  50.795  1.00  0.00     0.127 C 
HETATM    4  C7  UNL     1      26.011   3.147  50.550  1.00  0.00     0.065 C 
HETATM    5  C9  UNL     1      24.880   4.128  50.744  1.00  0.00     0.007 C 
HETATM    6  C10 UNL     1      23.852   3.905  51.548  1.00  0.00     0.018 C 
HETATM    7  C11 UNL     1      23.503   2.777  52.407  1.00  0.00     0.118 C 
HETATM    8  N4  UNL     1      23.248   1.756  53.145  1.00  0.00    -0.243 NA
HETATM    9  C12 UNL     1      24.142   0.667  53.173  1.00  0.00     0.133 C 
HETATM   10  C13 UNL     1      24.128  -0.553  53.552  1.00  0.00     0.106 C 
HETATM   11 BR1  UNL     1      22.403  -0.959  54.235  1.00  0.00    -0.060 Br
ENDROOT
BRANCH   1  12
HETATM   12  C4  UNL     1      25.969   1.853  53.662  1.00  0.00     0.402 C 
BRANCH  12  13
HETATM   13  N2  UNL     1      26.723   1.147  54.688  1.00  0.00     0.159 N 
HETATM   14  H9  UNL     1      26.743   1.773  55.518  1.00  0.00     0.323 HD
BRANCH  13  15
HETATM   15  C3  UNL     1      28.086   0.853  54.219  1.00  0.00     0.593 C 
BRANCH  15  16
HETATM   16  O1  UNL     1      28.507  -0.378  54.662  1.00  0.00    -0.336 OA
BRANCH  16  17
HETATM   17  C2  UNL     1      29.596  -0.859  53.924  1.00  0.00     0.168 C 
HETATM   18  C1  UNL     1      29.119  -2.073  53.154  1.00  0.00     0.033 C 
ENDBRANCH  16  17
ENDBRANCH  15  16
BRANCH  15  19
HETATM   19  N1  UNL     1      28.952   1.881  54.765  1.00  0.00     0.137 N 
HETATM   20  H7  UNL     1      28.597   2.110  55.718  1.00  0.00     0.318 HD
HETATM   21  H8  UNL     1      29.956   1.628  54.724  1.00  0.00     0.318 HD
ENDBRANCH  15  19
ENDBRANCH  13  15
ENDBRANCH  12  13
ENDBRANCH   1  12
BRANCH   4  22
HETATM   22  O2  UNL     1      26.982   3.527  49.614  1.00  0.00    -0.386 OA
HETATM   23  C8  UNL     1      27.001   4.759  48.950  1.00  0.00     0.202 C 
ENDBRANCH   4  22
TORSDOF 7
ENDMDL
MODEL 2
REMARK VINA RESULT:      -6.5      3.297      5.859
REMARK  7 active torsions:
REMARK  status: ('A' for Active; 'I' for Inactive)
REMARK    1  A    between atoms: C2_2  and  O1_3 
REMARK    2  A    between atoms: O1_3  and  C3_4 
REMARK    3  A    between atoms: C3_4  and  N1_5 
REMARK    4  A    between atoms: C3_4  and  N2_6 
REMARK    5  A    between atoms: N2_6  and  C4_7 
REMARK    6  A    between atoms: C4_7  and  N3_8 
REMARK    7  A    between atoms: C7_11  and  O2_12 
ROOT
HETATM    1  N3  UNL     1      24.052   1.102  52.066  1.00  0.00    -0.339 N 
HETATM    2  C5  UNL     1      23.167   1.360  50.945  1.00  0.00     0.135 C 
HETATM    3  C6  UNL     1      21.739   1.000  51.184  1.00  0.00     0.127 C 
HETATM    4  C7  UNL     1      21.029   0.330  52.144  1.00  0.00     0.065 C 
HETATM    5  C9  UNL     1      20.894  -0.459  53.424  1.00  0.00     0.007 C 
HETATM    6  C10 UNL     1      21.926  -0.817  54.171  1.00  0.00     0.018 C 
HETATM    7  C11 UNL     1      23.364  -0.602  54.030  1.00  0.00     0.118 C 
HETATM    8  N4  UNL     1      24.617  -0.382  53.852  1.00  0.00    -0.243 NA
HETATM    9  C12 UNL     1      25.051   0.347  52.727  1.00  0.00     0.133 C 
HETATM   10  C13 UNL     1      26.148   0.548  52.101  1.00  0.00     0.106 C 
HETATM   11 BR1  UNL     1      27.525  -0.445  52.951  1.00  0.00    -0.060 Br
ENDROOT
BRANCH   1  12
HETATM   12  C4  UNL     1      23.736   2.121  53.051  1.00  0.00     0.402 C 
BRANCH  12  13
HETATM   13  N2  UNL     1      24.424   3.370  52.755  1.00  0.00     0.159 N 
HETATM   14  H9  UNL     1      25.096   3.524  53.532  1.00  0.00     0.323 HD
BRANCH  13  15
HETATM   15  C3  UNL     1      23.463   4.480  52.664  1.00  0.00     0.593 C 
BRANCH  15  16
HETATM   16  O1  UNL     1      23.354   4.936  51.372  1.00  0.00    -0.336 OA
BRANCH  16  17
HETATM   17  C2  UNL     1      24.570   4.853  50.681  1.00  0.00     0.168 C 
HETATM   18  C1  UNL     1      24.251   4.486  49.246  1.00  0.00     0.033 C 
ENDBRANCH  16  17
ENDBRANCH  15  16
BRANCH  15  19
HETATM   19  N1  UNL     1      23.969   5.547  53.507  1.00  0.00     0.137 N 
HETATM   20  H7  UNL     1      24.698   5.133  54.126  1.00  0.00     0.318 HD
HETATM   21  H8  UNL     1      24.275   6.378  52.970  1.00  0.00     0.318 HD
ENDBRANCH  15  19
ENDBRANCH  13  15
ENDBRANCH  12  13
ENDBRANCH   1  12
BRANCH   4  22
HETATM   22  O2  UNL     1      19.833   0.565  51.454  1.00  0.00    -0.386 OA
HETATM   23  C8  UNL     1      18.626  -0.097  51.713  1.00  0.00     0.202 C 
ENDBRANCH   4  22
TORSDOF 7
ENDMDL
MODEL 3
REMARK VINA RESULT:      -6.2      3.516      4.860
REMARK  7 active torsions:
REMARK  status: ('A' for Active; 'I' for Inactive)
REMARK    1  A    between atoms: C2_2  and  O1_3 
REMARK    2  A    between atoms: O1_3  and  C3_4 
REMARK    3  A    between atoms: C3_4  and  N1_5 
REMARK    4  A    between atoms: C3_4  and  N2_6 
REMARK    5  A    between atoms: N2_6  and  C4_7 
REMARK    6  A    between atoms: C4_7  and  N3_8 
REMARK    7  A    between atoms: C7_11  and  O2_12 
ROOT
HETATM    1  N3  UNL     1      24.442   3.894  51.219  1.00  0.00    -0.339 N 
HETATM    2  C5  UNL     1      24.023   3.622  52.582  1.00  0.00     0.135 C 
HETATM    3  C6  UNL     1      23.124   2.441  52.732  1.00  0.00     0.127 C 
HETATM    4  C7  UNL     1      22.437   1.601  51.898  1.00  0.00     0.065 C 
HETATM    5  C9  UNL     1      21.973   1.118  50.544  1.00  0.00     0.007 C 
HETATM    6  C10 UNL     1      22.289   1.721  49.409  1.00  0.00     0.018 C 
HETATM    7  C11 UNL     1      23.088   2.907  49.115  1.00  0.00     0.118 C 
HETATM    8  N4  UNL     1      23.801   3.958  48.917  1.00  0.00    -0.243 NA
HETATM    9  C12 UNL     1      24.380   4.632  50.011  1.00  0.00     0.133 C 
HETATM   10  C13 UNL     1      24.908   5.772  50.242  1.00  0.00     0.106 C 
HETATM   11 BR1  UNL     1      24.850   6.804  48.649  1.00  0.00    -0.060 Br
ENDROOT
BRANCH   1  12
HETATM   12  C4  UNL     1      25.400   2.852  50.893  1.00  0.00     0.402 C 
BRANCH  12  13
HETATM   13  N2  UNL     1      26.703   3.136  51.477  1.00  0.00     0.159 N 
HETATM   14  H9  UNL     1      27.347   3.316  50.681  1.00  0.00     0.323 HD
BRANCH  13  15
HETATM   15  C3  UNL     1      27.169   1.995  52.280  1.00  0.00     0.593 C 
BRANCH  15  16
HETATM   16  O1  UNL     1      26.301   0.934  52.182  1.00  0.00    -0.336 OA
BRANCH  16  17
HETATM   17  C2  UNL     1      26.390   0.079  53.288  1.00  0.00     0.168 C 
HETATM   18  C1  UNL     1      27.085  -1.186  52.826  1.00  0.00     0.033 C 
ENDBRANCH  16  17
ENDBRANCH  15  16
BRANCH  15  19
HETATM   19  N1  UNL     1      27.224   2.444  53.659  1.00  0.00     0.137 N 
HETATM   20  H7  UNL     1      27.284   1.592  54.259  1.00  0.00     0.318 HD
HETATM   21  H8  UNL     1      27.965   3.147  53.828  1.00  0.00     0.318 HD
ENDBRANCH  15  19
ENDBRANCH  13  15
ENDBRANCH  12  13
ENDBRANCH   1  12
BRANCH   4  22
HETATM   22  O2  UNL     1      21.953   0.873  52.993  1.00  0.00    -0.386 OA
HETATM   23  C8  UNL     1      22.413  -0.396  53.365  1.00  0.00     0.202 C 
ENDBRANCH   4  22
TORSDOF 7
ENDMDL
MODEL 4
REMARK VINA RESULT:      -6.2      3.005      4.733
REMARK  7 active torsions:
REMARK  status: ('A' for Active; 'I' for Inactive)
REMARK    1  A    between atoms: C2_2  and  O1_3 
REMARK    2  A    between atoms: O1_3  and  C3_4 
REMARK    3  A    between atoms: C3_4  and  N1_5 
REMARK    4  A    between atoms: C3_4  and  N2_6 
REMARK    5  A    between atoms: N2_6  and  C4_7 
REMARK    6  A    between atoms: C4_7  and  N3_8 
REMARK    7  A    between atoms: C7_11  and  O2_12 
ROOT
HETATM    1  N3  UNL     1      25.241   2.516  52.825  1.00  0.00    -0.339 N 
HETATM    2  C5  UNL     1      24.218   3.424  53.311  1.00  0.00     0.135 C 
HETATM    3  C6  UNL     1      23.623   4.307  52.267  1.00  0.00     0.127 C 
HETATM    4  C7  UNL     1      23.885   4.619  50.960  1.00  0.00     0.065 C 
HETATM    5  C9  UNL     1      24.680   4.527  49.679  1.00  0.00     0.007 C 
HETATM    6  C10 UNL     1      25.781   3.802  49.555  1.00  0.00     0.018 C 
HETATM    7  C11 UNL     1      26.511   2.956  50.495  1.00  0.00     0.118 C 
HETATM    8  N4  UNL     1      27.111   2.226  51.366  1.00  0.00    -0.243 NA
HETATM    9  C12 UNL     1      26.590   2.113  52.670  1.00  0.00     0.133 C 
HETATM   10  C13 UNL     1      26.997   1.718  53.816  1.00  0.00     0.106 C 
HETATM   11 BR1  UNL     1      28.806   1.165  53.663  1.00  0.00    -0.060 Br
ENDROOT
BRANCH   1  12
HETATM   12  C4  UNL     1      24.529   1.502  52.067  1.00  0.00     0.402 C 
BRANCH  12  13
HETATM   13  N2  UNL     1      23.514   0.852  52.883  1.00  0.00     0.159 N 
HETATM   14  H9  UNL     1      23.490   1.367  53.785  1.00  0.00     0.323 HD
BRANCH  13  15
HETATM   15  C3  UNL     1      23.852  -0.564  53.097  1.00  0.00     0.593 C 
BRANCH  15  16
HETATM   16  O1  UNL     1      22.730  -1.355  53.036  1.00  0.00    -0.336 OA
BRANCH  16  17
HETATM   17  C2  UNL     1      21.566  -0.641  53.346  1.00  0.00     0.168 C 
HETATM   18  C1  UNL     1      20.779  -1.467  54.343  1.00  0.00     0.033 C 
ENDBRANCH  16  17
ENDBRANCH  15  16
BRANCH  15  19
HETATM   19  N1  UNL     1      24.439  -0.665  54.420  1.00  0.00     0.137 N 
HETATM   20  H7  UNL     1      23.658  -0.821  55.093  1.00  0.00     0.318 HD
HETATM   21  H8  UNL     1      25.203  -1.361  54.473  1.00  0.00     0.318 HD
ENDBRANCH  15  19
ENDBRANCH  13  15
ENDBRANCH  12  13
ENDBRANCH   1  12
BRANCH   4  22
HETATM   22  O2  UNL     1      22.783   5.483  50.922  1.00  0.00    -0.386 OA
HETATM   23  C8  UNL     1      21.503   5.153  51.385  1.00  0.00     0.202 C 
ENDBRANCH   4  22
TORSDOF 7
ENDMDL
MODEL 5
REMARK VINA RESULT:      -6.0      3.153      5.192
REMARK  7 active torsions:
REMARK  status: ('A' for Active; 'I' for Inactive)
REMARK    1  A    between atoms: C2_2  and  O1_3 
REMARK    2  A    between atoms: O1_3  and  C3_4 
REMARK    3  A    between atoms: C3_4  and  N1_5 
REMARK    4  A    between atoms: C3_4  and  N2_6 
REMARK    5  A    between atoms: N2_6  and  C4_7 
REMARK    6  A    between atoms: C4_7  and  N3_8 
REMARK    7  A    between atoms: C7_11  and  O2_12 
ROOT
HETATM    1  N3  UNL     1      25.251   2.382  52.856  1.00  0.00    -0.339 N 
HETATM    2  C5  UNL     1      24.218   3.273  53.351  1.00  0.00     0.135 C 
HETATM    3  C6  UNL     1      23.606   4.153  52.314  1.00  0.00     0.127 C 
HETATM    4  C7  UNL     1      23.858   4.475  51.007  1.00  0.00     0.065 C 
HETATM    5  C9  UNL     1      24.648   4.400  49.723  1.00  0.00     0.007 C 
HETATM    6  C10 UNL     1      25.758   3.691  49.590  1.00  0.00     0.018 C 
HETATM    7  C11 UNL     1      26.504   2.850  50.522  1.00  0.00     0.118 C 
HETATM    8  N4  UNL     1      27.118   2.124  51.387  1.00  0.00    -0.243 NA
HETATM    9  C12 UNL     1      26.604   1.998  52.693  1.00  0.00     0.133 C 
HETATM   10  C13 UNL     1      27.021   1.603  53.835  1.00  0.00     0.106 C 
HETATM   11 BR1  UNL     1      28.838   1.075  53.671  1.00  0.00    -0.060 Br
ENDROOT
BRANCH   1  12
HETATM   12  C4  UNL     1      24.549   1.362  52.096  1.00  0.00     0.402 C 
BRANCH  12  13
HETATM   13  N2  UNL     1      23.779   0.491  52.971  1.00  0.00     0.159 N 
HETATM   14  H9  UNL     1      24.288  -0.414  53.006  1.00  0.00     0.323 HD
BRANCH  13  15
HETATM   15  C3  UNL     1      22.416   0.307  52.448  1.00  0.00     0.593 C 
BRANCH  15  16
HETATM   16  O1  UNL     1      22.204   1.087  51.336  1.00  0.00    -0.336 OA
BRANCH  16  17
HETATM   17  C2  UNL     1      21.143   0.611  50.554  1.00  0.00     0.168 C 
HETATM   18  C1  UNL     1      21.435   0.992  49.117  1.00  0.00     0.033 C 
ENDBRANCH  16  17
ENDBRANCH  15  16
BRANCH  15  19
HETATM   19  N1  UNL     1      21.500   0.711  53.498  1.00  0.00     0.137 N 
HETATM   20  H7  UNL     1      21.862   0.316  54.392  1.00  0.00     0.318 HD
HETATM   21  H8  UNL     1      21.326   1.732  53.513  1.00  0.00     0.318 HD
ENDBRANCH  15  19
ENDBRANCH  13  15
ENDBRANCH  12  13
ENDBRANCH   1  12
BRANCH   4  22
HETATM   22  O2  UNL     1      22.744   5.324  50.979  1.00  0.00    -0.386 OA
HETATM   23  C8  UNL     1      21.456   4.952  51.383  1.00  0.00     0.202 C 
ENDBRANCH   4  22
TORSDOF 7
ENDMDL
MODEL 6
REMARK VINA RESULT:      -6.0      3.328      6.519
REMARK  7 active torsions:
REMARK  status: ('A' for Active; 'I' for Inactive)
REMARK    1  A    between atoms: C2_2  and  O1_3 
REMARK    2  A    between atoms: O1_3  and  C3_4 
REMARK    3  A    between atoms: C3_4  and  N1_5 
REMARK    4  A    between atoms: C3_4  and  N2_6 
REMARK    5  A    between atoms: N2_6  and  C4_7 
REMARK    6  A    between atoms: C4_7  and  N3_8 
REMARK    7  A    between atoms: C7_11  and  O2_12 
ROOT
HETATM    1  N3  UNL     1      24.076   2.186  51.624  1.00  0.00    -0.339 N 
HETATM    2  C5  UNL     1      22.916   1.316  51.564  1.00  0.00     0.135 C 
HETATM    3  C6  UNL     1      22.907   0.220  52.575  1.00  0.00     0.127 C 
HETATM    4  C7  UNL     1      23.789  -0.307  53.480  1.00  0.00     0.065 C 
HETATM    5  C9  UNL     1      25.130  -0.397  54.169  1.00  0.00     0.007 C 
HETATM    6  C10 UNL     1      26.165   0.365  53.850  1.00  0.00     0.018 C 
HETATM    7  C11 UNL     1      26.343   1.414  52.851  1.00  0.00     0.118 C 
HETATM    8  N4  UNL     1      26.439   2.329  51.953  1.00  0.00    -0.243 NA
HETATM    9  C12 UNL     1      25.328   2.642  51.145  1.00  0.00     0.133 C 
HETATM   10  C13 UNL     1      25.106   3.265  50.051  1.00  0.00     0.106 C 
HETATM   11 BR1  UNL     1      26.758   3.900  49.364  1.00  0.00    -0.060 Br
ENDROOT
BRANCH   1  12
HETATM   12  C4  UNL     1      23.891   2.995  52.816  1.00  0.00     0.402 C 
BRANCH  12  13
HETATM   13  N2  UNL     1      24.097   4.408  52.529  1.00  0.00     0.159 N 
HETATM   14  H9  UNL     1      24.782   4.752  53.230  1.00  0.00     0.323 HD
BRANCH  13  15
HETATM   15  C3  UNL     1      22.828   5.146  52.628  1.00  0.00     0.593 C 
BRANCH  15  16
HETATM   16  O1  UNL     1      21.753   4.308  52.451  1.00  0.00    -0.336 OA
BRANCH  16  17
HETATM   17  C2  UNL     1      20.993   4.658  51.328  1.00  0.00     0.168 C 
HETATM   18  C1  UNL     1      19.702   3.867  51.392  1.00  0.00     0.033 C 
ENDBRANCH  16  17
ENDBRANCH  15  16
BRANCH  15  19
HETATM   19  N1  UNL     1      22.836   6.145  51.576  1.00  0.00     0.137 N 
HETATM   20  H7  UNL     1      23.786   6.575  51.564  1.00  0.00     0.318 HD
HETATM   21  H8  UNL     1      22.516   5.774  50.663  1.00  0.00     0.318 HD
ENDBRANCH  15  19
ENDBRANCH  13  15
ENDBRANCH  12  13
ENDBRANCH   1  12
BRANCH   4  22
HETATM   22  O2  UNL     1      22.831  -1.234  53.908  1.00  0.00    -0.386 OA
HETATM   23  C8  UNL     1      21.765  -0.932  54.766  1.00  0.00     0.202 C 
ENDBRANCH   4  22
TORSDOF 7
ENDMDL
MODEL 7
REMARK VINA RESULT:      -5.9      3.254      6.008
REMARK  7 active torsions:
REMARK  status: ('A' for Active; 'I' for Inactive)
REMARK    1  A    between atoms: C2_2  and  O1_3 
REMARK    2  A    between atoms: O1_3  and  C3_4 
REMARK    3  A    between atoms: C3_4  and  N1_5 
REMARK    4  A    between atoms: C3_4  and  N2_6 
REMARK    5  A    between atoms: N2_6  and  C4_7 
REMARK    6  A    between atoms: C4_7  and  N3_8 
REMARK    7  A    between atoms: C7_11  and  O2_12 
ROOT
HETATM    1  N3  UNL     1      23.273   1.857  51.354  1.00  0.00    -0.339 N 
HETATM    2  C5  UNL     1      23.284   0.655  52.167  1.00  0.00     0.135 C 
HETATM    3  C6  UNL     1      24.595   0.348  52.807  1.00  0.00     0.127 C 
HETATM    4  C7  UNL     1      25.879   0.816  52.719  1.00  0.00     0.065 C 
HETATM    5  C9  UNL     1      26.959   1.709  52.156  1.00  0.00     0.007 C 
HETATM    6  C10 UNL     1      26.748   2.586  51.187  1.00  0.00     0.018 C 
HETATM    7  C11 UNL     1      25.553   2.941  50.426  1.00  0.00     0.118 C 
HETATM    8  N4  UNL     1      24.470   3.211  49.790  1.00  0.00    -0.243 NA
HETATM    9  C12 UNL     1      23.278   2.529  50.107  1.00  0.00     0.133 C 
HETATM   10  C13 UNL     1      22.131   2.340  49.576  1.00  0.00     0.106 C 
HETATM   11 BR1  UNL     1      22.085   3.223  47.896  1.00  0.00    -0.060 Br
ENDROOT
BRANCH   1  12
HETATM   12  C4  UNL     1      23.315   2.961  52.297  1.00  0.00     0.402 C 
BRANCH  12  13
HETATM   13  N2  UNL     1      22.172   3.847  52.121  1.00  0.00     0.159 N 
HETATM   14  H9  UNL     1      21.849   3.715  51.142  1.00  0.00     0.323 HD
BRANCH  13  15
HETATM   15  C3  UNL     1      22.560   5.245  52.362  1.00  0.00     0.593 C 
BRANCH  15  16
HETATM   16  O1  UNL     1      22.811   5.900  51.180  1.00  0.00    -0.336 OA
BRANCH  16  17
HETATM   17  C2  UNL     1      24.053   6.548  51.191  1.00  0.00     0.168 C 
HETATM   18  C1  UNL     1      23.838   7.946  50.649  1.00  0.00     0.033 C 
ENDBRANCH  16  17
ENDBRANCH  15  16
BRANCH  15  19
HETATM   19  N1  UNL     1      23.772   5.216  53.161  1.00  0.00     0.137 N 
HETATM   20  H7  UNL     1      24.091   6.203  53.273  1.00  0.00     0.318 HD
HETATM   21  H8  UNL     1      23.661   4.692  54.047  1.00  0.00     0.318 HD
ENDBRANCH  15  19
ENDBRANCH  13  15
ENDBRANCH  12  13
ENDBRANCH   1  12
BRANCH   4  22
HETATM   22  O2  UNL     1      26.301  -0.092  53.698  1.00  0.00    -0.386 OA
HETATM   23  C8  UNL     1      26.552   0.244  55.034  1.00  0.00     0.202 C 
ENDBRANCH   4  22
TORSDOF 7
ENDMDL
MODEL 8
REMARK VINA RESULT:      -5.8      3.560      5.100
REMARK  7 active torsions:
REMARK  status: ('A' for Active; 'I' for Inactive)
REMARK    1  A    between atoms: C2_2  and  O1_3 
REMARK    2  A    between atoms: O1_3  and  C3_4 
REMARK    3  A    between atoms: C3_4  and  N1_5 
REMARK    4  A    between atoms: C3_4  and  N2_6 
REMARK    5  A    between atoms: N2_6  and  C4_7 
REMARK    6  A    between atoms: C4_7  and  N3_8 
REMARK    7  A    between atoms: C7_11  and  O2_12 
ROOT
HETATM    1  N3  UNL     1      23.398   3.987  51.696  1.00  0.00    -0.339 N 
HETATM    2  C5  UNL     1      22.319   4.784  52.249  1.00  0.00     0.135 C 
HETATM    3  C6  UNL     1      20.979   4.130  52.209  1.00  0.00     0.127 C 
HETATM    4  C7  UNL     1      20.435   3.009  51.641  1.00  0.00     0.065 C 
HETATM    5  C9  UNL     1      20.486   1.759  50.795  1.00  0.00     0.007 C 
HETATM    6  C10 UNL     1      21.569   1.364  50.144  1.00  0.00     0.018 C 
HETATM    7  C11 UNL     1      22.910   1.930  50.032  1.00  0.00     0.118 C 
HETATM    8  N4  UNL     1      24.072   2.475  49.971  1.00  0.00    -0.243 NA
HETATM    9  C12 UNL     1      24.327   3.669  50.675  1.00  0.00     0.133 C 
HETATM   10  C13 UNL     1      25.210   4.594  50.671  1.00  0.00     0.106 C 
HETATM   11 BR1  UNL     1      26.484   4.215  49.316  1.00  0.00    -0.060 Br
ENDROOT
BRANCH   1  12
HETATM   12  C4  UNL     1      23.643   2.938  52.670  1.00  0.00     0.402 C 
BRANCH  12  13
HETATM   13  N2  UNL     1      25.018   2.976  53.148  1.00  0.00     0.159 N 
HETATM   14  H9  UNL     1      25.588   3.359  52.369  1.00  0.00     0.323 HD
BRANCH  13  15
HETATM   15  C3  UNL     1      25.474   1.626  53.515  1.00  0.00     0.593 C 
BRANCH  15  16
HETATM   16  O1  UNL     1      26.626   1.679  54.263  1.00  0.00    -0.336 OA
BRANCH  16  17
HETATM   17  C2  UNL     1      27.055   0.406  54.660  1.00  0.00     0.168 C 
HETATM   18  C1  UNL     1      28.567   0.448  54.754  1.00  0.00     0.033 C 
ENDBRANCH  16  17
ENDBRANCH  15  16
BRANCH  15  19
HETATM   19  N1  UNL     1      25.738   0.917  52.277  1.00  0.00     0.137 N 
HETATM   20  H7  UNL     1      25.752   1.625  51.512  1.00  0.00     0.318 HD
HETATM   21  H8  UNL     1      26.579   0.314  52.326  1.00  0.00     0.318 HD
ENDBRANCH  15  19
ENDBRANCH  13  15
ENDBRANCH  12  13
ENDBRANCH   1  12
BRANCH   4  22
HETATM   22  O2  UNL     1      19.187   3.302  52.206  1.00  0.00    -0.386 OA
HETATM   23  C8  UNL     1      17.972   3.247  51.512  1.00  0.00     0.202 C 
ENDBRANCH   4  22
TORSDOF 7
ENDMDL
MODEL 9
REMARK VINA RESULT:      -5.8      7.803      9.671
REMARK  7 active torsions:
REMARK  status: ('A' for Active; 'I' for Inactive)
REMARK    1  A    between atoms: C2_2  and  O1_3 
REMARK    2  A    between atoms: O1_3  and  C3_4 
REMARK    3  A    between atoms: C3_4  and  N1_5 
REMARK    4  A    between atoms: C3_4  and  N2_6 
REMARK    5  A    between atoms: N2_6  and  C4_7 
REMARK    6  A    between atoms: C4_7  and  N3_8 
REMARK    7  A    between atoms: C7_11  and  O2_12 
ROOT
HETATM    1  N3  UNL     1      30.691   7.912  47.724  1.00  0.00    -0.339 N 
HETATM    2  C5  UNL     1      31.599   8.198  46.629  1.00  0.00     0.135 C 
HETATM    3  C6  UNL     1      32.176   9.573  46.642  1.00  0.00     0.127 C 
HETATM    4  C7  UNL     1      31.967  10.734  47.336  1.00  0.00     0.065 C 
HETATM    5  C9  UNL     1      31.261  11.590  48.362  1.00  0.00     0.007 C 
HETATM    6  C10 UNL     1      30.238  11.165  49.086  1.00  0.00     0.018 C 
HETATM    7  C11 UNL     1      29.529   9.889  49.132  1.00  0.00     0.118 C 
HETATM    8  N4  UNL     1      28.944   8.745  49.128  1.00  0.00    -0.243 NA
HETATM    9  C12 UNL     1      29.394   7.727  48.263  1.00  0.00     0.133 C 
HETATM   10  C13 UNL     1      28.955   6.616  47.808  1.00  0.00     0.106 C 
HETATM   11 BR1  UNL     1      27.214   6.318  48.503  1.00  0.00    -0.060 Br
ENDROOT
BRANCH   1  12
HETATM   12  C4  UNL     1      31.533   7.781  48.900  1.00  0.00     0.402 C 
BRANCH  12  13
HETATM   13  N2  UNL     1      32.648   6.878  48.650  1.00  0.00     0.159 N 
HETATM   14  H9  UNL     1      32.709   6.769  47.619  1.00  0.00     0.323 HD
BRANCH  13  15
HETATM   15  C3  UNL     1      32.417   5.579  49.302  1.00  0.00     0.593 C 
BRANCH  15  16
HETATM   16  O1  UNL     1      31.770   4.709  48.457  1.00  0.00    -0.336 OA
BRANCH  16  17
HETATM   17  C2  UNL     1      32.664   3.858  47.794  1.00  0.00     0.168 C 
HETATM   18  C1  UNL     1      32.427   4.024  46.307  1.00  0.00     0.033 C 
ENDBRANCH  16  17
ENDBRANCH  15  16
BRANCH  15  19
HETATM   19  N1  UNL     1      31.582   5.831  50.462  1.00  0.00     0.137 N 
HETATM   20  H7  UNL     1      32.068   5.420  51.288  1.00  0.00     0.318 HD
HETATM   21  H8  UNL     1      31.318   6.827  50.564  1.00  0.00     0.318 HD
ENDBRANCH  15  19
ENDBRANCH  13  15
ENDBRANCH  12  13
ENDBRANCH   1  12
BRANCH   4  22
HETATM   22  O2  UNL     1      32.989  11.372  46.623  1.00  0.00    -0.386 OA
HETATM   23  C8  UNL     1      33.123  11.335  45.229  1.00  0.00     0.202 C 
ENDBRANCH   4  22
TORSDOF 7
ENDMDL
