MODEL 1
REMARK VINA RESULT:     -10.1      0.000      0.000
REMARK  2 active torsions:
REMARK  status: ('A' for Active; 'I' for Inactive)
REMARK    1  A    between atoms: C2_2  and  C3_3 
REMARK    2  A    between atoms: C6_6  and  C7_7 
ROOT
HETATM    1  C3  UNL     1      24.793   3.211  50.620  1.00  0.00     0.001 C 
HETATM    2  C4  UNL     1      24.150   2.506  49.488  1.00  0.00     0.022 C 
HETATM    3  C5  UNL     1      25.857   2.441  51.355  1.00  0.00     0.049 C 
HETATM    4  C6  UNL     1      25.477   1.330  52.219  1.00  0.00    -0.075 C 
HETATM    5  C14 UNL     1      24.390   0.649  52.647  1.00  0.00    -0.017 C 
HETATM    6  C15 UNL     1      22.985   0.931  52.244  1.00  0.00     0.061 C 
HETATM    7  C16 UNL     1      21.811   0.327  52.609  1.00  0.00     0.049 C 
HETATM    8  C17 UNL     1      20.661   0.964  51.936  1.00  0.00     0.129 C 
HETATM    9  O2  UNL     1      19.463   0.692  52.056  1.00  0.00    -0.298 OA
HETATM   10  C18 UNL     1      20.818   2.088  50.965  1.00  0.00     0.091 C 
HETATM   11  C19 UNL     1      21.083   3.383  51.632  1.00  0.00     0.050 A 
HETATM   12  C20 UNL     1      20.208   4.432  51.058  1.00  0.00     0.008 A 
HETATM   13  C21 UNL     1      20.918   5.447  50.613  1.00  0.00     0.068 A 
HETATM   14  C22 UNL     1      20.377   6.614  50.006  1.00  0.00     0.101 C 
HETATM   15  N2  UNL     1      19.930   7.563  49.531  1.00  0.00    -0.191 NA
HETATM   16  C23 UNL     1      22.279   5.053  50.899  1.00  0.00     0.054 A 
HETATM   17  C24 UNL     1      22.495   3.887  51.480  1.00  0.00    -0.020 A 
HETATM   18  C25 UNL     1      23.939   4.024  51.515  1.00  0.00     0.126 A 
HETATM   19  N3  UNL     1      23.668   5.327  50.872  1.00  0.00    -0.379 N 
HETATM   20  H29 UNL     1      24.361   6.073  50.568  1.00  0.00     0.160 HD
ENDROOT
BRANCH   1  21
HETATM   21  C2  UNL     1      25.655   4.297  49.896  1.00  0.00    -0.025 C 
HETATM   22  C1  UNL     1      26.839   4.091  49.289  1.00  0.00     0.008 C 
ENDBRANCH   1  21
BRANCH   4  23
HETATM   23  C7  UNL     1      26.802   0.936  52.760  1.00  0.00     0.046 C 
HETATM   24  C8  UNL     1      27.572   2.059  53.329  1.00  0.00     0.042 C 
HETATM   25  C9  UNL     1      28.995   1.567  53.723  1.00  0.00     0.273 C 
HETATM   26  N1  UNL     1      28.875   0.433  54.582  1.00  0.00     0.093 N 
HETATM   27  C10 UNL     1      29.396  -0.760  53.973  1.00  0.00     0.298 C 
HETATM   28  C13 UNL     1      27.550   0.188  55.050  1.00  0.00     0.305 C 
HETATM   29  C11 UNL     1      28.444  -1.415  53.035  1.00  0.00     0.198 C 
HETATM   30  O1  UNL     1      27.115  -1.357  53.369  1.00  0.00    -0.382 OA
HETATM   31  C12 UNL     1      26.695  -0.137  53.830  1.00  0.00     0.158 C 
ENDBRANCH   4  23
TORSDOF 2
ENDMDL
MODEL 2
REMARK VINA RESULT:     -10.1      1.358      1.668
REMARK  2 active torsions:
REMARK  status: ('A' for Active; 'I' for Inactive)
REMARK    1  A    between atoms: C2_2  and  C3_3 
REMARK    2  A    between atoms: C6_6  and  C7_7 
ROOT
HETATM    1  C3  UNL     1      24.877   3.937  50.110  1.00  0.00     0.001 C 
HETATM    2  C4  UNL     1      23.920   3.418  49.106  1.00  0.00     0.022 C 
HETATM    3  C5  UNL     1      25.682   2.902  50.848  1.00  0.00     0.049 C 
HETATM    4  C6  UNL     1      25.036   2.064  51.849  1.00  0.00    -0.075 C 
HETATM    5  C14 UNL     1      23.832   1.840  52.422  1.00  0.00    -0.017 C 
HETATM    6  C15 UNL     1      22.574   2.564  52.089  1.00  0.00     0.061 C 
HETATM    7  C16 UNL     1      21.308   2.437  52.597  1.00  0.00     0.049 C 
HETATM    8  C17 UNL     1      20.383   3.383  51.941  1.00  0.00     0.129 C 
HETATM    9  O2  UNL     1      19.183   3.556  52.171  1.00  0.00    -0.298 OA
HETATM   10  C18 UNL     1      20.814   4.304  50.846  1.00  0.00     0.091 C 
HETATM   11  C19 UNL     1      21.572   5.471  51.352  1.00  0.00     0.050 A 
HETATM   12  C20 UNL     1      21.054   6.712  50.731  1.00  0.00     0.008 A 
HETATM   13  C21 UNL     1      22.018   7.379  50.132  1.00  0.00     0.068 A 
HETATM   14  C22 UNL     1      21.849   8.611  49.443  1.00  0.00     0.101 C 
HETATM   15  N2  UNL     1      21.707   9.618  48.901  1.00  0.00    -0.191 NA
HETATM   16  C23 UNL     1      23.185   6.557  50.364  1.00  0.00     0.054 A 
HETATM   17  C24 UNL     1      23.048   5.437  51.050  1.00  0.00    -0.020 A 
HETATM   18  C25 UNL     1      24.448   5.063  50.970  1.00  0.00     0.126 A 
HETATM   19  N3  UNL     1      24.573   6.326  50.212  1.00  0.00    -0.379 N 
HETATM   20  H29 UNL     1      25.444   6.756  49.783  1.00  0.00     0.160 HD
ENDROOT
BRANCH   1  21
HETATM   21  C2  UNL     1      25.979   4.595  49.217  1.00  0.00    -0.025 C 
HETATM   22  C1  UNL     1      27.255   4.182  49.103  1.00  0.00     0.008 C 
ENDBRANCH   1  21
BRANCH   4  23
HETATM   23  C7  UNL     1      26.196   1.273  52.337  1.00  0.00     0.046 C 
HETATM   24  C8  UNL     1      27.301   2.099  52.860  1.00  0.00     0.042 C 
HETATM   25  C9  UNL     1      28.515   1.185  53.197  1.00  0.00     0.273 C 
HETATM   26  N1  UNL     1      28.087   0.142  54.072  1.00  0.00     0.093 N 
HETATM   27  C10 UNL     1      28.182  -1.151  53.453  1.00  0.00     0.298 C 
HETATM   28  C13 UNL     1      26.773   0.321  54.600  1.00  0.00     0.305 C 
HETATM   29  C11 UNL     1      27.033  -1.474  52.564  1.00  0.00     0.198 C 
HETATM   30  O1  UNL     1      25.804  -1.004  52.955  1.00  0.00    -0.382 OA
HETATM   31  C12 UNL     1      25.807   0.283  53.421  1.00  0.00     0.158 C 
ENDBRANCH   4  23
TORSDOF 2
ENDMDL
MODEL 3
REMARK VINA RESULT:      -9.8      1.921      2.590
REMARK  2 active torsions:
REMARK  status: ('A' for Active; 'I' for Inactive)
REMARK    1  A    between atoms: C2_2  and  C3_3 
REMARK    2  A    between atoms: C6_6  and  C7_7 
ROOT
HETATM    1  C3  UNL     1      22.422   1.860  50.602  1.00  0.00     0.001 C 
HETATM    2  C4  UNL     1      21.838   0.758  49.803  1.00  0.00     0.022 C 
HETATM    3  C5  UNL     1      23.705   1.542  51.320  1.00  0.00     0.049 C 
HETATM    4  C6  UNL     1      23.683   0.666  52.484  1.00  0.00    -0.075 C 
HETATM    5  C14 UNL     1      22.832  -0.062  53.242  1.00  0.00    -0.017 C 
HETATM    6  C15 UNL     1      21.365  -0.176  53.018  1.00  0.00     0.061 C 
HETATM    7  C16 UNL     1      20.406  -0.867  53.710  1.00  0.00     0.049 C 
HETATM    8  C17 UNL     1      19.075  -0.674  53.099  1.00  0.00     0.129 C 
HETATM    9  O2  UNL     1      17.991  -1.125  53.478  1.00  0.00    -0.298 OA
HETATM   10  C18 UNL     1      18.867   0.142  51.865  1.00  0.00     0.091 C 
HETATM   11  C19 UNL     1      18.900   1.598  52.135  1.00  0.00     0.050 A 
HETATM   12  C20 UNL     1      17.754   2.258  51.469  1.00  0.00     0.008 A 
HETATM   13  C21 UNL     1      18.162   3.225  50.674  1.00  0.00     0.068 A 
HETATM   14  C22 UNL     1      17.307   4.050  49.892  1.00  0.00     0.101 C 
HETATM   15  N2  UNL     1      16.607   4.726  49.275  1.00  0.00    -0.191 NA
HETATM   16  C23 UNL     1      19.599   3.193  50.821  1.00  0.00     0.054 A 
HETATM   17  C24 UNL     1      20.136   2.299  51.632  1.00  0.00    -0.020 A 
HETATM   18  C25 UNL     1      21.506   2.713  51.393  1.00  0.00     0.126 A 
HETATM   19  N3  UNL     1      20.878   3.707  50.498  1.00  0.00    -0.379 N 
HETATM   20  H29 UNL     1      21.347   4.456  49.908  1.00  0.00     0.160 HD
ENDROOT
BRANCH   1  21
HETATM   21  C2  UNL     1      22.931   2.843  49.498  1.00  0.00    -0.025 C 
HETATM   22  C1  UNL     1      24.200   3.265  49.338  1.00  0.00     0.008 C 
ENDBRANCH   1  21
BRANCH   4  23
HETATM   23  C7  UNL     1      25.114   0.699  52.881  1.00  0.00     0.046 C 
HETATM   24  C8  UNL     1      25.555   2.002  53.414  1.00  0.00     0.042 C 
HETATM   25  C9  UNL     1      27.093   1.972  53.651  1.00  0.00     0.273 C 
HETATM   26  N1  UNL     1      27.416   0.853  54.476  1.00  0.00     0.093 N 
HETATM   27  C10 UNL     1      28.213  -0.118  53.777  1.00  0.00     0.298 C 
HETATM   28  C13 UNL     1      26.285   0.207  55.060  1.00  0.00     0.305 C 
HETATM   29  C11 UNL     1      27.418  -1.031  52.911  1.00  0.00     0.198 C 
HETATM   30  O1  UNL     1      26.176  -1.388  53.373  1.00  0.00    -0.382 OA
HETATM   31  C12 UNL     1      25.452  -0.360  53.917  1.00  0.00     0.158 C 
ENDBRANCH   4  23
TORSDOF 2
ENDMDL
MODEL 4
REMARK VINA RESULT:      -9.6      2.379      3.796
REMARK  2 active torsions:
REMARK  status: ('A' for Active; 'I' for Inactive)
REMARK    1  A    between atoms: C2_2  and  C3_3 
REMARK    2  A    between atoms: C6_6  and  C7_7 
ROOT
HETATM    1  C3  UNL     1      23.632   1.838  52.223  1.00  0.00     0.001 C 
HETATM    2  C4  UNL     1      23.241   3.183  52.707  1.00  0.00     0.022 C 
HETATM    3  C5  UNL     1      25.014   1.381  52.600  1.00  0.00     0.049 C 
HETATM    4  C6  UNL     1      26.175   1.985  51.958  1.00  0.00    -0.075 C 
HETATM    5  C14 UNL     1      26.506   2.926  51.046  1.00  0.00    -0.017 C 
HETATM    6  C15 UNL     1      25.539   3.777  50.299  1.00  0.00     0.061 C 
HETATM    7  C16 UNL     1      25.746   4.748  49.355  1.00  0.00     0.049 C 
HETATM    8  C17 UNL     1      24.462   5.321  48.901  1.00  0.00     0.129 C 
HETATM    9  O2  UNL     1      24.278   6.190  48.045  1.00  0.00    -0.298 OA
HETATM   10  C18 UNL     1      23.146   4.891  49.461  1.00  0.00     0.091 C 
HETATM   11  C19 UNL     1      22.698   3.586  48.923  1.00  0.00     0.050 A 
HETATM   12  C20 UNL     1      21.279   3.675  48.509  1.00  0.00     0.008 A 
HETATM   13  C21 UNL     1      20.554   2.752  49.107  1.00  0.00     0.068 A 
HETATM   14  C22 UNL     1      19.155   2.571  48.923  1.00  0.00     0.101 C 
HETATM   15  N2  UNL     1      18.026   2.419  48.756  1.00  0.00    -0.191 NA
HETATM   16  C23 UNL     1      21.517   2.052  49.927  1.00  0.00     0.054 A 
HETATM   17  C24 UNL     1      22.778   2.445  49.903  1.00  0.00    -0.020 A 
HETATM   18  C25 UNL     1      23.242   1.447  50.850  1.00  0.00     0.126 A 
HETATM   19  N3  UNL     1      21.826   1.025  50.850  1.00  0.00    -0.379 N 
HETATM   20  H29 UNL     1      21.372   0.231  51.392  1.00  0.00     0.160 HD
ENDROOT
BRANCH   1  21
HETATM   21  C2  UNL     1      22.751   0.894  53.106  1.00  0.00    -0.025 C 
HETATM   22  C1  UNL     1      23.182  -0.192  53.775  1.00  0.00     0.008 C 
ENDBRANCH   1  21
BRANCH   4  23
HETATM   23  C7  UNL     1      27.273   1.198  52.576  1.00  0.00     0.046 C 
HETATM   24  C8  UNL     1      28.260   2.021  53.301  1.00  0.00     0.042 C 
HETATM   25  C9  UNL     1      29.439   1.122  53.773  1.00  0.00     0.273 C 
HETATM   26  N1  UNL     1      28.918   0.023  54.520  1.00  0.00     0.093 N 
HETATM   27  C10 UNL     1      29.147  -1.233  53.860  1.00  0.00     0.298 C 
HETATM   28  C13 UNL     1      27.535   0.140  54.851  1.00  0.00     0.305 C 
HETATM   29  C11 UNL     1      28.155  -1.535  52.792  1.00  0.00     0.198 C 
HETATM   30  O1  UNL     1      26.867  -1.118  53.015  1.00  0.00    -0.382 OA
HETATM   31  C12 UNL     1      26.758   0.142  53.539  1.00  0.00     0.158 C 
ENDBRANCH   4  23
TORSDOF 2
ENDMDL
MODEL 5
REMARK VINA RESULT:      -9.4      2.737      4.419
REMARK  2 active torsions:
REMARK  status: ('A' for Active; 'I' for Inactive)
REMARK    1  A    between atoms: C2_2  and  C3_3 
REMARK    2  A    between atoms: C6_6  and  C7_7 
ROOT
HETATM    1  C3  UNL     1      22.133   0.630  53.062  1.00  0.00     0.001 C 
HETATM    2  C4  UNL     1      21.238   1.438  53.923  1.00  0.00     0.022 C 
HETATM    3  C5  UNL     1      23.598   0.692  53.397  1.00  0.00     0.049 C 
HETATM    4  C6  UNL     1      24.355   1.902  53.104  1.00  0.00    -0.075 C 
HETATM    5  C14 UNL     1      24.204   3.143  52.588  1.00  0.00    -0.017 C 
HETATM    6  C15 UNL     1      22.927   3.712  52.076  1.00  0.00     0.061 C 
HETATM    7  C16 UNL     1      22.649   4.936  51.529  1.00  0.00     0.049 C 
HETATM    8  C17 UNL     1      21.220   5.039  51.170  1.00  0.00     0.129 C 
HETATM    9  O2  UNL     1      20.636   5.985  50.634  1.00  0.00    -0.298 OA
HETATM   10  C18 UNL     1      20.244   3.939  51.429  1.00  0.00     0.091 C 
HETATM   11  C19 UNL     1      20.360   2.833  50.450  1.00  0.00     0.050 A 
HETATM   12  C20 UNL     1      19.016   2.457  49.956  1.00  0.00     0.008 A 
HETATM   13  C21 UNL     1      18.785   1.174  50.144  1.00  0.00     0.068 A 
HETATM   14  C22 UNL     1      17.587   0.501  49.779  1.00  0.00     0.101 C 
HETATM   15  N2  UNL     1      16.620  -0.041  49.464  1.00  0.00    -0.191 NA
HETATM   16  C23 UNL     1      19.999   0.707  50.775  1.00  0.00     0.054 A 
HETATM   17  C24 UNL     1      20.971   1.571  51.002  1.00  0.00    -0.020 A 
HETATM   18  C25 UNL     1      21.868   0.603  51.606  1.00  0.00     0.126 A 
HETATM   19  N3  UNL     1      20.766  -0.344  51.333  1.00  0.00    -0.379 N 
HETATM   20  H29 UNL     1      20.723  -1.386  51.537  1.00  0.00     0.160 HD
ENDROOT
BRANCH   1  21
HETATM   21  C2  UNL     1      21.787  -0.832  53.496  1.00  0.00    -0.025 C 
HETATM   22  C1  UNL     1      22.111  -1.406  54.670  1.00  0.00     0.008 C 
ENDBRANCH   1  21
BRANCH   4  23
HETATM   23  C7  UNL     1      25.716   1.487  53.529  1.00  0.00     0.046 C 
HETATM   24  C8  UNL     1      25.735   0.258  54.346  1.00  0.00     0.042 C 
HETATM   25  C9  UNL     1      27.181   0.002  54.863  1.00  0.00     0.273 C 
HETATM   26  N1  UNL     1      28.078  -0.009  53.753  1.00  0.00     0.093 N 
HETATM   27  C10 UNL     1      29.008   1.087  53.803  1.00  0.00     0.298 C 
HETATM   28  C13 UNL     1      27.437  -0.029  52.479  1.00  0.00     0.305 C 
HETATM   29  C11 UNL     1      28.448   2.368  53.293  1.00  0.00     0.198 C 
HETATM   30  O1  UNL     1      27.571   2.279  52.242  1.00  0.00    -0.382 OA
HETATM   31  C12 UNL     1      26.650   1.271  52.351  1.00  0.00     0.158 C 
ENDBRANCH   4  23
TORSDOF 2
ENDMDL
MODEL 6
REMARK VINA RESULT:      -9.3      3.076      4.765
REMARK  2 active torsions:
REMARK  status: ('A' for Active; 'I' for Inactive)
REMARK    1  A    between atoms: C2_2  and  C3_3 
REMARK    2  A    between atoms: C6_6  and  C7_7 
ROOT
HETATM    1  C3  UNL     1      21.385   0.930  53.101  1.00  0.00     0.001 C 
HETATM    2  C4  UNL     1      20.770   2.272  53.230  1.00  0.00     0.022 C 
HETATM    3  C5  UNL     1      22.886   0.885  53.185  1.00  0.00     0.049 C 
HETATM    4  C6  UNL     1      23.687   1.394  52.080  1.00  0.00    -0.075 C 
HETATM    5  C14 UNL     1      23.562   1.971  50.863  1.00  0.00    -0.017 C 
HETATM    6  C15 UNL     1      22.272   2.309  50.200  1.00  0.00     0.061 C 
HETATM    7  C16 UNL     1      22.015   2.880  48.982  1.00  0.00     0.049 C 
HETATM    8  C17 UNL     1      20.561   3.020  48.764  1.00  0.00     0.129 C 
HETATM    9  O2  UNL     1      19.981   3.465  47.771  1.00  0.00    -0.298 OA
HETATM   10  C18 UNL     1      19.551   2.614  49.786  1.00  0.00     0.091 C 
HETATM   11  C19 UNL     1      19.353   1.147  49.838  1.00  0.00     0.050 A 
HETATM   12  C20 UNL     1      17.905   0.835  49.848  1.00  0.00     0.008 A 
HETATM   13  C21 UNL     1      17.588   0.093  50.887  1.00  0.00     0.068 A 
HETATM   14  C22 UNL     1      16.279  -0.377  51.183  1.00  0.00     0.101 C 
HETATM   15  N2  UNL     1      15.218  -0.767  51.406  1.00  0.00    -0.191 NA
HETATM   16  C23 UNL     1      18.851  -0.081  51.569  1.00  0.00     0.054 A 
HETATM   17  C24 UNL     1      19.932   0.481  51.060  1.00  0.00    -0.020 A 
HETATM   18  C25 UNL     1      20.829  -0.001  52.094  1.00  0.00     0.126 A 
HETATM   19  N3  UNL     1      19.604  -0.626  52.637  1.00  0.00    -0.379 N 
HETATM   20  H29 UNL     1      19.497  -1.226  53.508  1.00  0.00     0.160 HD
ENDROOT
BRANCH   1  21
HETATM   21  C2  UNL     1      20.987   0.247  54.450  1.00  0.00    -0.025 C 
HETATM   22  C1  UNL     1      21.713  -0.671  55.116  1.00  0.00     0.008 C 
ENDBRANCH   1  21
BRANCH   4  23
HETATM   23  C7  UNL     1      25.056   1.089  52.567  1.00  0.00     0.046 C 
HETATM   24  C8  UNL     1      25.678   2.193  53.323  1.00  0.00     0.042 C 
HETATM   25  C9  UNL     1      27.156   1.829  53.651  1.00  0.00     0.273 C 
HETATM   26  N1  UNL     1      27.190   0.564  54.310  1.00  0.00     0.093 N 
HETATM   27  C10 UNL     1      27.856  -0.436  53.520  1.00  0.00     0.298 C 
HETATM   28  C13 UNL     1      25.911   0.076  54.713  1.00  0.00     0.305 C 
HETATM   29  C11 UNL     1      26.990  -1.044  52.474  1.00  0.00     0.198 C 
HETATM   30  O1  UNL     1      25.667  -1.213  52.795  1.00  0.00    -0.382 OA
HETATM   31  C12 UNL     1      25.097  -0.150  53.444  1.00  0.00     0.158 C 
ENDBRANCH   4  23
TORSDOF 2
ENDMDL
MODEL 7
REMARK VINA RESULT:      -9.2      3.059      4.494
REMARK  2 active torsions:
REMARK  status: ('A' for Active; 'I' for Inactive)
REMARK    1  A    between atoms: C2_2  and  C3_3 
REMARK    2  A    between atoms: C6_6  and  C7_7 
ROOT
HETATM    1  C3  UNL     1      22.117   2.130  50.844  1.00  0.00     0.001 C 
HETATM    2  C4  UNL     1      21.525   3.420  51.266  1.00  0.00     0.022 C 
HETATM    3  C5  UNL     1      23.264   1.628  51.679  1.00  0.00     0.049 C 
HETATM    4  C6  UNL     1      24.560   2.288  51.597  1.00  0.00    -0.075 C 
HETATM    5  C14 UNL     1      25.185   3.315  50.978  1.00  0.00    -0.017 C 
HETATM    6  C15 UNL     1      24.551   4.244  50.002  1.00  0.00     0.061 C 
HETATM    7  C16 UNL     1      25.071   5.305  49.309  1.00  0.00     0.049 C 
HETATM    8  C17 UNL     1      24.042   5.929  48.453  1.00  0.00     0.129 C 
HETATM    9  O2  UNL     1      24.171   6.882  47.680  1.00  0.00    -0.298 OA
HETATM   10  C18 UNL     1      22.627   5.452  48.417  1.00  0.00     0.091 C 
HETATM   11  C19 UNL     1      22.466   4.211  47.624  1.00  0.00     0.050 A 
HETATM   12  C20 UNL     1      21.312   4.350  46.706  1.00  0.00     0.008 A 
HETATM   13  C21 UNL     1      20.445   3.375  46.886  1.00  0.00     0.068 A 
HETATM   14  C22 UNL     1      19.232   3.222  46.159  1.00  0.00     0.101 C 
HETATM   15  N2  UNL     1      18.260   3.094  45.555  1.00  0.00    -0.191 NA
HETATM   16  C23 UNL     1      21.042   2.589  47.942  1.00  0.00     0.054 A 
HETATM   17  C24 UNL     1      22.201   2.975  48.445  1.00  0.00    -0.020 A 
HETATM   18  C25 UNL     1      22.300   1.883  49.396  1.00  0.00     0.126 A 
HETATM   19  N3  UNL     1      21.008   1.471  48.809  1.00  0.00    -0.379 N 
HETATM   20  H29 UNL     1      20.407   0.629  49.054  1.00  0.00     0.160 HD
ENDROOT
BRANCH   1  21
HETATM   21  C2  UNL     1      20.998   1.105  51.223  1.00  0.00    -0.025 C 
HETATM   22  C1  UNL     1      21.019   0.264  52.275  1.00  0.00     0.008 C 
ENDBRANCH   1  21
BRANCH   4  23
HETATM   23  C7  UNL     1      25.362   1.436  52.511  1.00  0.00     0.046 C 
HETATM   24  C8  UNL     1      24.637   0.252  53.011  1.00  0.00     0.042 C 
HETATM   25  C9  UNL     1      25.509  -0.480  54.072  1.00  0.00     0.273 C 
HETATM   26  N1  UNL     1      26.791  -0.762  53.511  1.00  0.00     0.093 N 
HETATM   27  C10 UNL     1      27.839  -0.037  54.175  1.00  0.00     0.298 C 
HETATM   28  C13 UNL     1      26.877  -0.539  52.104  1.00  0.00     0.305 C 
HETATM   29  C11 UNL     1      27.982   1.369  53.707  1.00  0.00     0.198 C 
HETATM   30  O1  UNL     1      27.745   1.599  52.375  1.00  0.00    -0.382 OA
HETATM   31  C12 UNL     1      26.650   0.950  51.870  1.00  0.00     0.158 C 
ENDBRANCH   4  23
TORSDOF 2
ENDMDL
MODEL 8
REMARK VINA RESULT:      -9.1      2.911      7.585
REMARK  2 active torsions:
REMARK  status: ('A' for Active; 'I' for Inactive)
REMARK    1  A    between atoms: C2_2  and  C3_3 
REMARK    2  A    between atoms: C6_6  and  C7_7 
ROOT
HETATM    1  C3  UNL     1      24.185   4.401  50.380  1.00  0.00     0.001 C 
HETATM    2  C4  UNL     1      23.533   4.656  51.685  1.00  0.00     0.022 C 
HETATM    3  C5  UNL     1      23.303   4.531  49.168  1.00  0.00     0.049 C 
HETATM    4  C6  UNL     1      22.293   3.516  48.898  1.00  0.00    -0.075 C 
HETATM    5  C14 UNL     1      21.790   2.367  49.403  1.00  0.00    -0.017 C 
HETATM    6  C15 UNL     1      22.251   1.702  50.653  1.00  0.00     0.061 C 
HETATM    7  C16 UNL     1      21.834   0.546  51.258  1.00  0.00     0.049 C 
HETATM    8  C17 UNL     1      22.599   0.295  52.496  1.00  0.00     0.129 C 
HETATM    9  O2  UNL     1      22.504  -0.662  53.268  1.00  0.00    -0.298 OA
HETATM   10  C18 UNL     1      23.649   1.232  52.997  1.00  0.00     0.091 C 
HETATM   11  C19 UNL     1      24.920   1.115  52.246  1.00  0.00     0.050 A 
HETATM   12  C20 UNL     1      26.057   1.041  53.192  1.00  0.00     0.008 A 
HETATM   13  C21 UNL     1      26.943   1.981  52.939  1.00  0.00     0.068 A 
HETATM   14  C22 UNL     1      28.150   2.178  53.667  1.00  0.00     0.101 C 
HETATM   15  N2  UNL     1      29.133   2.321  54.251  1.00  0.00    -0.191 NA
HETATM   16  C23 UNL     1      26.373   2.682  51.811  1.00  0.00     0.054 A 
HETATM   17  C24 UNL     1      25.213   2.275  51.329  1.00  0.00    -0.020 A 
HETATM   18  C25 UNL     1      25.147   3.280  50.284  1.00  0.00     0.126 A 
HETATM   19  N3  UNL     1      26.447   3.709  50.839  1.00  0.00    -0.379 N 
HETATM   20  H29 UNL     1      27.075   4.504  50.517  1.00  0.00     0.160 HD
ENDROOT
BRANCH   1  21
HETATM   21  C2  UNL     1      25.109   5.653  50.215  1.00  0.00    -0.025 C 
HETATM   22  C1  UNL     1      24.766   6.929  50.475  1.00  0.00     0.008 C 
ENDBRANCH   1  21
BRANCH   4  23
HETATM   23  C7  UNL     1      21.738   4.013  47.614  1.00  0.00     0.046 C 
HETATM   24  C8  UNL     1      22.108   3.189  46.447  1.00  0.00     0.042 C 
HETATM   25  C9  UNL     1      21.607   3.880  45.145  1.00  0.00     0.273 C 
HETATM   26  N1  UNL     1      20.211   4.147  45.265  1.00  0.00     0.093 N 
HETATM   27  C10 UNL     1      19.933   5.557  45.284  1.00  0.00     0.298 C 
HETATM   28  C13 UNL     1      19.588   3.525  46.389  1.00  0.00     0.305 C 
HETATM   29  C11 UNL     1      20.132   6.187  46.618  1.00  0.00     0.198 C 
HETATM   30  O1  UNL     1      19.808   5.423  47.711  1.00  0.00    -0.382 OA
HETATM   31  C12 UNL     1      20.223   4.120  47.640  1.00  0.00     0.158 C 
ENDBRANCH   4  23
TORSDOF 2
ENDMDL
MODEL 9
REMARK VINA RESULT:      -8.8      2.589      7.330
REMARK  2 active torsions:
REMARK  status: ('A' for Active; 'I' for Inactive)
REMARK    1  A    between atoms: C2_2  and  C3_3 
REMARK    2  A    between atoms: C6_6  and  C7_7 
ROOT
HETATM    1  C3  UNL     1      23.821   2.759  51.394  1.00  0.00     0.001 C 
HETATM    2  C4  UNL     1      23.359   3.230  52.721  1.00  0.00     0.022 C 
HETATM    3  C5  UNL     1      22.857   2.954  50.255  1.00  0.00     0.049 C 
HETATM    4  C6  UNL     1      21.663   2.124  50.170  1.00  0.00    -0.075 C 
HETATM    5  C14 UNL     1      21.018   1.130  50.822  1.00  0.00    -0.017 C 
HETATM    6  C15 UNL     1      21.479   0.491  52.085  1.00  0.00     0.061 C 
HETATM    7  C16 UNL     1      20.928  -0.518  52.830  1.00  0.00     0.049 C 
HETATM    8  C17 UNL     1      21.758  -0.808  54.017  1.00  0.00     0.129 C 
HETATM    9  O2  UNL     1      21.574  -1.669  54.881  1.00  0.00    -0.298 OA
HETATM   10  C18 UNL     1      23.002  -0.045  54.336  1.00  0.00     0.091 C 
HETATM   11  C19 UNL     1      24.150  -0.452  53.493  1.00  0.00     0.050 A 
HETATM   12  C20 UNL     1      25.346  -0.660  54.341  1.00  0.00     0.008 A 
HETATM   13  C21 UNL     1      26.354   0.078  53.927  1.00  0.00     0.068 A 
HETATM   14  C22 UNL     1      27.643   0.106  54.527  1.00  0.00     0.101 C 
HETATM   15  N2  UNL     1      28.690   0.110  55.008  1.00  0.00    -0.191 NA
HETATM   16  C23 UNL     1      25.805   0.783  52.790  1.00  0.00     0.054 A 
HETATM   17  C24 UNL     1      24.549   0.560  52.450  1.00  0.00    -0.020 A 
HETATM   18  C25 UNL     1      24.555   1.475  51.323  1.00  0.00     0.126 A 
HETATM   19  N3  UNL     1      25.960   1.699  51.723  1.00  0.00    -0.379 N 
HETATM   20  H29 UNL     1      26.682   2.338  51.275  1.00  0.00     0.160 HD
ENDROOT
BRANCH   1  21
HETATM   21  C2  UNL     1      24.928   3.802  51.034  1.00  0.00    -0.025 C 
HETATM   22  C1  UNL     1      24.964   4.567  49.926  1.00  0.00     0.008 C 
ENDBRANCH   1  21
BRANCH   4  23
HETATM   23  C7  UNL     1      21.077   2.614  48.896  1.00  0.00     0.046 C 
HETATM   24  C8  UNL     1      19.603   2.686  48.908  1.00  0.00     0.042 C 
HETATM   25  C9  UNL     1      19.091   3.060  47.486  1.00  0.00     0.273 C 
HETATM   26  N1  UNL     1      19.741   4.255  47.055  1.00  0.00     0.093 N 
HETATM   27  C10 UNL     1      20.594   4.024  45.921  1.00  0.00     0.298 C 
HETATM   28  C13 UNL     1      20.480   4.923  48.076  1.00  0.00     0.305 C 
HETATM   29  C11 UNL     1      21.927   3.470  46.281  1.00  0.00     0.198 C 
HETATM   30  O1  UNL     1      22.478   3.913  47.457  1.00  0.00    -0.382 OA
HETATM   31  C12 UNL     1      21.602   3.985  48.506  1.00  0.00     0.158 C 
ENDBRANCH   4  23
TORSDOF 2
ENDMDL
