MODEL 1
REMARK VINA RESULT:     -10.4      0.000      0.000
REMARK  2 active torsions:
REMARK  status: ('A' for Active; 'I' for Inactive)
REMARK    1  A    between atoms: C7_7  and  N1_8 
REMARK    2  A    between atoms: N1_8  and  C8_9 
ROOT
HETATM    1  C1  UNL     1      29.811   0.072  53.651  1.00  0.00     0.018 C 
HETATM    2  C2  UNL     1      28.593   0.143  53.531  1.00  0.00    -0.078 C 
HETATM    3  C3  UNL     1      27.178   0.207  53.384  1.00  0.00     0.019 A 
HETATM    4  C4  UNL     1      26.361  -0.533  54.197  1.00  0.00     0.021 A 
HETATM    5  C5  UNL     1      24.995  -0.463  54.041  1.00  0.00     0.004 A 
HETATM    6  C6  UNL     1      24.477   0.357  53.064  1.00  0.00     0.029 A 
HETATM    7  C7  UNL     1      25.220   1.136  52.204  1.00  0.00     0.035 A 
HETATM    8  C24 UNL     1      26.583   0.995  52.441  1.00  0.00     0.050 A 
ENDROOT
BRANCH   7   9
HETATM    9  N1  UNL     1      24.658   1.955  51.191  1.00  0.00    -0.340 N 
HETATM   10  H5  UNL     1      24.712   1.439  50.306  1.00  0.00     0.167 HD
BRANCH   9  11
HETATM   11  C8  UNL     1      24.122   3.246  51.361  1.00  0.00     0.143 A 
HETATM   12  N2  UNL     1      23.052   3.444  52.117  1.00  0.00    -0.223 NA
HETATM   13  C9  UNL     1      22.471   4.629  52.333  1.00  0.00     0.236 A 
HETATM   14  N3  UNL     1      23.028   5.718  51.725  1.00  0.00    -0.241 NA
HETATM   15  C10 UNL     1      24.125   5.527  50.947  1.00  0.00     0.074 A 
HETATM   16  C11 UNL     1      24.724   4.306  50.727  1.00  0.00     0.054 A 
HETATM   17  C23 UNL     1      24.609   6.601  50.355  1.00  0.00     0.059 A 
HETATM   18  C12 UNL     1      25.802   4.239  49.965  1.00  0.00     0.106 A 
HETATM   19  N4  UNL     1      26.383   5.377  49.335  1.00  0.00    -0.360 N 
HETATM   20  C13 UNL     1      27.642   5.108  48.582  1.00  0.00     0.127 C 
HETATM   21  C22 UNL     1      25.778   6.710  49.454  1.00  0.00     0.249 A 
HETATM   22  C14 UNL     1      28.259   6.416  48.471  1.00  0.00     0.039 C 
HETATM   23  C15 UNL     1      29.575   6.746  47.873  1.00  0.00     0.119 C 
HETATM   24  N5  UNL     1      29.624   8.187  48.054  1.00  0.00    -0.398 N 
HETATM   25  C16 UNL     1      29.341   8.977  46.928  1.00  0.00     0.144 C 
HETATM   26  C19 UNL     1      29.258   8.765  49.278  1.00  0.00     0.175 C 
HETATM   27  C17 UNL     1      30.045  10.319  47.128  1.00  0.00     0.187 C 
HETATM   28  O1  UNL     1      29.944  10.805  48.407  1.00  0.00    -0.387 OA
HETATM   29  C18 UNL     1      30.299   9.921  49.411  1.00  0.00     0.200 C 
HETATM   30  C20 UNL     1      27.966   9.494  49.388  1.00  0.00     0.174 C 
HETATM   31  O2  UNL     1      27.912  10.739  49.396  1.00  0.00    -0.293 OA
HETATM   32  C21 UNL     1      26.505   9.032  49.508  1.00  0.00     0.251 C 
HETATM   33  O3  UNL     1      26.544   7.736  49.461  1.00  0.00    -0.356 OA
ENDBRANCH   9  11
ENDBRANCH   7   9
TORSDOF 2
ENDMDL
MODEL 2
REMARK VINA RESULT:     -10.0      5.005      8.134
REMARK  2 active torsions:
REMARK  status: ('A' for Active; 'I' for Inactive)
REMARK    1  A    between atoms: C7_7  and  N1_8 
REMARK    2  A    between atoms: N1_8  and  C8_9 
ROOT
HETATM    1  C1  UNL     1      17.673  -1.952  53.097  1.00  0.00     0.018 C 
HETATM    2  C2  UNL     1      17.834  -0.955  52.403  1.00  0.00    -0.078 C 
HETATM    3  C3  UNL     1      18.034   0.194  51.585  1.00  0.00     0.019 A 
HETATM    4  C4  UNL     1      17.590   0.211  50.290  1.00  0.00     0.021 A 
HETATM    5  C5  UNL     1      17.793   1.327  49.510  1.00  0.00     0.004 A 
HETATM    6  C6  UNL     1      18.444   2.411  50.057  1.00  0.00     0.029 A 
HETATM    7  C7  UNL     1      18.924   2.483  51.345  1.00  0.00     0.035 A 
HETATM    8  C24 UNL     1      18.670   1.310  52.048  1.00  0.00     0.050 A 
ENDROOT
BRANCH   7   9
HETATM    9  N1  UNL     1      19.612   3.607  51.873  1.00  0.00    -0.340 N 
HETATM   10  H5  UNL     1      19.114   3.908  52.718  1.00  0.00     0.167 HD
BRANCH   9  11
HETATM   11  C8  UNL     1      20.767   4.208  51.339  1.00  0.00     0.143 A 
HETATM   12  N2  UNL     1      20.708   5.398  50.757  1.00  0.00    -0.223 NA
HETATM   13  C9  UNL     1      21.747   6.044  50.219  1.00  0.00     0.236 A 
HETATM   14  N3  UNL     1      22.963   5.425  50.274  1.00  0.00    -0.241 NA
HETATM   15  C10 UNL     1      23.036   4.205  50.867  1.00  0.00     0.074 A 
HETATM   16  C11 UNL     1      21.965   3.541  51.423  1.00  0.00     0.054 A 
HETATM   17  C23 UNL     1      24.224   3.633  50.869  1.00  0.00     0.059 A 
HETATM   18  C12 UNL     1      22.154   2.363  51.992  1.00  0.00     0.106 A 
HETATM   19  N4  UNL     1      23.426   1.723  52.053  1.00  0.00    -0.360 N 
HETATM   20  C13 UNL     1      23.449   0.436  52.807  1.00  0.00     0.127 C 
HETATM   21  C22 UNL     1      24.613   2.318  51.428  1.00  0.00     0.249 A 
HETATM   22  C14 UNL     1      24.852   0.256  53.130  1.00  0.00     0.039 C 
HETATM   23  C15 UNL     1      25.460  -0.828  53.938  1.00  0.00     0.119 C 
HETATM   24  N5  UNL     1      26.866  -0.467  53.896  1.00  0.00    -0.398 N 
HETATM   25  C16 UNL     1      27.680  -1.190  53.008  1.00  0.00     0.144 C 
HETATM   26  C19 UNL     1      27.270   0.859  54.107  1.00  0.00     0.175 C 
HETATM   27  C17 UNL     1      29.107  -1.135  53.555  1.00  0.00     0.187 C 
HETATM   28  O1  UNL     1      29.463   0.101  54.033  1.00  0.00    -0.387 OA
HETATM   29  C18 UNL     1      28.580   0.668  54.934  1.00  0.00     0.200 C 
HETATM   30  C20 UNL     1      27.742   1.674  52.957  1.00  0.00     0.174 C 
HETATM   31  O2  UNL     1      28.953   1.902  52.766  1.00  0.00    -0.293 OA
HETATM   32  C21 UNL     1      27.016   2.390  51.806  1.00  0.00     0.251 C 
HETATM   33  O3  UNL     1      25.757   2.127  51.971  1.00  0.00    -0.356 OA
ENDBRANCH   9  11
ENDBRANCH   7   9
TORSDOF 2
ENDMDL
MODEL 3
REMARK VINA RESULT:      -9.3      2.264      3.398
REMARK  2 active torsions:
REMARK  status: ('A' for Active; 'I' for Inactive)
REMARK    1  A    between atoms: C7_7  and  N1_8 
REMARK    2  A    between atoms: N1_8  and  C8_9 
ROOT
HETATM    1  C1  UNL     1      27.098  -0.132  54.281  1.00  0.00     0.018 C 
HETATM    2  C2  UNL     1      25.885  -0.280  54.190  1.00  0.00    -0.078 C 
HETATM    3  C3  UNL     1      24.477  -0.472  54.083  1.00  0.00     0.019 A 
HETATM    4  C4  UNL     1      23.787  -1.115  55.074  1.00  0.00     0.021 A 
HETATM    5  C5  UNL     1      22.427  -1.296  54.955  1.00  0.00     0.004 A 
HETATM    6  C6  UNL     1      21.788  -0.821  53.832  1.00  0.00     0.029 A 
HETATM    7  C7  UNL     1      22.400  -0.164  52.787  1.00  0.00     0.035 A 
HETATM    8  C24 UNL     1      23.768  -0.032  53.002  1.00  0.00     0.050 A 
ENDROOT
BRANCH   7   9
HETATM    9  N1  UNL     1      21.717   0.295  51.631  1.00  0.00    -0.340 N 
HETATM   10  H5  UNL     1      21.807  -0.427  50.908  1.00  0.00     0.167 HD
BRANCH   9  11
HETATM   11  C8  UNL     1      21.039   1.521  51.491  1.00  0.00     0.143 A 
HETATM   12  N2  UNL     1      19.801   1.668  51.939  1.00  0.00    -0.223 NA
HETATM   13  C9  UNL     1      19.077   2.789  51.848  1.00  0.00     0.236 A 
HETATM   14  N3  UNL     1      19.665   3.864  51.244  1.00  0.00    -0.241 NA
HETATM   15  C10 UNL     1      20.934   3.725  50.781  1.00  0.00     0.074 A 
HETATM   16  C11 UNL     1      21.679   2.570  50.877  1.00  0.00     0.054 A 
HETATM   17  C23 UNL     1      21.449   4.779  50.177  1.00  0.00     0.059 A 
HETATM   18  C12 UNL     1      22.915   2.552  50.407  1.00  0.00     0.106 A 
HETATM   19  N4  UNL     1      23.527   3.677  49.782  1.00  0.00    -0.360 N 
HETATM   20  C13 UNL     1      24.952   3.484  49.391  1.00  0.00     0.127 C 
HETATM   21  C22 UNL     1      22.791   4.930  49.571  1.00  0.00     0.249 A 
HETATM   22  C14 UNL     1      25.454   4.837  49.249  1.00  0.00     0.039 C 
HETATM   23  C15 UNL     1      26.842   5.259  48.939  1.00  0.00     0.119 C 
HETATM   24  N5  UNL     1      26.710   6.705  48.927  1.00  0.00    -0.398 N 
HETATM   25  C16 UNL     1      26.645   7.325  47.668  1.00  0.00     0.144 C 
HETATM   26  C19 UNL     1      25.999   7.366  49.939  1.00  0.00     0.175 C 
HETATM   27  C17 UNL     1      27.150   8.758  47.842  1.00  0.00     0.187 C 
HETATM   28  O1  UNL     1      26.689   9.366  48.983  1.00  0.00    -0.387 OA
HETATM   29  C18 UNL     1      26.863   8.649  50.153  1.00  0.00     0.200 C 
HETATM   30  C20 UNL     1      24.659   7.938  49.640  1.00  0.00     0.174 C 
HETATM   31  O2  UNL     1      24.490   9.160  49.465  1.00  0.00    -0.293 OA
HETATM   32  C21 UNL     1      23.263   7.315  49.475  1.00  0.00     0.251 C 
HETATM   33  O3  UNL     1      23.432   6.037  49.617  1.00  0.00    -0.356 OA
ENDBRANCH   9  11
ENDBRANCH   7   9
TORSDOF 2
ENDMDL
MODEL 4
REMARK VINA RESULT:      -9.2      6.160     10.315
REMARK  2 active torsions:
REMARK  status: ('A' for Active; 'I' for Inactive)
REMARK    1  A    between atoms: C7_7  and  N1_8 
REMARK    2  A    between atoms: N1_8  and  C8_9 
ROOT
HETATM    1  C1  UNL     1      12.436   2.623  54.291  1.00  0.00     0.018 C 
HETATM    2  C2  UNL     1      13.228   2.784  53.369  1.00  0.00    -0.078 C 
HETATM    3  C3  UNL     1      14.134   2.966  52.286  1.00  0.00     0.019 A 
HETATM    4  C4  UNL     1      13.987   4.022  51.428  1.00  0.00     0.021 A 
HETATM    5  C5  UNL     1      14.869   4.184  50.383  1.00  0.00     0.004 A 
HETATM    6  C6  UNL     1      15.888   3.271  50.225  1.00  0.00     0.029 A 
HETATM    7  C7  UNL     1      16.112   2.181  51.036  1.00  0.00     0.035 A 
HETATM    8  C24 UNL     1      15.171   2.107  52.058  1.00  0.00     0.050 A 
ENDROOT
BRANCH   7   9
HETATM    9  N1  UNL     1      17.158   1.245  50.835  1.00  0.00    -0.340 N 
HETATM   10  H5  UNL     1      17.536   1.396  49.893  1.00  0.00     0.167 HD
BRANCH   9  11
HETATM   11  C8  UNL     1      17.604   0.277  51.755  1.00  0.00     0.143 A 
HETATM   12  N2  UNL     1      16.813  -0.717  52.132  1.00  0.00    -0.223 NA
HETATM   13  C9  UNL     1      17.145  -1.678  53.001  1.00  0.00     0.236 A 
HETATM   14  N3  UNL     1      18.399  -1.626  53.540  1.00  0.00    -0.241 NA
HETATM   15  C10 UNL     1      19.218  -0.611  53.161  1.00  0.00     0.074 A 
HETATM   16  C11 UNL     1      18.876   0.377  52.264  1.00  0.00     0.054 A 
HETATM   17  C23 UNL     1      20.407  -0.583  53.731  1.00  0.00     0.059 A 
HETATM   18  C12 UNL     1      19.761   1.308  51.953  1.00  0.00     0.106 A 
HETATM   19  N4  UNL     1      21.070   1.357  52.513  1.00  0.00    -0.360 N 
HETATM   20  C13 UNL     1      21.947   2.436  51.976  1.00  0.00     0.127 C 
HETATM   21  C22 UNL     1      21.504   0.390  53.529  1.00  0.00     0.249 A 
HETATM   22  C14 UNL     1      23.285   1.988  52.312  1.00  0.00     0.039 C 
HETATM   23  C15 UNL     1      24.571   2.637  51.959  1.00  0.00     0.119 C 
HETATM   24  N5  UNL     1      25.529   1.734  52.570  1.00  0.00    -0.398 N 
HETATM   25  C16 UNL     1      26.095   2.141  53.790  1.00  0.00     0.144 C 
HETATM   26  C19 UNL     1      25.396   0.346  52.425  1.00  0.00     0.175 C 
HETATM   27  C17 UNL     1      27.452   1.447  53.913  1.00  0.00     0.187 C 
HETATM   28  O1  UNL     1      27.433   0.134  53.517  1.00  0.00    -0.387 OA
HETATM   29  C18 UNL     1      26.882  -0.106  52.271  1.00  0.00     0.200 C 
HETATM   30  C20 UNL     1      24.939  -0.472  53.580  1.00  0.00     0.174 C 
HETATM   31  O2  UNL     1      25.732  -1.159  54.254  1.00  0.00    -0.293 OA
HETATM   32  C21 UNL     1      23.563  -0.705  54.225  1.00  0.00     0.251 C 
HETATM   33  O3  UNL     1      22.734   0.036  53.557  1.00  0.00    -0.356 OA
ENDBRANCH   9  11
ENDBRANCH   7   9
TORSDOF 2
ENDMDL
MODEL 5
REMARK VINA RESULT:      -9.2      5.812      9.107
REMARK  2 active torsions:
REMARK  status: ('A' for Active; 'I' for Inactive)
REMARK    1  A    between atoms: C7_7  and  N1_8 
REMARK    2  A    between atoms: N1_8  and  C8_9 
ROOT
HETATM    1  C1  UNL     1      21.091   7.871  49.518  1.00  0.00     0.018 C 
HETATM    2  C2  UNL     1      20.372   6.968  49.106  1.00  0.00    -0.078 C 
HETATM    3  C3  UNL     1      19.523   5.923  48.642  1.00  0.00     0.019 A 
HETATM    4  C4  UNL     1      18.315   6.213  48.068  1.00  0.00     0.021 A 
HETATM    5  C5  UNL     1      17.503   5.192  47.626  1.00  0.00     0.004 A 
HETATM    6  C6  UNL     1      17.931   3.891  47.773  1.00  0.00     0.029 A 
HETATM    7  C7  UNL     1      19.127   3.506  48.337  1.00  0.00     0.035 A 
HETATM    8  C24 UNL     1      19.871   4.607  48.750  1.00  0.00     0.050 A 
ENDROOT
BRANCH   7   9
HETATM    9  N1  UNL     1      19.530   2.155  48.495  1.00  0.00    -0.340 N 
HETATM   10  H5  UNL     1      19.911   1.836  47.597  1.00  0.00     0.167 HD
BRANCH   9  11
HETATM   11  C8  UNL     1      19.428   1.383  49.668  1.00  0.00     0.143 A 
HETATM   12  N2  UNL     1      18.305   0.747  49.968  1.00  0.00    -0.223 NA
HETATM   13  C9  UNL     1      18.112  -0.003  51.057  1.00  0.00     0.236 A 
HETATM   14  N3  UNL     1      19.159  -0.120  51.927  1.00  0.00    -0.241 NA
HETATM   15  C10 UNL     1      20.315   0.528  51.631  1.00  0.00     0.074 A 
HETATM   16  C11 UNL     1      20.513   1.299  50.507  1.00  0.00     0.054 A 
HETATM   17  C23 UNL     1      21.287   0.412  52.515  1.00  0.00     0.059 A 
HETATM   18  C12 UNL     1      21.688   1.871  50.309  1.00  0.00     0.106 A 
HETATM   19  N4  UNL     1      22.779   1.743  51.216  1.00  0.00    -0.360 N 
HETATM   20  C13 UNL     1      24.046   2.396  50.776  1.00  0.00     0.127 C 
HETATM   21  C22 UNL     1      22.645   1.000  52.475  1.00  0.00     0.249 A 
HETATM   22  C14 UNL     1      25.063   1.739  51.574  1.00  0.00     0.039 C 
HETATM   23  C15 UNL     1      26.531   1.938  51.509  1.00  0.00     0.119 C 
HETATM   24  N5  UNL     1      26.995   1.020  52.534  1.00  0.00    -0.398 N 
HETATM   25  C16 UNL     1      27.356   1.581  53.770  1.00  0.00     0.144 C 
HETATM   26  C19 UNL     1      26.480  -0.281  52.613  1.00  0.00     0.175 C 
HETATM   27  C17 UNL     1      28.366   0.634  54.419  1.00  0.00     0.187 C 
HETATM   28  O1  UNL     1      28.038  -0.691  54.284  1.00  0.00    -0.387 OA
HETATM   29  C18 UNL     1      27.748  -1.106  52.997  1.00  0.00     0.200 C 
HETATM   30  C20 UNL     1      25.537  -0.631  53.709  1.00  0.00     0.174 C 
HETATM   31  O2  UNL     1      25.899  -1.290  54.703  1.00  0.00    -0.293 OA
HETATM   32  C21 UNL     1      24.045  -0.344  53.944  1.00  0.00     0.251 C 
HETATM   33  O3  UNL     1      23.665   0.376  52.934  1.00  0.00    -0.356 OA
ENDBRANCH   9  11
ENDBRANCH   7   9
TORSDOF 2
ENDMDL
MODEL 6
REMARK VINA RESULT:      -9.2      7.016     11.392
REMARK  2 active torsions:
REMARK  status: ('A' for Active; 'I' for Inactive)
REMARK    1  A    between atoms: C7_7  and  N1_8 
REMARK    2  A    between atoms: N1_8  and  C8_9 
ROOT
HETATM    1  C1  UNL     1      26.713   4.219  49.259  1.00  0.00     0.018 C 
HETATM    2  C2  UNL     1      26.367   3.378  50.081  1.00  0.00    -0.078 C 
HETATM    3  C3  UNL     1      25.962   2.389  51.022  1.00  0.00     0.019 A 
HETATM    4  C4  UNL     1      26.810   1.369  51.364  1.00  0.00     0.021 A 
HETATM    5  C5  UNL     1      26.404   0.417  52.273  1.00  0.00     0.004 A 
HETATM    6  C6  UNL     1      25.145   0.515  52.822  1.00  0.00     0.029 A 
HETATM    7  C7  UNL     1      24.229   1.503  52.538  1.00  0.00     0.035 A 
HETATM    8  C24 UNL     1      24.732   2.411  51.613  1.00  0.00     0.050 A 
ENDROOT
BRANCH   7   9
HETATM    9  N1  UNL     1      22.929   1.564  53.104  1.00  0.00    -0.340 N 
HETATM   10  H5  UNL     1      22.675   2.554  53.196  1.00  0.00     0.167 HD
BRANCH   9  11
HETATM   11  C8  UNL     1      22.126   0.470  53.477  1.00  0.00     0.143 A 
HETATM   12  N2  UNL     1      22.617  -0.513  54.218  1.00  0.00    -0.223 NA
HETATM   13  C9  UNL     1      21.935  -1.591  54.616  1.00  0.00     0.236 A 
HETATM   14  N3  UNL     1      20.629  -1.684  54.226  1.00  0.00    -0.241 NA
HETATM   15  C10 UNL     1      20.115  -0.683  53.465  1.00  0.00     0.074 A 
HETATM   16  C11 UNL     1      20.818   0.429  53.057  1.00  0.00     0.054 A 
HETATM   17  C23 UNL     1      18.860  -0.830  53.085  1.00  0.00     0.059 A 
HETATM   18  C12 UNL     1      20.211   1.353  52.332  1.00  0.00     0.106 A 
HETATM   19  N4  UNL     1      18.847   1.256  51.931  1.00  0.00    -0.360 N 
HETATM   20  C13 UNL     1      18.323   2.438  51.186  1.00  0.00     0.127 C 
HETATM   21  C22 UNL     1      18.035   0.078  52.258  1.00  0.00     0.249 A 
HETATM   22  C14 UNL     1      16.884   2.317  51.325  1.00  0.00     0.039 C 
HETATM   23  C15 UNL     1      15.848   3.260  50.839  1.00  0.00     0.119 C 
HETATM   24  N5  UNL     1      14.629   2.598  51.269  1.00  0.00    -0.398 N 
HETATM   25  C16 UNL     1      13.909   1.897  50.288  1.00  0.00     0.144 C 
HETATM   26  C19 UNL     1      14.524   2.064  52.561  1.00  0.00     0.175 C 
HETATM   27  C17 UNL     1      12.449   1.853  50.742  1.00  0.00     0.187 C 
HETATM   28  O1  UNL     1      12.301   1.598  52.082  1.00  0.00    -0.387 OA
HETATM   29  C18 UNL     1      13.044   2.400  52.928  1.00  0.00     0.200 C 
HETATM   30  C20 UNL     1      14.565   0.590  52.751  1.00  0.00     0.174 C 
HETATM   31  O2  UNL     1      13.534  -0.074  52.974  1.00  0.00    -0.293 OA
HETATM   32  C21 UNL     1      15.706  -0.440  52.739  1.00  0.00     0.251 C 
HETATM   33  O3  UNL     1      16.782   0.233  52.469  1.00  0.00    -0.356 OA
ENDBRANCH   9  11
ENDBRANCH   7   9
TORSDOF 2
ENDMDL
MODEL 7
REMARK VINA RESULT:      -9.1      5.107      8.778
REMARK  2 active torsions:
REMARK  status: ('A' for Active; 'I' for Inactive)
REMARK    1  A    between atoms: C7_7  and  N1_8 
REMARK    2  A    between atoms: N1_8  and  C8_9 
ROOT
HETATM    1  C1  UNL     1      14.075   4.193  49.277  1.00  0.00     0.018 C 
HETATM    2  C2  UNL     1      15.034   3.516  49.630  1.00  0.00    -0.078 C 
HETATM    3  C3  UNL     1      16.138   2.721  50.053  1.00  0.00     0.019 A 
HETATM    4  C4  UNL     1      16.178   1.382  49.769  1.00  0.00     0.021 A 
HETATM    5  C5  UNL     1      17.249   0.625  50.187  1.00  0.00     0.004 A 
HETATM    6  C6  UNL     1      18.265   1.239  50.886  1.00  0.00     0.029 A 
HETATM    7  C7  UNL     1      18.309   2.575  51.216  1.00  0.00     0.035 A 
HETATM    8  C24 UNL     1      17.185   3.250  50.751  1.00  0.00     0.050 A 
ENDROOT
BRANCH   7   9
HETATM    9  N1  UNL     1      19.360   3.174  51.958  1.00  0.00    -0.340 N 
HETATM   10  H5  UNL     1      19.166   3.021  52.953  1.00  0.00     0.167 HD
BRANCH   9  11
HETATM   11  C8  UNL     1      20.471   3.860  51.430  1.00  0.00     0.143 A 
HETATM   12  N2  UNL     1      20.330   5.051  50.867  1.00  0.00    -0.223 NA
HETATM   13  C9  UNL     1      21.322   5.773  50.337  1.00  0.00     0.236 A 
HETATM   14  N3  UNL     1      22.578   5.237  50.381  1.00  0.00    -0.241 NA
HETATM   15  C10 UNL     1      22.733   4.016  50.954  1.00  0.00     0.074 A 
HETATM   16  C11 UNL     1      21.711   3.273  51.503  1.00  0.00     0.054 A 
HETATM   17  C23 UNL     1      23.957   3.524  50.945  1.00  0.00     0.059 A 
HETATM   18  C12 UNL     1      21.980   2.102  52.053  1.00  0.00     0.106 A 
HETATM   19  N4  UNL     1      23.292   1.547  52.101  1.00  0.00    -0.360 N 
HETATM   20  C13 UNL     1      23.403   0.254  52.835  1.00  0.00     0.127 C 
HETATM   21  C22 UNL     1      24.435   2.230  51.484  1.00  0.00     0.249 A 
HETATM   22  C14 UNL     1      24.816   0.163  53.153  1.00  0.00     0.039 C 
HETATM   23  C15 UNL     1      25.498  -0.890  53.944  1.00  0.00     0.119 C 
HETATM   24  N5  UNL     1      26.877  -0.435  53.905  1.00  0.00    -0.398 N 
HETATM   25  C16 UNL     1      27.734  -1.089  53.004  1.00  0.00     0.144 C 
HETATM   26  C19 UNL     1      27.191   0.911  54.135  1.00  0.00     0.175 C 
HETATM   27  C17 UNL     1      29.156  -0.947  53.549  1.00  0.00     0.187 C 
HETATM   28  O1  UNL     1      29.429   0.303  54.046  1.00  0.00    -0.387 OA
HETATM   29  C18 UNL     1      28.514   0.797  54.957  1.00  0.00     0.200 C 
HETATM   30  C20 UNL     1      27.605   1.773  52.997  1.00  0.00     0.174 C 
HETATM   31  O2  UNL     1      28.797   2.085  52.807  1.00  0.00    -0.293 OA
HETATM   32  C21 UNL     1      26.829   2.457  51.859  1.00  0.00     0.251 C 
HETATM   33  O3  UNL     1      25.590   2.108  52.022  1.00  0.00    -0.356 OA
ENDBRANCH   9  11
ENDBRANCH   7   9
TORSDOF 2
ENDMDL
MODEL 8
REMARK VINA RESULT:      -9.1      4.346      8.147
REMARK  2 active torsions:
REMARK  status: ('A' for Active; 'I' for Inactive)
REMARK    1  A    between atoms: C7_7  and  N1_8 
REMARK    2  A    between atoms: N1_8  and  C8_9 
ROOT
HETATM    1  C1  UNL     1      31.353   0.687  46.327  1.00  0.00     0.018 C 
HETATM    2  C2  UNL     1      32.134   1.602  46.564  1.00  0.00    -0.078 C 
HETATM    3  C3  UNL     1      33.032   2.668  46.857  1.00  0.00     0.019 A 
HETATM    4  C4  UNL     1      33.989   2.523  47.826  1.00  0.00     0.021 A 
HETATM    5  C5  UNL     1      34.848   3.563  48.101  1.00  0.00     0.004 A 
HETATM    6  C6  UNL     1      34.723   4.735  47.388  1.00  0.00     0.029 A 
HETATM    7  C7  UNL     1      33.794   4.970  46.400  1.00  0.00     0.035 A 
HETATM    8  C24 UNL     1      32.976   3.862  46.199  1.00  0.00     0.050 A 
ENDROOT
BRANCH   7   9
HETATM    9  N1  UNL     1      33.675   6.197  45.698  1.00  0.00    -0.340 N 
HETATM   10  H5  UNL     1      33.817   6.001  44.700  1.00  0.00     0.167 HD
BRANCH   9  11
HETATM   11  C8  UNL     1      33.414   7.461  46.260  1.00  0.00     0.143 A 
HETATM   12  N2  UNL     1      34.257   8.469  46.088  1.00  0.00    -0.223 NA
HETATM   13  C9  UNL     1      34.096   9.700  46.585  1.00  0.00     0.236 A 
HETATM   14  N3  UNL     1      32.974   9.931  47.329  1.00  0.00    -0.241 NA
HETATM   15  C10 UNL     1      32.103   8.905  47.512  1.00  0.00     0.074 A 
HETATM   16  C11 UNL     1      32.269   7.638  46.997  1.00  0.00     0.054 A 
HETATM   17  C23 UNL     1      31.050   9.166  48.263  1.00  0.00     0.059 A 
HETATM   18  C12 UNL     1      31.346   6.718  47.224  1.00  0.00     0.106 A 
HETATM   19  N4  UNL     1      30.174   6.964  47.995  1.00  0.00    -0.360 N 
HETATM   20  C13 UNL     1      29.216   5.824  48.069  1.00  0.00     0.127 C 
HETATM   21  C22 UNL     1      29.942   8.261  48.643  1.00  0.00     0.249 A 
HETATM   22  C14 UNL     1      27.967   6.452  48.458  1.00  0.00     0.039 C 
HETATM   23  C15 UNL     1      26.642   5.806  48.617  1.00  0.00     0.119 C 
HETATM   24  N5  UNL     1      25.816   6.932  49.017  1.00  0.00    -0.398 N 
HETATM   25  C16 UNL     1      25.506   7.035  50.383  1.00  0.00     0.144 C 
HETATM   26  C19 UNL     1      25.909   8.159  48.347  1.00  0.00     0.175 C 
HETATM   27  C17 UNL     1      24.195   7.815  50.492  1.00  0.00     0.187 C 
HETATM   28  O1  UNL     1      24.126   8.889  49.641  1.00  0.00    -0.387 OA
HETATM   29  C18 UNL     1      24.418   8.622  48.316  1.00  0.00     0.200 C 
HETATM   30  C20 UNL     1      26.579   9.309  49.010  1.00  0.00     0.174 C 
HETATM   31  O2  UNL     1      25.930  10.246  49.516  1.00  0.00    -0.293 OA
HETATM   32  C21 UNL     1      28.053   9.669  49.255  1.00  0.00     0.251 C 
HETATM   33  O3  UNL     1      28.739   8.682  48.767  1.00  0.00    -0.356 OA
ENDBRANCH   9  11
ENDBRANCH   7   9
TORSDOF 2
ENDMDL
MODEL 9
REMARK VINA RESULT:      -8.9      6.359     10.123
REMARK  2 active torsions:
REMARK  status: ('A' for Active; 'I' for Inactive)
REMARK    1  A    between atoms: C7_7  and  N1_8 
REMARK    2  A    between atoms: N1_8  and  C8_9 
ROOT
HETATM    1  C1  UNL     1      15.630   4.652  45.888  1.00  0.00     0.018 C 
HETATM    2  C2  UNL     1      15.815   4.195  47.010  1.00  0.00    -0.078 C 
HETATM    3  C3  UNL     1      16.040   3.678  48.317  1.00  0.00     0.019 A 
HETATM    4  C4  UNL     1      15.523   4.314  49.414  1.00  0.00     0.021 A 
HETATM    5  C5  UNL     1      15.752   3.805  50.673  1.00  0.00     0.004 A 
HETATM    6  C6  UNL     1      16.503   2.657  50.800  1.00  0.00     0.029 A 
HETATM    7  C7  UNL     1      17.061   1.953  49.757  1.00  0.00     0.035 A 
HETATM    8  C24 UNL     1      16.773   2.546  48.532  1.00  0.00     0.050 A 
ENDROOT
BRANCH   7   9
HETATM    9  N1  UNL     1      17.850   0.785  49.921  1.00  0.00    -0.340 N 
HETATM   10  H5  UNL     1      18.227   0.531  49.001  1.00  0.00     0.167 HD
BRANCH   9  11
HETATM   11  C8  UNL     1      18.076   0.090  51.125  1.00  0.00     0.143 A 
HETATM   12  N2  UNL     1      17.134  -0.678  51.654  1.00  0.00    -0.223 NA
HETATM   13  C9  UNL     1      17.254  -1.370  52.791  1.00  0.00     0.236 A 
HETATM   14  N3  UNL     1      18.443  -1.274  53.457  1.00  0.00    -0.241 NA
HETATM   15  C10 UNL     1      19.415  -0.490  52.925  1.00  0.00     0.074 A 
HETATM   16  C11 UNL     1      19.291   0.221  51.751  1.00  0.00     0.054 A 
HETATM   17  C23 UNL     1      20.534  -0.403  53.618  1.00  0.00     0.059 A 
HETATM   18  C12 UNL     1      20.311   0.940  51.315  1.00  0.00     0.106 A 
HETATM   19  N4  UNL     1      21.552   1.033  52.009  1.00  0.00    -0.360 N 
HETATM   20  C13 UNL     1      22.605   1.828  51.315  1.00  0.00     0.127 C 
HETATM   21  C22 UNL     1      21.757   0.368  53.302  1.00  0.00     0.249 A 
HETATM   22  C14 UNL     1      23.836   1.380  51.938  1.00  0.00     0.039 C 
HETATM   23  C15 UNL     1      25.221   1.783  51.594  1.00  0.00     0.119 C 
HETATM   24  N5  UNL     1      25.994   1.015  52.555  1.00  0.00    -0.398 N 
HETATM   25  C16 UNL     1      26.477   1.707  53.678  1.00  0.00     0.144 C 
HETATM   26  C19 UNL     1      25.707  -0.338  52.784  1.00  0.00     0.175 C 
HETATM   27  C17 UNL     1      27.719   0.962  54.169  1.00  0.00     0.187 C 
HETATM   28  O1  UNL     1      27.580  -0.403  54.154  1.00  0.00    -0.387 OA
HETATM   29  C18 UNL     1      27.134  -0.944  52.962  1.00  0.00     0.200 C 
HETATM   30  C20 UNL     1      25.037  -0.741  54.049  1.00  0.00     0.174 C 
HETATM   31  O2  UNL     1      25.665  -1.271  54.986  1.00  0.00    -0.293 OA
HETATM   32  C21 UNL     1      23.584  -0.655  54.543  1.00  0.00     0.251 C 
HETATM   33  O3  UNL     1      22.925  -0.069  53.591  1.00  0.00    -0.356 OA
ENDBRANCH   9  11
ENDBRANCH   7   9
TORSDOF 2
ENDMDL
