MODEL 1
REMARK VINA RESULT:      -9.0      0.000      0.000
REMARK  8 active torsions:
REMARK  status: ('A' for Active; 'I' for Inactive)
REMARK    1  A    between atoms: C2_2  and  N1_3 
REMARK    2  A    between atoms: N1_3  and  C3_4 
REMARK    3  A    between atoms: N1_3  and  C5_6 
REMARK    4  A    between atoms: C5_6  and  C7_8 
REMARK    5  A    between atoms: C8_9  and  C9_10 
REMARK       I    between atoms: C9_10  and  N2_12 
REMARK    6  A    between atoms: N2_12  and  C10_13 
REMARK    7  A    between atoms: C13_16  and  C14_17 
REMARK    8  A    between atoms: C24_31  and  O2_32 
ROOT
HETATM    1  C10 UNL     1      25.748   2.538  51.998  1.00  0.00     0.069 A 
HETATM    2  C11 UNL     1      24.507   1.978  52.211  1.00  0.00     0.046 A 
HETATM    3  C12 UNL     1      24.228   0.922  53.038  1.00  0.00     0.004 A 
HETATM    4  C13 UNL     1      22.919   0.448  53.170  1.00  0.00    -0.012 A 
HETATM    5  C19 UNL     1      22.869  -0.607  54.050  1.00  0.00     0.070 A 
HETATM    6  C20 UNL     1      21.623  -1.246  54.352  1.00  0.00     0.101 C 
HETATM    7  N3  UNL     1      20.628  -1.771  54.609  1.00  0.00    -0.191 NA
HETATM    8  C21 UNL     1      23.967  -1.142  54.726  1.00  0.00     0.140 A 
HETATM    9  N4  UNL     1      25.188  -0.632  54.543  1.00  0.00    -0.259 NA
HETATM   10  C22 UNL     1      25.322   0.409  53.692  1.00  0.00     0.070 A 
HETATM   11  C23 UNL     1      26.598   0.899  53.545  1.00  0.00     0.071 A 
HETATM   12  C24 UNL     1      26.836   1.980  52.688  1.00  0.00     0.097 A 
ENDROOT
BRANCH   4  13
HETATM   13  C14 UNL     1      21.794   1.001  52.461  1.00  0.00     0.071 A 
HETATM   14  C15 UNL     1      21.841   2.465  52.166  1.00  0.00     0.030 A 
HETATM   15  C16 UNL     1      21.787   2.708  50.867  1.00  0.00     0.135 A 
HETATM   16  F1  UNL     1      21.803   3.879  50.187  1.00  0.00    -0.205 F 
HETATM   17  C17 UNL     1      21.718   1.417  50.186  1.00  0.00     0.069 A 
HETATM   18 CL1  UNL     1      21.635   1.106  48.464  1.00  0.00    -0.081 Cl
HETATM   19  C18 UNL     1      21.726   0.428  51.090  1.00  0.00     0.013 A 
ENDBRANCH   4  13
BRANCH   1  20
HETATM   20  N2  UNL     1      26.066   3.636  51.164  1.00  0.00    -0.321 N 
HETATM   21  C9  UNL     1      25.707   4.171  49.921  1.00  0.00     0.245 C 
HETATM   22  O1  UNL     1      24.846   3.617  49.213  1.00  0.00    -0.268 OA
HETATM   23  H17 UNL     1      26.769   4.063  51.803  1.00  0.00     0.169 HD
BRANCH  21  24
HETATM   24  C8  UNL     1      26.321   5.381  49.420  1.00  0.00     0.072 C 
HETATM   25  C7  UNL     1      27.315   5.490  48.557  1.00  0.00     0.003 C 
BRANCH  25  26
HETATM   26  C5  UNL     1      28.102   6.591  47.901  1.00  0.00     0.098 C 
HETATM   27  C6  UNL     1      29.566   6.462  48.256  1.00  0.00     0.036 C 
BRANCH  26  28
HETATM   28  N1  UNL     1      27.604   7.869  48.208  1.00  0.00    -0.406 N 
BRANCH  28  29
HETATM   29  C2  UNL     1      28.233   8.607  49.231  1.00  0.00     0.113 C 
HETATM   30  C1  UNL     1      27.228   9.148  50.214  1.00  0.00     0.026 C 
ENDBRANCH  28  29
BRANCH  28  31
HETATM   31  C3  UNL     1      26.584   8.437  47.442  1.00  0.00     0.113 C 
HETATM   32  C4  UNL     1      26.827   8.549  45.956  1.00  0.00     0.026 C 
ENDBRANCH  28  31
ENDBRANCH  26  28
ENDBRANCH  25  26
ENDBRANCH  21  24
ENDBRANCH   1  20
BRANCH  12  33
HETATM   33  O2  UNL     1      28.123   2.476  52.538  1.00  0.00    -0.354 OA
HETATM   34  C25 UNL     1      29.007   2.520  53.634  1.00  0.00     0.210 C 
ENDBRANCH  12  33
TORSDOF 8
ENDMDL
MODEL 2
REMARK VINA RESULT:      -9.0      0.125      1.219
REMARK  8 active torsions:
REMARK  status: ('A' for Active; 'I' for Inactive)
REMARK    1  A    between atoms: C2_2  and  N1_3 
REMARK    2  A    between atoms: N1_3  and  C3_4 
REMARK    3  A    between atoms: N1_3  and  C5_6 
REMARK    4  A    between atoms: C5_6  and  C7_8 
REMARK    5  A    between atoms: C8_9  and  C9_10 
REMARK       I    between atoms: C9_10  and  N2_12 
REMARK    6  A    between atoms: N2_12  and  C10_13 
REMARK    7  A    between atoms: C13_16  and  C14_17 
REMARK    8  A    between atoms: C24_31  and  O2_32 
ROOT
HETATM    1  C10 UNL     1      25.805   2.461  52.025  1.00  0.00     0.069 A 
HETATM    2  C11 UNL     1      24.568   1.897  52.256  1.00  0.00     0.046 A 
HETATM    3  C12 UNL     1      24.302   0.844  53.090  1.00  0.00     0.004 A 
HETATM    4  C13 UNL     1      22.996   0.367  53.241  1.00  0.00    -0.012 A 
HETATM    5  C19 UNL     1      22.960  -0.684  54.126  1.00  0.00     0.070 A 
HETATM    6  C20 UNL     1      21.720  -1.325  54.446  1.00  0.00     0.101 C 
HETATM    7  N3  UNL     1      20.729  -1.852  54.717  1.00  0.00    -0.191 NA
HETATM    8  C21 UNL     1      24.067  -1.213  54.790  1.00  0.00     0.140 A 
HETATM    9  N4  UNL     1      25.285  -0.701  54.590  1.00  0.00    -0.259 NA
HETATM   10  C22 UNL     1      25.405   0.337  53.733  1.00  0.00     0.070 A 
HETATM   11  C23 UNL     1      26.678   0.830  53.568  1.00  0.00     0.071 A 
HETATM   12  C24 UNL     1      26.903   1.908  52.704  1.00  0.00     0.097 A 
ENDROOT
BRANCH   4  13
HETATM   13  C14 UNL     1      21.861   0.915  52.543  1.00  0.00     0.071 A 
HETATM   14  C15 UNL     1      21.908   2.373  52.227  1.00  0.00     0.030 A 
HETATM   15  C16 UNL     1      21.833   2.599  50.925  1.00  0.00     0.135 A 
HETATM   16  F1  UNL     1      21.841   3.760  50.229  1.00  0.00    -0.205 F 
HETATM   17  C17 UNL     1      21.747   1.299  50.264  1.00  0.00     0.069 A 
HETATM   18 CL1  UNL     1      21.635   0.964  48.549  1.00  0.00    -0.081 Cl
HETATM   19  C18 UNL     1      21.768   0.322  51.182  1.00  0.00     0.013 A 
ENDBRANCH   4  13
BRANCH   1  20
HETATM   20  N2  UNL     1      26.109   3.555  51.183  1.00  0.00    -0.321 N 
HETATM   21  C9  UNL     1      25.740   4.080  49.939  1.00  0.00     0.245 C 
HETATM   22  O1  UNL     1      24.879   3.515  49.239  1.00  0.00    -0.268 OA
HETATM   23  H17 UNL     1      26.813   3.992  51.815  1.00  0.00     0.169 HD
BRANCH  21  24
HETATM   24  C8  UNL     1      26.341   5.291  49.427  1.00  0.00     0.072 C 
HETATM   25  C7  UNL     1      27.351   5.404  48.583  1.00  0.00     0.003 C 
BRANCH  25  26
HETATM   26  C5  UNL     1      28.131   6.506  47.922  1.00  0.00     0.098 C 
HETATM   27  C6  UNL     1      29.599   6.373  48.255  1.00  0.00     0.036 C 
BRANCH  26  28
HETATM   28  N1  UNL     1      27.639   7.784  48.243  1.00  0.00    -0.406 N 
BRANCH  28  29
HETATM   29  C2  UNL     1      26.529   8.275  47.526  1.00  0.00     0.113 C 
HETATM   30  C1  UNL     1      26.848   8.434  46.063  1.00  0.00     0.026 C 
ENDBRANCH  28  29
BRANCH  28  31
HETATM   31  C3  UNL     1      28.168   8.499  49.319  1.00  0.00     0.113 C 
HETATM   32  C4  UNL     1      27.181   9.189  50.230  1.00  0.00     0.026 C 
ENDBRANCH  28  31
ENDBRANCH  26  28
ENDBRANCH  25  26
ENDBRANCH  21  24
ENDBRANCH   1  20
BRANCH  12  33
HETATM   33  O2  UNL     1      28.187   2.407  52.536  1.00  0.00    -0.354 OA
HETATM   34  C25 UNL     1      29.076   2.480  53.626  1.00  0.00     0.210 C 
ENDBRANCH  12  33
TORSDOF 8
ENDMDL
MODEL 3
REMARK VINA RESULT:      -8.6      2.569      4.180
REMARK  8 active torsions:
REMARK  status: ('A' for Active; 'I' for Inactive)
REMARK    1  A    between atoms: C2_2  and  N1_3 
REMARK    2  A    between atoms: N1_3  and  C3_4 
REMARK    3  A    between atoms: N1_3  and  C5_6 
REMARK    4  A    between atoms: C5_6  and  C7_8 
REMARK    5  A    between atoms: C8_9  and  C9_10 
REMARK       I    between atoms: C9_10  and  N2_12 
REMARK    6  A    between atoms: N2_12  and  C10_13 
REMARK    7  A    between atoms: C13_16  and  C14_17 
REMARK    8  A    between atoms: C24_31  and  O2_32 
ROOT
HETATM    1  C10 UNL     1      24.497   2.642  50.201  1.00  0.00     0.069 A 
HETATM    2  C11 UNL     1      24.466   1.838  51.320  1.00  0.00     0.046 A 
HETATM    3  C12 UNL     1      23.372   1.172  51.807  1.00  0.00     0.004 A 
HETATM    4  C13 UNL     1      23.474   0.381  52.955  1.00  0.00    -0.012 A 
HETATM    5  C19 UNL     1      22.264  -0.197  53.258  1.00  0.00     0.070 A 
HETATM    6  C20 UNL     1      22.133  -1.063  54.391  1.00  0.00     0.101 C 
HETATM    7  N3  UNL     1      22.009  -1.766  55.299  1.00  0.00    -0.191 NA
HETATM    8  C21 UNL     1      21.086  -0.024  52.529  1.00  0.00     0.140 A 
HETATM    9  N4  UNL     1      21.071   0.753  51.442  1.00  0.00    -0.259 NA
HETATM   10  C22 UNL     1      22.224   1.356  51.076  1.00  0.00     0.070 A 
HETATM   11  C23 UNL     1      22.155   2.139  49.947  1.00  0.00     0.071 A 
HETATM   12  C24 UNL     1      23.299   2.802  49.486  1.00  0.00     0.097 A 
ENDROOT
BRANCH   4  13
HETATM   13  C14 UNL     1      24.692   0.216  53.706  1.00  0.00     0.071 A 
HETATM   14  C15 UNL     1      25.653  -0.814  53.207  1.00  0.00     0.030 A 
HETATM   15  C16 UNL     1      26.828  -0.286  52.904  1.00  0.00     0.135 A 
HETATM   16  F1  UNL     1      27.957  -0.861  52.427  1.00  0.00    -0.205 F 
HETATM   17  C17 UNL     1      26.738   1.150  53.160  1.00  0.00     0.069 A 
HETATM   18 CL1  UNL     1      27.977   2.367  52.937  1.00  0.00    -0.081 Cl
HETATM   19  C18 UNL     1      25.515   1.452  53.616  1.00  0.00     0.013 A 
ENDBRANCH   4  13
BRANCH   1  20
HETATM   20  N2  UNL     1      25.610   3.330  49.665  1.00  0.00    -0.321 N 
HETATM   21  C9  UNL     1      26.093   4.638  49.529  1.00  0.00     0.245 C 
HETATM   22  O1  UNL     1      25.448   5.605  49.975  1.00  0.00    -0.268 OA
HETATM   23  H17 UNL     1      26.112   2.484  49.323  1.00  0.00     0.169 HD
BRANCH  21  24
HETATM   24  C8  UNL     1      27.352   4.908  48.870  1.00  0.00     0.072 C 
HETATM   25  C7  UNL     1      27.822   6.073  48.464  1.00  0.00     0.003 C 
BRANCH  25  26
HETATM   26  C5  UNL     1      29.055   6.597  47.780  1.00  0.00     0.098 C 
HETATM   27  C6  UNL     1      30.170   5.581  47.874  1.00  0.00     0.036 C 
BRANCH  26  28
HETATM   28  N1  UNL     1      29.453   7.853  48.270  1.00  0.00    -0.406 N 
BRANCH  28  29
HETATM   29  C2  UNL     1      28.500   8.891  48.308  1.00  0.00     0.113 C 
HETATM   30  C1  UNL     1      28.287   9.388  49.714  1.00  0.00     0.026 C 
ENDBRANCH  28  29
BRANCH  28  31
HETATM   31  C3  UNL     1      30.728   8.033  48.810  1.00  0.00     0.113 C 
HETATM   32  C4  UNL     1      31.636   9.011  48.104  1.00  0.00     0.026 C 
ENDBRANCH  28  31
ENDBRANCH  26  28
ENDBRANCH  25  26
ENDBRANCH  21  24
ENDBRANCH   1  20
BRANCH  12  33
HETATM   33  O2  UNL     1      23.231   3.592  48.347  1.00  0.00    -0.354 OA
HETATM   34  C25 UNL     1      22.204   4.543  48.195  1.00  0.00     0.210 C 
ENDBRANCH  12  33
TORSDOF 8
ENDMDL
MODEL 4
REMARK VINA RESULT:      -7.9      4.763      8.605
REMARK  8 active torsions:
REMARK  status: ('A' for Active; 'I' for Inactive)
REMARK    1  A    between atoms: C2_2  and  N1_3 
REMARK    2  A    between atoms: N1_3  and  C3_4 
REMARK    3  A    between atoms: N1_3  and  C5_6 
REMARK    4  A    between atoms: C5_6  and  C7_8 
REMARK    5  A    between atoms: C8_9  and  C9_10 
REMARK       I    between atoms: C9_10  and  N2_12 
REMARK    6  A    between atoms: N2_12  and  C10_13 
REMARK    7  A    between atoms: C13_16  and  C14_17 
REMARK    8  A    between atoms: C24_31  and  O2_32 
ROOT
HETATM    1  C10 UNL     1      20.180   0.121  52.529  1.00  0.00     0.069 A 
HETATM    2  C11 UNL     1      21.530   0.386  52.606  1.00  0.00     0.046 A 
HETATM    3  C12 UNL     1      22.416  -0.174  53.488  1.00  0.00     0.004 A 
HETATM    4  C13 UNL     1      23.768   0.178  53.460  1.00  0.00    -0.012 A 
HETATM    5  C19 UNL     1      24.471  -0.506  54.423  1.00  0.00     0.070 A 
HETATM    6  C20 UNL     1      25.882  -0.313  54.570  1.00  0.00     0.101 C 
HETATM    7  N3  UNL     1      27.021  -0.172  54.702  1.00  0.00    -0.191 NA
HETATM    8  C21 UNL     1      23.922  -1.429  55.314  1.00  0.00     0.140 A 
HETATM    9  N4  UNL     1      22.616  -1.711  55.278  1.00  0.00    -0.259 NA
HETATM   10  C22 UNL     1      21.855  -1.079  54.357  1.00  0.00     0.070 A 
HETATM   11  C23 UNL     1      20.520  -1.409  54.359  1.00  0.00     0.071 A 
HETATM   12  C24 UNL     1      19.652  -0.810  53.439  1.00  0.00     0.097 A 
ENDROOT
BRANCH   4  13
HETATM   13  C14 UNL     1      24.324   1.139  52.541  1.00  0.00     0.071 A 
HETATM   14  C15 UNL     1      23.560   1.382  51.281  1.00  0.00     0.030 A 
HETATM   15  C16 UNL     1      23.189   2.647  51.164  1.00  0.00     0.135 A 
HETATM   16  F1  UNL     1      22.492   3.276  50.190  1.00  0.00    -0.205 F 
HETATM   17  C17 UNL     1      23.664   3.350  52.355  1.00  0.00     0.069 A 
HETATM   18 CL1  UNL     1      23.465   5.041  52.762  1.00  0.00    -0.081 Cl
HETATM   19  C18 UNL     1      24.313   2.494  53.156  1.00  0.00     0.013 A 
ENDBRANCH   4  13
BRANCH   1  20
HETATM   20  N2  UNL     1      19.244   0.670  51.623  1.00  0.00    -0.321 N 
HETATM   21  C9  UNL     1      19.177   1.120  50.299  1.00  0.00     0.245 C 
HETATM   22  O1  UNL     1      20.180   1.083  49.562  1.00  0.00    -0.268 OA
HETATM   23  H17 UNL     1      18.435   0.666  52.279  1.00  0.00     0.169 HD
BRANCH  21  24
HETATM   24  C8  UNL     1      17.948   1.640  49.743  1.00  0.00     0.072 C 
HETATM   25  C7  UNL     1      16.938   2.199  50.386  1.00  0.00     0.003 C 
BRANCH  25  26
HETATM   26  C5  UNL     1      15.601   2.798  50.050  1.00  0.00     0.098 C 
HETATM   27  C6  UNL     1      15.770   4.243  49.638  1.00  0.00     0.036 C 
BRANCH  26  28
HETATM   28  N1  UNL     1      14.669   2.661  51.093  1.00  0.00    -0.406 N 
BRANCH  28  29
HETATM   29  C2  UNL     1      14.452   1.377  51.634  1.00  0.00     0.113 C 
HETATM   30  C1  UNL     1      13.166   0.779  51.128  1.00  0.00     0.026 C 
ENDBRANCH  28  29
BRANCH  28  31
HETATM   31  C3  UNL     1      14.058   3.784  51.652  1.00  0.00     0.113 C 
HETATM   32  C4  UNL     1      14.265   4.009  53.131  1.00  0.00     0.026 C 
ENDBRANCH  28  31
ENDBRANCH  26  28
ENDBRANCH  25  26
ENDBRANCH  21  24
ENDBRANCH   1  20
BRANCH  12  33
HETATM   33  O2  UNL     1      18.304  -1.142  53.439  1.00  0.00    -0.354 OA
HETATM   34  C25 UNL     1      17.893  -2.470  53.666  1.00  0.00     0.210 C 
ENDBRANCH  12  33
TORSDOF 8
ENDMDL
MODEL 5
REMARK VINA RESULT:      -7.9      1.726      2.424
REMARK  8 active torsions:
REMARK  status: ('A' for Active; 'I' for Inactive)
REMARK    1  A    between atoms: C2_2  and  N1_3 
REMARK    2  A    between atoms: N1_3  and  C3_4 
REMARK    3  A    between atoms: N1_3  and  C5_6 
REMARK    4  A    between atoms: C5_6  and  C7_8 
REMARK    5  A    between atoms: C8_9  and  C9_10 
REMARK       I    between atoms: C9_10  and  N2_12 
REMARK    6  A    between atoms: N2_12  and  C10_13 
REMARK    7  A    between atoms: C13_16  and  C14_17 
REMARK    8  A    between atoms: C24_31  and  O2_32 
ROOT
HETATM    1  C10 UNL     1      23.983   1.648  51.827  1.00  0.00     0.069 A 
HETATM    2  C11 UNL     1      22.620   1.447  51.871  1.00  0.00     0.046 A 
HETATM    3  C12 UNL     1      21.969   0.473  52.580  1.00  0.00     0.004 A 
HETATM    4  C13 UNL     1      20.575   0.378  52.543  1.00  0.00    -0.012 A 
HETATM    5  C19 UNL     1      20.136  -0.661  53.329  1.00  0.00     0.070 A 
HETATM    6  C20 UNL     1      18.737  -0.940  53.454  1.00  0.00     0.101 C 
HETATM    7  N3  UNL     1      17.612  -1.178  53.568  1.00  0.00    -0.191 NA
HETATM    8  C21 UNL     1      20.958  -1.513  54.068  1.00  0.00     0.140 A 
HETATM    9  N4  UNL     1      22.285  -1.357  54.049  1.00  0.00    -0.259 NA
HETATM   10  C22 UNL     1      22.797  -0.355  53.299  1.00  0.00     0.070 A 
HETATM   11  C23 UNL     1      24.166  -0.235  53.319  1.00  0.00     0.071 A 
HETATM   12  C24 UNL     1      24.790   0.776  52.577  1.00  0.00     0.097 A 
ENDROOT
BRANCH   4  13
HETATM   13  C14 UNL     1      19.734   1.256  51.771  1.00  0.00     0.071 A 
HETATM   14  C15 UNL     1      20.026   2.718  51.866  1.00  0.00     0.030 A 
HETATM   15  C16 UNL     1      20.326   3.239  50.687  1.00  0.00     0.135 A 
HETATM   16  F1  UNL     1      20.648   4.507  50.339  1.00  0.00    -0.205 F 
HETATM   17  C17 UNL     1      20.276   2.155  49.708  1.00  0.00     0.069 A 
HETATM   18 CL1  UNL     1      20.589   2.238  47.987  1.00  0.00    -0.081 Cl
HETATM   19  C18 UNL     1      19.942   1.010  50.318  1.00  0.00     0.013 A 
ENDBRANCH   4  13
BRANCH   1  20
HETATM   20  N2  UNL     1      24.684   2.650  51.118  1.00  0.00    -0.321 N 
HETATM   21  C9  UNL     1      24.657   3.297  49.876  1.00  0.00     0.245 C 
HETATM   22  O1  UNL     1      23.796   3.005  49.024  1.00  0.00    -0.268 OA
HETATM   23  H17 UNL     1      25.371   2.863  51.871  1.00  0.00     0.169 HD
BRANCH  21  24
HETATM   24  C8  UNL     1      25.620   4.322  49.542  1.00  0.00     0.072 C 
HETATM   25  C7  UNL     1      25.419   5.436  48.861  1.00  0.00     0.003 C 
BRANCH  25  26
HETATM   26  C5  UNL     1      26.225   6.618  48.400  1.00  0.00     0.098 C 
HETATM   27  C6  UNL     1      27.699   6.282  48.429  1.00  0.00     0.036 C 
BRANCH  26  28
HETATM   28  N1  UNL     1      25.943   7.784  49.131  1.00  0.00    -0.406 N 
BRANCH  28  29
HETATM   29  C2  UNL     1      24.606   8.223  49.205  1.00  0.00     0.113 C 
HETATM   30  C1  UNL     1      24.075   8.128  50.612  1.00  0.00     0.026 C 
ENDBRANCH  28  29
BRANCH  28  31
HETATM   31  C3  UNL     1      26.947   8.427  49.858  1.00  0.00     0.113 C 
HETATM   32  C4  UNL     1      27.368   9.795  49.379  1.00  0.00     0.026 C 
ENDBRANCH  28  31
ENDBRANCH  26  28
ENDBRANCH  25  26
ENDBRANCH  21  24
ENDBRANCH   1  20
BRANCH  12  33
HETATM   33  O2  UNL     1      26.171   0.899  52.596  1.00  0.00    -0.354 OA
HETATM   34  C25 UNL     1      26.994  -0.222  52.370  1.00  0.00     0.210 C 
ENDBRANCH  12  33
TORSDOF 8
ENDMDL
MODEL 6
REMARK VINA RESULT:      -7.8      2.486      4.217
REMARK  8 active torsions:
REMARK  status: ('A' for Active; 'I' for Inactive)
REMARK    1  A    between atoms: C2_2  and  N1_3 
REMARK    2  A    between atoms: N1_3  and  C3_4 
REMARK    3  A    between atoms: N1_3  and  C5_6 
REMARK    4  A    between atoms: C5_6  and  C7_8 
REMARK    5  A    between atoms: C8_9  and  C9_10 
REMARK       I    between atoms: C9_10  and  N2_12 
REMARK    6  A    between atoms: N2_12  and  C10_13 
REMARK    7  A    between atoms: C13_16  and  C14_17 
REMARK    8  A    between atoms: C24_31  and  O2_32 
ROOT
HETATM    1  C10 UNL     1      23.718   2.774  49.972  1.00  0.00     0.069 A 
HETATM    2  C11 UNL     1      23.758   1.963  51.086  1.00  0.00     0.046 A 
HETATM    3  C12 UNL     1      22.719   1.227  51.588  1.00  0.00     0.004 A 
HETATM    4  C13 UNL     1      22.892   0.436  52.729  1.00  0.00    -0.012 A 
HETATM    5  C19 UNL     1      21.726  -0.218  53.051  1.00  0.00     0.070 A 
HETATM    6  C20 UNL     1      21.672  -1.097  54.180  1.00  0.00     0.101 C 
HETATM    7  N3  UNL     1      21.610  -1.811  55.085  1.00  0.00    -0.191 NA
HETATM    8  C21 UNL     1      20.527  -0.115  52.345  1.00  0.00     0.140 A 
HETATM    9  N4  UNL     1      20.442   0.665  51.263  1.00  0.00    -0.259 NA
HETATM   10  C22 UNL     1      21.547   1.342  50.880  1.00  0.00     0.070 A 
HETATM   11  C23 UNL     1      21.407   2.125  49.759  1.00  0.00     0.071 A 
HETATM   12  C24 UNL     1      22.498   2.862  49.281  1.00  0.00     0.097 A 
ENDROOT
BRANCH   4  13
HETATM   13  C14 UNL     1      24.132   0.344  53.456  1.00  0.00     0.071 A 
HETATM   14  C15 UNL     1      25.084  -0.723  53.025  1.00  0.00     0.030 A 
HETATM   15  C16 UNL     1      26.247  -0.222  52.641  1.00  0.00     0.135 A 
HETATM   16  F1  UNL     1      27.365  -0.835  52.185  1.00  0.00    -0.205 F 
HETATM   17  C17 UNL     1      26.156   1.232  52.768  1.00  0.00     0.069 A 
HETATM   18 CL1  UNL     1      27.381   2.427  52.398  1.00  0.00    -0.081 Cl
HETATM   19  C18 UNL     1      24.945   1.570  53.230  1.00  0.00     0.013 A 
ENDBRANCH   4  13
BRANCH   1  20
HETATM   20  N2  UNL     1      24.775   3.534  49.420  1.00  0.00    -0.321 N 
HETATM   21  C9  UNL     1      25.495   4.706  49.679  1.00  0.00     0.245 C 
HETATM   22  O1  UNL     1      25.239   5.405  50.678  1.00  0.00    -0.268 OA
HETATM   23  H17 UNL     1      24.954   2.906  48.609  1.00  0.00     0.169 HD
BRANCH  21  24
HETATM   24  C8  UNL     1      26.557   5.144  48.801  1.00  0.00     0.072 C 
HETATM   25  C7  UNL     1      26.924   6.382  48.523  1.00  0.00     0.003 C 
BRANCH  25  26
HETATM   26  C5  UNL     1      27.957   7.072  47.675  1.00  0.00     0.098 C 
HETATM   27  C6  UNL     1      29.109   7.533  48.538  1.00  0.00     0.036 C 
BRANCH  26  28
HETATM   28  N1  UNL     1      27.419   8.128  46.920  1.00  0.00    -0.406 N 
BRANCH  28  29
HETATM   29  C2  UNL     1      26.038   8.392  47.023  1.00  0.00     0.113 C 
HETATM   30  C1  UNL     1      25.388   8.451  45.665  1.00  0.00     0.026 C 
ENDBRANCH  28  29
BRANCH  28  31
HETATM   31  C3  UNL     1      28.251   8.964  46.174  1.00  0.00     0.113 C 
HETATM   32  C4  UNL     1      29.030   8.325  45.048  1.00  0.00     0.026 C 
ENDBRANCH  28  31
ENDBRANCH  26  28
ENDBRANCH  25  26
ENDBRANCH  21  24
ENDBRANCH   1  20
BRANCH  12  33
HETATM   33  O2  UNL     1      22.359   3.652  48.149  1.00  0.00    -0.354 OA
HETATM   34  C25 UNL     1      22.077   3.070  46.898  1.00  0.00     0.210 C 
ENDBRANCH  12  33
TORSDOF 8
ENDMDL
MODEL 7
REMARK VINA RESULT:      -7.5      4.761      8.031
REMARK  8 active torsions:
REMARK  status: ('A' for Active; 'I' for Inactive)
REMARK    1  A    between atoms: C2_2  and  N1_3 
REMARK    2  A    between atoms: N1_3  and  C3_4 
REMARK    3  A    between atoms: N1_3  and  C5_6 
REMARK    4  A    between atoms: C5_6  and  C7_8 
REMARK    5  A    between atoms: C8_9  and  C9_10 
REMARK       I    between atoms: C9_10  and  N2_12 
REMARK    6  A    between atoms: N2_12  and  C10_13 
REMARK    7  A    between atoms: C13_16  and  C14_17 
REMARK    8  A    between atoms: C24_31  and  O2_32 
ROOT
HETATM    1  C10 UNL     1      20.315   0.533  52.636  1.00  0.00     0.069 A 
HETATM    2  C11 UNL     1      21.681   0.714  52.695  1.00  0.00     0.046 A 
HETATM    3  C12 UNL     1      22.550   0.046  53.515  1.00  0.00     0.004 A 
HETATM    4  C13 UNL     1      23.920   0.320  53.475  1.00  0.00    -0.012 A 
HETATM    5  C19 UNL     1      24.603  -0.467  54.372  1.00  0.00     0.070 A 
HETATM    6  C20 UNL     1      26.025  -0.366  54.495  1.00  0.00     0.101 C 
HETATM    7  N3  UNL     1      27.173  -0.301  54.606  1.00  0.00    -0.191 NA
HETATM    8  C21 UNL     1      24.019  -1.415  55.214  1.00  0.00     0.140 A 
HETATM    9  N4  UNL     1      22.699  -1.618  55.193  1.00  0.00    -0.259 NA
HETATM   10  C22 UNL     1      21.956  -0.882  54.336  1.00  0.00     0.070 A 
HETATM   11  C23 UNL     1      20.604  -1.133  54.351  1.00  0.00     0.071 A 
HETATM   12  C24 UNL     1      19.753  -0.425  53.495  1.00  0.00     0.097 A 
ENDROOT
BRANCH   4  13
HETATM   13  C14 UNL     1      24.512   1.307  52.608  1.00  0.00     0.071 A 
HETATM   14  C15 UNL     1      23.848   1.525  51.288  1.00  0.00     0.030 A 
HETATM   15  C16 UNL     1      23.437   2.774  51.142  1.00  0.00     0.135 A 
HETATM   16  F1  UNL     1      22.799   3.379  50.113  1.00  0.00    -0.205 F 
HETATM   17  C17 UNL     1      23.780   3.490  52.369  1.00  0.00     0.069 A 
HETATM   18 CL1  UNL     1      23.479   5.170  52.761  1.00  0.00    -0.081 Cl
HETATM   19  C18 UNL     1      24.394   2.658  53.222  1.00  0.00     0.013 A 
ENDBRANCH   4  13
BRANCH   1  20
HETATM   20  N2  UNL     1      19.394   1.196  51.792  1.00  0.00    -0.321 N 
HETATM   21  C9  UNL     1      18.875   2.479  51.577  1.00  0.00     0.245 C 
HETATM   22  O1  UNL     1      19.254   3.444  52.267  1.00  0.00    -0.268 OA
HETATM   23  H17 UNL     1      19.124   0.357  51.238  1.00  0.00     0.169 HD
BRANCH  21  24
HETATM   24  C8  UNL     1      17.889   2.727  50.549  1.00  0.00     0.072 C 
HETATM   25  C7  UNL     1      17.912   2.334  49.289  1.00  0.00     0.003 C 
BRANCH  25  26
HETATM   26  C5  UNL     1      17.041   2.457  48.069  1.00  0.00     0.098 C 
HETATM   27  C6  UNL     1      17.611   3.495  47.129  1.00  0.00     0.036 C 
BRANCH  26  28
HETATM   28  N1  UNL     1      15.699   2.726  48.387  1.00  0.00    -0.406 N 
BRANCH  28  29
HETATM   29  C2  UNL     1      15.231   4.050  48.263  1.00  0.00     0.113 C 
HETATM   30  C1  UNL     1      14.616   4.536  49.549  1.00  0.00     0.026 C 
ENDBRANCH  28  29
BRANCH  28  31
HETATM   31  C3  UNL     1      14.823   1.687  48.710  1.00  0.00     0.113 C 
HETATM   32  C4  UNL     1      14.362   0.806  47.574  1.00  0.00     0.026 C 
ENDBRANCH  28  31
ENDBRANCH  26  28
ENDBRANCH  25  26
ENDBRANCH  21  24
ENDBRANCH   1  20
BRANCH  12  33
HETATM   33  O2  UNL     1      18.388  -0.677  53.508  1.00  0.00    -0.354 OA
HETATM   34  C25 UNL     1      17.905  -2.000  53.540  1.00  0.00     0.210 C 
ENDBRANCH  12  33
TORSDOF 8
ENDMDL
MODEL 8
REMARK VINA RESULT:      -7.5      2.644      3.347
REMARK  8 active torsions:
REMARK  status: ('A' for Active; 'I' for Inactive)
REMARK    1  A    between atoms: C2_2  and  N1_3 
REMARK    2  A    between atoms: N1_3  and  C3_4 
REMARK    3  A    between atoms: N1_3  and  C5_6 
REMARK    4  A    between atoms: C5_6  and  C7_8 
REMARK    5  A    between atoms: C8_9  and  C9_10 
REMARK       I    between atoms: C9_10  and  N2_12 
REMARK    6  A    between atoms: N2_12  and  C10_13 
REMARK    7  A    between atoms: C13_16  and  C14_17 
REMARK    8  A    between atoms: C24_31  and  O2_32 
ROOT
HETATM    1  C10 UNL     1      23.784   1.364  51.655  1.00  0.00     0.069 A 
HETATM    2  C11 UNL     1      22.420   1.199  51.545  1.00  0.00     0.046 A 
HETATM    3  C12 UNL     1      21.643   0.363  52.301  1.00  0.00     0.004 A 
HETATM    4  C13 UNL     1      20.263   0.290  52.091  1.00  0.00    -0.012 A 
HETATM    5  C19 UNL     1      19.683  -0.603  52.961  1.00  0.00     0.070 A 
HETATM    6  C20 UNL     1      18.270  -0.832  52.937  1.00  0.00     0.101 C 
HETATM    7  N3  UNL     1      17.132  -1.027  52.934  1.00  0.00    -0.191 NA
HETATM    8  C21 UNL     1      20.368  -1.343  53.926  1.00  0.00     0.140 A 
HETATM    9  N4  UNL     1      21.691  -1.217  54.063  1.00  0.00    -0.259 NA
HETATM   10  C22 UNL     1      22.336  -0.357  53.244  1.00  0.00     0.070 A 
HETATM   11  C23 UNL     1      23.695  -0.262  53.430  1.00  0.00     0.071 A 
HETATM   12  C24 UNL     1      24.450   0.607  52.633  1.00  0.00     0.097 A 
ENDROOT
BRANCH   4  13
HETATM   13  C14 UNL     1      19.567   1.051  51.086  1.00  0.00     0.071 A 
HETATM   14  C15 UNL     1      18.374   0.405  50.462  1.00  0.00     0.030 A 
HETATM   15  C16 UNL     1      17.273   1.114  50.650  1.00  0.00     0.135 A 
HETATM   16  F1  UNL     1      15.998   0.887  50.255  1.00  0.00    -0.205 F 
HETATM   17  C17 UNL     1      17.643   2.289  51.437  1.00  0.00     0.069 A 
HETATM   18 CL1  UNL     1      16.606   3.583  52.000  1.00  0.00    -0.081 Cl
HETATM   19  C18 UNL     1      18.957   2.262  51.698  1.00  0.00     0.013 A 
ENDBRANCH   4  13
BRANCH   1  20
HETATM   20  N2  UNL     1      24.611   2.228  50.901  1.00  0.00    -0.321 N 
HETATM   21  C9  UNL     1      24.863   3.597  50.742  1.00  0.00     0.245 C 
HETATM   22  O1  UNL     1      24.241   4.441  51.413  1.00  0.00    -0.268 OA
HETATM   23  H17 UNL     1      25.109   1.479  50.376  1.00  0.00     0.169 HD
BRANCH  21  24
HETATM   24  C8  UNL     1      25.850   4.074  49.799  1.00  0.00     0.072 C 
HETATM   25  C7  UNL     1      26.063   5.316  49.404  1.00  0.00     0.003 C 
BRANCH  25  26
HETATM   26  C5  UNL     1      26.992   6.042  48.471  1.00  0.00     0.098 C 
HETATM   27  C6  UNL     1      28.326   5.334  48.415  1.00  0.00     0.036 C 
BRANCH  26  28
HETATM   28  N1  UNL     1      27.138   7.400  48.802  1.00  0.00    -0.406 N 
BRANCH  28  29
HETATM   29  C2  UNL     1      27.876   8.228  47.932  1.00  0.00     0.113 C 
HETATM   30  C1  UNL     1      27.226   8.315  46.576  1.00  0.00     0.026 C 
ENDBRANCH  28  29
BRANCH  28  31
HETATM   31  C3  UNL     1      26.474   7.938  49.906  1.00  0.00     0.113 C 
HETATM   32  C4  UNL     1      25.297   8.841  49.622  1.00  0.00     0.026 C 
ENDBRANCH  28  31
ENDBRANCH  26  28
ENDBRANCH  25  26
ENDBRANCH  21  24
ENDBRANCH   1  20
BRANCH  12  33
HETATM   33  O2  UNL     1      25.821   0.704  52.819  1.00  0.00    -0.354 OA
HETATM   34  C25 UNL     1      26.657  -0.405  52.588  1.00  0.00     0.210 C 
ENDBRANCH  12  33
TORSDOF 8
ENDMDL
MODEL 9
REMARK VINA RESULT:      -7.5      1.937      2.378
REMARK  8 active torsions:
REMARK  status: ('A' for Active; 'I' for Inactive)
REMARK    1  A    between atoms: C2_2  and  N1_3 
REMARK    2  A    between atoms: N1_3  and  C3_4 
REMARK    3  A    between atoms: N1_3  and  C5_6 
REMARK    4  A    between atoms: C5_6  and  C7_8 
REMARK    5  A    between atoms: C8_9  and  C9_10 
REMARK       I    between atoms: C9_10  and  N2_12 
REMARK    6  A    between atoms: N2_12  and  C10_13 
REMARK    7  A    between atoms: C13_16  and  C14_17 
REMARK    8  A    between atoms: C24_31  and  O2_32 
ROOT
HETATM    1  C10 UNL     1      25.494   2.488  51.019  1.00  0.00     0.069 A 
HETATM    2  C11 UNL     1      24.163   2.133  51.042  1.00  0.00     0.046 A 
HETATM    3  C12 UNL     1      23.560   1.315  51.960  1.00  0.00     0.004 A 
HETATM    4  C13 UNL     1      22.193   1.034  51.874  1.00  0.00    -0.012 A 
HETATM    5  C19 UNL     1      21.800   0.202  52.895  1.00  0.00     0.070 A 
HETATM    6  C20 UNL     1      20.434  -0.210  53.015  1.00  0.00     0.101 C 
HETATM    7  N3  UNL     1      19.337  -0.551  53.130  1.00  0.00    -0.191 NA
HETATM    8  C21 UNL     1      22.641  -0.303  53.888  1.00  0.00     0.140 A 
HETATM    9  N4  UNL     1      23.940   0.012  53.900  1.00  0.00    -0.259 NA
HETATM   10  C22 UNL     1      24.405   0.828  52.928  1.00  0.00     0.070 A 
HETATM   11  C23 UNL     1      25.746   1.124  52.989  1.00  0.00     0.071 A 
HETATM   12  C24 UNL     1      26.320   1.966  52.028  1.00  0.00     0.097 A 
ENDROOT
BRANCH   4  13
HETATM   13  C14 UNL     1      21.335   1.552  50.839  1.00  0.00     0.071 A 
HETATM   14  C15 UNL     1      20.408   0.580  50.187  1.00  0.00     0.030 A 
HETATM   15  C16 UNL     1      19.141   0.931  50.335  1.00  0.00     0.135 A 
HETATM   16  F1  UNL     1      18.004   0.335  49.904  1.00  0.00    -0.205 F 
HETATM   17  C17 UNL     1      19.120   2.165  51.119  1.00  0.00     0.069 A 
HETATM   18 CL1  UNL     1      17.729   3.094  51.636  1.00  0.00    -0.081 Cl
HETATM   19  C18 UNL     1      20.374   2.530  51.419  1.00  0.00     0.013 A 
ENDBRANCH   4  13
BRANCH   1  20
HETATM   20  N2  UNL     1      26.143   3.341  50.096  1.00  0.00    -0.321 N 
HETATM   21  C9  UNL     1      26.057   4.651  49.609  1.00  0.00     0.245 C 
HETATM   22  O1  UNL     1      25.185   5.432  50.033  1.00  0.00    -0.268 OA
HETATM   23  H17 UNL     1      26.858   2.650  49.787  1.00  0.00     0.169 HD
BRANCH  21  24
HETATM   24  C8  UNL     1      26.974   5.140  48.604  1.00  0.00     0.072 C 
HETATM   25  C7  UNL     1      27.919   6.051  48.741  1.00  0.00     0.003 C 
BRANCH  25  26
HETATM   26  C5  UNL     1      28.965   6.707  47.881  1.00  0.00     0.098 C 
HETATM   27  C6  UNL     1      30.234   5.887  47.895  1.00  0.00     0.036 C 
BRANCH  26  28
HETATM   28  N1  UNL     1      29.205   8.043  48.246  1.00  0.00    -0.406 N 
BRANCH  28  29
HETATM   29  C2  UNL     1      28.174   8.759  48.889  1.00  0.00     0.113 C 
HETATM   30  C1  UNL     1      27.532   9.752  47.955  1.00  0.00     0.026 C 
ENDBRANCH  28  29
BRANCH  28  31
HETATM   31  C3  UNL     1      30.470   8.609  48.077  1.00  0.00     0.113 C 
HETATM   32  C4  UNL     1      31.081   9.285  49.281  1.00  0.00     0.026 C 
ENDBRANCH  28  31
ENDBRANCH  26  28
ENDBRANCH  25  26
ENDBRANCH  21  24
ENDBRANCH   1  20
BRANCH  12  33
HETATM   33  O2  UNL     1      27.673   2.266  52.088  1.00  0.00    -0.354 OA
HETATM   34  C25 UNL     1      28.428   1.948  53.234  1.00  0.00     0.210 C 
ENDBRANCH  12  33
TORSDOF 8
ENDMDL
