MODEL 1
REMARK VINA RESULT:      -8.6      0.000      0.000
REMARK  7 active torsions:
REMARK  status: ('A' for Active; 'I' for Inactive)
REMARK    1  A    between atoms: C2_2  and  C3_3 
REMARK       I    between atoms: C3_3  and  N1_5 
REMARK    2  A    between atoms: N1_5  and  C4_6 
REMARK    3  A    between atoms: C8_10  and  N2_11 
REMARK    4  A    between atoms: N2_11  and  C9_12 
REMARK    5  A    between atoms: C10_14  and  N4_15 
REMARK    6  A    between atoms: N4_15  and  C11_16 
REMARK    7  A    between atoms: C15_21  and  C16_22 
ROOT
HETATM    1  C9  UNL     1      24.582   0.259  53.461  1.00  0.00     0.164 A 
HETATM    2  N3  UNL     1      25.851   0.426  53.848  1.00  0.00    -0.044 NA
HETATM    3  C10 UNL     1      26.422  -0.131  54.924  1.00  0.00     0.728 A 
HETATM    4  N5  UNL     1      25.655  -0.931  55.686  1.00  0.00    -0.074 NA
HETATM    5  C14 UNL     1      24.371  -1.170  55.393  1.00  0.00     0.156 A 
HETATM    6  C15 UNL     1      23.844  -0.566  54.272  1.00  0.00     0.112 A 
ENDROOT
BRANCH   1   7
HETATM    7  N2  UNL     1      23.983   0.852  52.324  1.00  0.00    -0.340 N 
HETATM    8  H8  UNL     1      23.611   0.197  51.588  1.00  0.00     0.167 HD
BRANCH   7   9
HETATM    9  C8  UNL     1      23.813   2.230  52.043  1.00  0.00     0.035 A 
HETATM   10  C7  UNL     1      22.723   2.996  52.385  1.00  0.00     0.029 A 
HETATM   11  C6  UNL     1      22.570   4.334  52.106  1.00  0.00     0.004 A 
HETATM   12  C5  UNL     1      23.582   4.983  51.428  1.00  0.00     0.029 A 
HETATM   13  C4  UNL     1      24.698   4.263  51.060  1.00  0.00     0.037 A 
HETATM   14  C17 UNL     1      24.787   2.934  51.368  1.00  0.00     0.059 A 
BRANCH  13  15
HETATM   15  N1  UNL     1      25.752   4.915  50.358  1.00  0.00    -0.324 N 
HETATM   16  C3  UNL     1      25.727   5.642  49.136  1.00  0.00     0.244 C 
HETATM   17  O1  UNL     1      24.756   5.886  48.373  1.00  0.00    -0.268 OA
HETATM   18  H4  UNL     1      26.626   4.793  50.883  1.00  0.00     0.169 HD
BRANCH  16  19
HETATM   19  C2  UNL     1      26.995   6.196  48.679  1.00  0.00     0.064 C 
HETATM   20  C1  UNL     1      27.920   5.275  48.470  1.00  0.00     0.017 C 
ENDBRANCH  16  19
ENDBRANCH  13  15
ENDBRANCH   7   9
ENDBRANCH   1   7
BRANCH   6  21
HETATM   21  C16 UNL     1      22.419  -0.843  53.954  1.00  0.00     0.422 C 
HETATM   22  F1  UNL     1      22.232  -1.325  52.674  1.00  0.00    -0.166 F 
HETATM   23  F2  UNL     1      21.903  -1.797  54.804  1.00  0.00    -0.166 F 
HETATM   24  F3  UNL     1      21.656   0.298  54.159  1.00  0.00    -0.166 F 
ENDBRANCH   6  21
BRANCH   3  25
HETATM   25  N4  UNL     1      27.778   0.121  55.235  1.00  0.00    -0.192 N 
HETATM   26  H9  UNL     1      28.026   0.578  56.135  1.00  0.00     0.184 HD
BRANCH  25  27
HETATM   27  C11 UNL     1      28.770  -0.262  54.293  1.00  0.00     0.026 A 
HETATM   28  C12 UNL     1      29.212  -1.327  53.492  1.00  0.00     0.005 A 
HETATM   29  C13 UNL     1      29.937  -0.019  53.483  1.00  0.00     0.086 A 
ENDBRANCH  25  27
ENDBRANCH   3  25
TORSDOF 7
ENDMDL
MODEL 2
REMARK VINA RESULT:      -8.2      2.409      6.078
REMARK  7 active torsions:
REMARK  status: ('A' for Active; 'I' for Inactive)
REMARK    1  A    between atoms: C2_2  and  C3_3 
REMARK       I    between atoms: C3_3  and  N1_5 
REMARK    2  A    between atoms: N1_5  and  C4_6 
REMARK    3  A    between atoms: C8_10  and  N2_11 
REMARK    4  A    between atoms: N2_11  and  C9_12 
REMARK    5  A    between atoms: C10_14  and  N4_15 
REMARK    6  A    between atoms: N4_15  and  C11_16 
REMARK    7  A    between atoms: C15_21  and  C16_22 
ROOT
HETATM    1  C9  UNL     1      22.597   2.239  51.856  1.00  0.00     0.164 A 
HETATM    2  N3  UNL     1      23.679   2.973  51.575  1.00  0.00    -0.044 NA
HETATM    3  C10 UNL     1      23.694   4.294  51.358  1.00  0.00     0.728 A 
HETATM    4  N5  UNL     1      22.519   4.946  51.427  1.00  0.00    -0.074 NA
HETATM    5  C14 UNL     1      21.374   4.312  51.701  1.00  0.00     0.156 A 
HETATM    6  C15 UNL     1      21.426   2.951  51.915  1.00  0.00     0.112 A 
ENDROOT
BRANCH   1   7
HETATM    7  N2  UNL     1      22.587   0.841  52.082  1.00  0.00    -0.340 N 
HETATM    8  H8  UNL     1      22.139   0.244  51.339  1.00  0.00     0.167 HD
BRANCH   7   9
HETATM    9  C8  UNL     1      23.110   0.130  53.190  1.00  0.00     0.035 A 
HETATM   10  C7  UNL     1      22.375  -0.502  54.164  1.00  0.00     0.029 A 
HETATM   11  C6  UNL     1      22.895  -1.190  55.236  1.00  0.00     0.004 A 
HETATM   12  C5  UNL     1      24.267  -1.265  55.364  1.00  0.00     0.029 A 
HETATM   13  C4  UNL     1      25.054  -0.649  54.414  1.00  0.00     0.037 A 
HETATM   14  C17 UNL     1      24.472   0.019  53.373  1.00  0.00     0.059 A 
BRANCH  13  15
HETATM   15  N1  UNL     1      26.471  -0.715  54.529  1.00  0.00    -0.324 N 
HETATM   16  C3  UNL     1      27.436   0.329  54.593  1.00  0.00     0.244 C 
HETATM   17  O1  UNL     1      27.264   1.575  54.563  1.00  0.00    -0.268 OA
HETATM   18  H4  UNL     1      26.757  -1.701  54.565  1.00  0.00     0.169 HD
BRANCH  16  19
HETATM   19  C2  UNL     1      28.831  -0.076  54.711  1.00  0.00     0.064 C 
HETATM   20  C1  UNL     1      29.540   0.177  53.624  1.00  0.00     0.017 C 
ENDBRANCH  16  19
ENDBRANCH  13  15
ENDBRANCH   7   9
ENDBRANCH   1   7
BRANCH   6  21
HETATM   21  C16 UNL     1      20.149   2.258  52.224  1.00  0.00     0.422 C 
HETATM   22  F1  UNL     1      20.128   1.693  53.483  1.00  0.00    -0.166 F 
HETATM   23  F2  UNL     1      19.089   3.139  52.179  1.00  0.00    -0.166 F 
HETATM   24  F3  UNL     1      19.881   1.299  51.257  1.00  0.00    -0.166 F 
ENDBRANCH   6  21
BRANCH   3  25
HETATM   25  N4  UNL     1      24.904   4.966  51.068  1.00  0.00    -0.192 N 
HETATM   26  H9  UNL     1      25.115   5.875  51.526  1.00  0.00     0.184 HD
BRANCH  25  27
HETATM   27  C11 UNL     1      25.805   4.368  50.145  1.00  0.00     0.026 A 
HETATM   28  C12 UNL     1      26.673   4.646  49.078  1.00  0.00     0.005 A 
HETATM   29  C13 UNL     1      26.500   3.245  49.571  1.00  0.00     0.086 A 
ENDBRANCH  25  27
ENDBRANCH   3  25
TORSDOF 7
ENDMDL
MODEL 3
REMARK VINA RESULT:      -8.1      2.627      3.570
REMARK  7 active torsions:
REMARK  status: ('A' for Active; 'I' for Inactive)
REMARK    1  A    between atoms: C2_2  and  C3_3 
REMARK       I    between atoms: C3_3  and  N1_5 
REMARK    2  A    between atoms: N1_5  and  C4_6 
REMARK    3  A    between atoms: C8_10  and  N2_11 
REMARK    4  A    between atoms: N2_11  and  C9_12 
REMARK    5  A    between atoms: C10_14  and  N4_15 
REMARK    6  A    between atoms: N4_15  and  C11_16 
REMARK    7  A    between atoms: C15_21  and  C16_22 
ROOT
HETATM    1  C9  UNL     1      24.583   0.415  53.411  1.00  0.00     0.164 A 
HETATM    2  N3  UNL     1      25.861   0.634  53.738  1.00  0.00    -0.044 NA
HETATM    3  C10 UNL     1      26.519   0.063  54.755  1.00  0.00     0.728 A 
HETATM    4  N5  UNL     1      25.838  -0.810  55.520  1.00  0.00    -0.074 NA
HETATM    5  C14 UNL     1      24.555  -1.105  55.284  1.00  0.00     0.156 A 
HETATM    6  C15 UNL     1      23.935  -0.483  54.221  1.00  0.00     0.112 A 
ENDROOT
BRANCH   1   7
HETATM    7  N2  UNL     1      23.892   1.024  52.336  1.00  0.00    -0.340 N 
HETATM    8  H8  UNL     1      23.723   0.428  51.484  1.00  0.00     0.167 HD
BRANCH   7   9
HETATM    9  C8  UNL     1      23.389   2.345  52.255  1.00  0.00     0.035 A 
HETATM   10  C7  UNL     1      23.946   3.458  52.839  1.00  0.00     0.029 A 
HETATM   11  C6  UNL     1      23.447   4.738  52.753  1.00  0.00     0.004 A 
HETATM   12  C5  UNL     1      22.294   4.944  52.025  1.00  0.00     0.029 A 
HETATM   13  C4  UNL     1      21.693   3.863  51.418  1.00  0.00     0.037 A 
HETATM   14  C17 UNL     1      22.240   2.616  51.543  1.00  0.00     0.059 A 
BRANCH  13  15
HETATM   15  N1  UNL     1      20.501   4.057  50.663  1.00  0.00    -0.324 N 
HETATM   16  C3  UNL     1      19.138   3.919  51.049  1.00  0.00     0.244 C 
HETATM   17  O1  UNL     1      18.656   3.589  52.163  1.00  0.00    -0.268 OA
HETATM   18  H4  UNL     1      20.753   4.337  49.708  1.00  0.00     0.169 HD
BRANCH  16  19
HETATM   19  C2  UNL     1      18.138   4.194  50.026  1.00  0.00     0.064 C 
HETATM   20  C1  UNL     1      18.478   5.183  49.218  1.00  0.00     0.017 C 
ENDBRANCH  16  19
ENDBRANCH  13  15
ENDBRANCH   7   9
ENDBRANCH   1   7
BRANCH   6  21
HETATM   21  C16 UNL     1      22.511  -0.823  53.966  1.00  0.00     0.422 C 
HETATM   22  F1  UNL     1      22.281  -1.268  52.680  1.00  0.00    -0.166 F 
HETATM   23  F2  UNL     1      22.091  -1.834  54.804  1.00  0.00    -0.166 F 
HETATM   24  F3  UNL     1      21.703   0.267  54.255  1.00  0.00    -0.166 F 
ENDBRANCH   6  21
BRANCH   3  25
HETATM   25  N4  UNL     1      27.875   0.375  55.005  1.00  0.00    -0.192 N 
HETATM   26  H9  UNL     1      28.122   1.028  55.776  1.00  0.00     0.184 HD
BRANCH  25  27
HETATM   27  C11 UNL     1      28.869  -0.221  54.183  1.00  0.00     0.026 A 
HETATM   28  C12 UNL     1      29.167  -1.365  53.427  1.00  0.00     0.005 A 
HETATM   29  C13 UNL     1      30.148  -0.239  53.521  1.00  0.00     0.086 A 
ENDBRANCH  25  27
ENDBRANCH   3  25
TORSDOF 7
ENDMDL
MODEL 4
REMARK VINA RESULT:      -7.9      2.931      4.372
REMARK  7 active torsions:
REMARK  status: ('A' for Active; 'I' for Inactive)
REMARK    1  A    between atoms: C2_2  and  C3_3 
REMARK       I    between atoms: C3_3  and  N1_5 
REMARK    2  A    between atoms: N1_5  and  C4_6 
REMARK    3  A    between atoms: C8_10  and  N2_11 
REMARK    4  A    between atoms: N2_11  and  C9_12 
REMARK    5  A    between atoms: C10_14  and  N4_15 
REMARK    6  A    between atoms: N4_15  and  C11_16 
REMARK    7  A    between atoms: C15_21  and  C16_22 
ROOT
HETATM    1  C9  UNL     1      26.266   2.814  51.282  1.00  0.00     0.164 A 
HETATM    2  N3  UNL     1      27.379   2.575  51.984  1.00  0.00    -0.044 NA
HETATM    3  C10 UNL     1      27.432   2.233  53.277  1.00  0.00     0.728 A 
HETATM    4  N5  UNL     1      26.264   2.118  53.935  1.00  0.00    -0.074 NA
HETATM    5  C14 UNL     1      25.089   2.335  53.332  1.00  0.00     0.156 A 
HETATM    6  C15 UNL     1      25.103   2.684  51.999  1.00  0.00     0.112 A 
ENDROOT
BRANCH   1   7
HETATM    7  N2  UNL     1      26.216   3.178  49.915  1.00  0.00    -0.340 N 
HETATM    8  H8  UNL     1      25.857   2.449  49.244  1.00  0.00     0.167 HD
BRANCH   7   9
HETATM    9  C8  UNL     1      26.589   4.409  49.323  1.00  0.00     0.035 A 
HETATM   10  C7  UNL     1      25.787   5.519  49.196  1.00  0.00     0.029 A 
HETATM   11  C6  UNL     1      26.161   6.711  48.618  1.00  0.00     0.004 A 
HETATM   12  C5  UNL     1      27.442   6.823  48.118  1.00  0.00     0.029 A 
HETATM   13  C4  UNL     1      28.289   5.741  48.219  1.00  0.00     0.037 A 
HETATM   14  C17 UNL     1      27.854   4.585  48.805  1.00  0.00     0.059 A 
BRANCH  13  15
HETATM   15  N1  UNL     1      29.615   5.839  47.709  1.00  0.00    -0.324 N 
HETATM   16  C3  UNL     1      30.865   5.733  48.379  1.00  0.00     0.244 C 
HETATM   17  O1  UNL     1      31.101   5.527  49.598  1.00  0.00    -0.268 OA
HETATM   18  H4  UNL     1      29.570   6.011  46.698  1.00  0.00     0.169 HD
BRANCH  16  19
HETATM   19  C2  UNL     1      32.061   5.883  47.560  1.00  0.00     0.064 C 
HETATM   20  C1  UNL     1      32.948   4.922  47.754  1.00  0.00     0.017 C 
ENDBRANCH  16  19
ENDBRANCH  13  15
ENDBRANCH   7   9
ENDBRANCH   1   7
BRANCH   6  21
HETATM   21  C16 UNL     1      23.792   2.916  51.339  1.00  0.00     0.422 C 
HETATM   22  F1  UNL     1      23.636   2.195  50.173  1.00  0.00    -0.166 F 
HETATM   23  F2  UNL     1      22.754   2.542  52.166  1.00  0.00    -0.166 F 
HETATM   24  F3  UNL     1      23.613   4.271  51.100  1.00  0.00    -0.166 F 
ENDBRANCH   6  21
BRANCH   3  25
HETATM   25  N4  UNL     1      28.673   2.004  53.914  1.00  0.00    -0.192 N 
HETATM   26  H9  UNL     1      29.148   2.782  54.415  1.00  0.00     0.184 HD
BRANCH  25  27
HETATM   27  C11 UNL     1      29.238   0.703  53.848  1.00  0.00     0.026 A 
HETATM   28  C12 UNL     1      29.063  -0.624  54.272  1.00  0.00     0.005 A 
HETATM   29  C13 UNL     1      30.233  -0.247  53.420  1.00  0.00     0.086 A 
ENDBRANCH  25  27
ENDBRANCH   3  25
TORSDOF 7
ENDMDL
MODEL 5
REMARK VINA RESULT:      -7.9      3.204      6.066
REMARK  7 active torsions:
REMARK  status: ('A' for Active; 'I' for Inactive)
REMARK    1  A    between atoms: C2_2  and  C3_3 
REMARK       I    between atoms: C3_3  and  N1_5 
REMARK    2  A    between atoms: N1_5  and  C4_6 
REMARK    3  A    between atoms: C8_10  and  N2_11 
REMARK    4  A    between atoms: N2_11  and  C9_12 
REMARK    5  A    between atoms: C10_14  and  N4_15 
REMARK    6  A    between atoms: N4_15  and  C11_16 
REMARK    7  A    between atoms: C15_21  and  C16_22 
ROOT
HETATM    1  C9  UNL     1      25.698   0.729  52.472  1.00  0.00     0.164 A 
HETATM    2  N3  UNL     1      25.337   1.510  51.447  1.00  0.00    -0.044 NA
HETATM    3  C10 UNL     1      26.037   2.545  50.967  1.00  0.00     0.728 A 
HETATM    4  N5  UNL     1      27.208   2.831  51.564  1.00  0.00    -0.074 NA
HETATM    5  C14 UNL     1      27.667   2.116  52.598  1.00  0.00     0.156 A 
HETATM    6  C15 UNL     1      26.898   1.062  53.045  1.00  0.00     0.112 A 
ENDROOT
BRANCH   1   7
HETATM    7  N2  UNL     1      24.952  -0.363  52.977  1.00  0.00    -0.340 N 
HETATM    8  H8  UNL     1      25.450  -1.289  53.038  1.00  0.00     0.167 HD
BRANCH   7   9
HETATM    9  C8  UNL     1      23.607  -0.374  53.420  1.00  0.00     0.035 A 
HETATM   10  C7  UNL     1      23.152  -0.897  54.607  1.00  0.00     0.029 A 
HETATM   11  C6  UNL     1      21.841  -0.902  55.026  1.00  0.00     0.004 A 
HETATM   12  C5  UNL     1      20.887  -0.340  54.203  1.00  0.00     0.029 A 
HETATM   13  C4  UNL     1      21.288   0.200  53.000  1.00  0.00     0.037 A 
HETATM   14  C17 UNL     1      22.607   0.172  52.643  1.00  0.00     0.059 A 
BRANCH  13  15
HETATM   15  N1  UNL     1      20.318   0.784  52.136  1.00  0.00    -0.324 N 
HETATM   16  C3  UNL     1      19.812   2.113  52.091  1.00  0.00     0.244 C 
HETATM   17  O1  UNL     1      20.104   3.101  52.813  1.00  0.00    -0.268 OA
HETATM   18  H4  UNL     1      19.985   0.070  51.478  1.00  0.00     0.169 HD
BRANCH  16  19
HETATM   19  C2  UNL     1      18.809   2.397  51.072  1.00  0.00     0.064 C 
HETATM   20  C1  UNL     1      19.104   1.876  49.893  1.00  0.00     0.017 C 
ENDBRANCH  16  19
ENDBRANCH  13  15
ENDBRANCH   7   9
ENDBRANCH   1   7
BRANCH   6  21
HETATM   21  C16 UNL     1      27.421   0.273  54.190  1.00  0.00     0.422 C 
HETATM   22  F1  UNL     1      27.817  -1.001  53.835  1.00  0.00    -0.166 F 
HETATM   23  F2  UNL     1      28.529   0.881  54.740  1.00  0.00    -0.166 F 
HETATM   24  F3  UNL     1      26.476   0.223  55.204  1.00  0.00    -0.166 F 
ENDBRANCH   6  21
BRANCH   3  25
HETATM   25  N4  UNL     1      25.552   3.301  49.875  1.00  0.00    -0.192 N 
HETATM   26  H9  UNL     1      24.592   3.132  49.513  1.00  0.00     0.184 HD
BRANCH  25  27
HETATM   27  C11 UNL     1      26.405   4.280  49.299  1.00  0.00     0.026 A 
HETATM   28  C12 UNL     1      26.483   5.635  48.939  1.00  0.00     0.005 A 
HETATM   29  C13 UNL     1      27.641   4.718  48.701  1.00  0.00     0.086 A 
ENDBRANCH  25  27
ENDBRANCH   3  25
TORSDOF 7
ENDMDL
MODEL 6
REMARK VINA RESULT:      -7.8      1.833      2.175
REMARK  7 active torsions:
REMARK  status: ('A' for Active; 'I' for Inactive)
REMARK    1  A    between atoms: C2_2  and  C3_3 
REMARK       I    between atoms: C3_3  and  N1_5 
REMARK    2  A    between atoms: N1_5  and  C4_6 
REMARK    3  A    between atoms: C8_10  and  N2_11 
REMARK    4  A    between atoms: N2_11  and  C9_12 
REMARK    5  A    between atoms: C10_14  and  N4_15 
REMARK    6  A    between atoms: N4_15  and  C11_16 
REMARK    7  A    between atoms: C15_21  and  C16_22 
ROOT
HETATM    1  C9  UNL     1      23.705   0.204  52.966  1.00  0.00     0.164 A 
HETATM    2  N3  UNL     1      24.977   0.431  52.619  1.00  0.00    -0.044 NA
HETATM    3  C10 UNL     1      26.058  -0.049  53.247  1.00  0.00     0.728 A 
HETATM    4  N5  UNL     1      25.852  -0.830  54.323  1.00  0.00    -0.074 NA
HETATM    5  C14 UNL     1      24.621  -1.124  54.759  1.00  0.00     0.156 A 
HETATM    6  C15 UNL     1      23.551  -0.597  54.068  1.00  0.00     0.112 A 
ENDROOT
BRANCH   1   7
HETATM    7  N2  UNL     1      22.566   0.717  52.299  1.00  0.00    -0.340 N 
HETATM    8  H8  UNL     1      21.662   0.719  52.839  1.00  0.00     0.167 HD
BRANCH   7   9
HETATM    9  C8  UNL     1      22.482   1.239  50.985  1.00  0.00     0.035 A 
HETATM   10  C7  UNL     1      21.592   0.843  50.015  1.00  0.00     0.029 A 
HETATM   11  C6  UNL     1      21.521   1.358  48.740  1.00  0.00     0.004 A 
HETATM   12  C5  UNL     1      22.406   2.355  48.386  1.00  0.00     0.029 A 
HETATM   13  C4  UNL     1      23.321   2.790  49.320  1.00  0.00     0.037 A 
HETATM   14  C17 UNL     1      23.339   2.235  50.570  1.00  0.00     0.059 A 
BRANCH  13  15
HETATM   15  N1  UNL     1      24.243   3.818  48.972  1.00  0.00    -0.324 N 
HETATM   16  C3  UNL     1      24.367   5.145  49.468  1.00  0.00     0.244 C 
HETATM   17  O1  UNL     1      23.682   5.736  50.343  1.00  0.00    -0.268 OA
HETATM   18  H4  UNL     1      24.878   3.463  48.247  1.00  0.00     0.169 HD
BRANCH  16  19
HETATM   19  C2  UNL     1      25.431   5.960  48.897  1.00  0.00     0.064 C 
HETATM   20  C1  UNL     1      26.601   5.344  48.870  1.00  0.00     0.017 C 
ENDBRANCH  16  19
ENDBRANCH  13  15
ENDBRANCH   7   9
ENDBRANCH   1   7
BRANCH   6  21
HETATM   21  C16 UNL     1      22.189  -0.935  54.558  1.00  0.00     0.422 C 
HETATM   22  F1  UNL     1      21.528   0.143  55.111  1.00  0.00    -0.166 F 
HETATM   23  F2  UNL     1      21.394  -1.386  53.526  1.00  0.00    -0.166 F 
HETATM   24  F3  UNL     1      22.257  -1.981  55.467  1.00  0.00    -0.166 F 
ENDBRANCH   6  21
BRANCH   3  25
HETATM   25  N4  UNL     1      27.358   0.261  52.787  1.00  0.00    -0.192 N 
HETATM   26  H9  UNL     1      27.502   1.065  52.144  1.00  0.00     0.184 HD
BRANCH  25  27
HETATM   27  C11 UNL     1      28.441  -0.548  53.225  1.00  0.00     0.026 A 
HETATM   28  C12 UNL     1      29.567  -0.566  54.063  1.00  0.00     0.005 A 
HETATM   29  C13 UNL     1      29.214  -1.764  53.240  1.00  0.00     0.086 A 
ENDBRANCH  25  27
ENDBRANCH   3  25
TORSDOF 7
ENDMDL
MODEL 7
REMARK VINA RESULT:      -7.8      4.036      7.676
REMARK  7 active torsions:
REMARK  status: ('A' for Active; 'I' for Inactive)
REMARK    1  A    between atoms: C2_2  and  C3_3 
REMARK       I    between atoms: C3_3  and  N1_5 
REMARK    2  A    between atoms: N1_5  and  C4_6 
REMARK    3  A    between atoms: C8_10  and  N2_11 
REMARK    4  A    between atoms: N2_11  and  C9_12 
REMARK    5  A    between atoms: C10_14  and  N4_15 
REMARK    6  A    between atoms: N4_15  and  C11_16 
REMARK    7  A    between atoms: C15_21  and  C16_22 
ROOT
HETATM    1  C9  UNL     1      26.680   4.871  48.957  1.00  0.00     0.164 A 
HETATM    2  N3  UNL     1      27.958   4.619  48.656  1.00  0.00    -0.044 NA
HETATM    3  C10 UNL     1      28.863   5.523  48.262  1.00  0.00     0.728 A 
HETATM    4  N5  UNL     1      28.456   6.801  48.159  1.00  0.00    -0.074 NA
HETATM    5  C14 UNL     1      27.200   7.168  48.436  1.00  0.00     0.156 A 
HETATM    6  C15 UNL     1      26.316   6.188  48.836  1.00  0.00     0.112 A 
ENDROOT
BRANCH   1   7
HETATM    7  N2  UNL     1      25.726   3.910  49.371  1.00  0.00    -0.340 N 
HETATM    8  H8  UNL     1      25.028   3.594  48.648  1.00  0.00     0.167 HD
BRANCH   7   9
HETATM    9  C8  UNL     1      25.587   3.306  50.644  1.00  0.00     0.035 A 
HETATM   10  C7  UNL     1      24.504   3.430  51.483  1.00  0.00     0.029 A 
HETATM   11  C6  UNL     1      24.382   2.838  52.719  1.00  0.00     0.004 A 
HETATM   12  C5  UNL     1      25.419   2.051  53.175  1.00  0.00     0.029 A 
HETATM   13  C4  UNL     1      26.530   1.893  52.375  1.00  0.00     0.037 A 
HETATM   14  C17 UNL     1      26.588   2.509  51.156  1.00  0.00     0.059 A 
BRANCH  13  15
HETATM   15  N1  UNL     1      27.611   1.084  52.829  1.00  0.00    -0.324 N 
HETATM   16  C3  UNL     1      28.702   1.408  53.682  1.00  0.00     0.244 C 
HETATM   17  O1  UNL     1      28.977   2.499  54.245  1.00  0.00    -0.268 OA
HETATM   18  H4  UNL     1      27.510   0.141  52.436  1.00  0.00     0.169 HD
BRANCH  16  19
HETATM   19  C2  UNL     1      29.654   0.340  53.960  1.00  0.00     0.064 C 
HETATM   20  C1  UNL     1      29.294  -0.824  53.448  1.00  0.00     0.017 C 
ENDBRANCH  16  19
ENDBRANCH  13  15
ENDBRANCH   7   9
ENDBRANCH   1   7
BRANCH   6  21
HETATM   21  C16 UNL     1      24.925   6.608  49.146  1.00  0.00     0.422 C 
HETATM   22  F1  UNL     1      24.624   6.541  50.492  1.00  0.00    -0.166 F 
HETATM   23  F2  UNL     1      24.712   7.917  48.769  1.00  0.00    -0.166 F 
HETATM   24  F3  UNL     1      24.025   5.853  48.409  1.00  0.00    -0.166 F 
ENDBRANCH   6  21
BRANCH   3  25
HETATM   25  N4  UNL     1      30.191   5.137  47.969  1.00  0.00    -0.192 N 
HETATM   26  H9  UNL     1      30.369   4.286  47.397  1.00  0.00     0.184 HD
BRANCH  25  27
HETATM   27  C11 UNL     1      31.254   5.933  48.473  1.00  0.00     0.026 A 
HETATM   28  C12 UNL     1      31.865   6.379  49.656  1.00  0.00     0.005 A 
HETATM   29  C13 UNL     1      32.397   6.798  48.322  1.00  0.00     0.086 A 
ENDBRANCH  25  27
ENDBRANCH   3  25
TORSDOF 7
ENDMDL
MODEL 8
REMARK VINA RESULT:      -7.8      3.458      6.208
REMARK  7 active torsions:
REMARK  status: ('A' for Active; 'I' for Inactive)
REMARK    1  A    between atoms: C2_2  and  C3_3 
REMARK       I    between atoms: C3_3  and  N1_5 
REMARK    2  A    between atoms: N1_5  and  C4_6 
REMARK    3  A    between atoms: C8_10  and  N2_11 
REMARK    4  A    between atoms: N2_11  and  C9_12 
REMARK    5  A    between atoms: C10_14  and  N4_15 
REMARK    6  A    between atoms: N4_15  and  C11_16 
REMARK    7  A    between atoms: C15_21  and  C16_22 
ROOT
HETATM    1  C9  UNL     1      24.718   2.177  52.617  1.00  0.00     0.164 A 
HETATM    2  N3  UNL     1      25.787   1.960  53.391  1.00  0.00    -0.044 NA
HETATM    3  C10 UNL     1      27.066   2.073  53.010  1.00  0.00     0.728 A 
HETATM    4  N5  UNL     1      27.302   2.437  51.736  1.00  0.00    -0.074 NA
HETATM    5  C14 UNL     1      26.308   2.679  50.874  1.00  0.00     0.156 A 
HETATM    6  C15 UNL     1      25.013   2.544  51.329  1.00  0.00     0.112 A 
ENDROOT
BRANCH   1   7
HETATM    7  N2  UNL     1      23.368   2.053  53.025  1.00  0.00    -0.340 N 
HETATM    8  H8  UNL     1      22.802   2.941  53.067  1.00  0.00     0.167 HD
BRANCH   7   9
HETATM    9  C8  UNL     1      22.667   0.877  53.386  1.00  0.00     0.035 A 
HETATM   10  C7  UNL     1      23.189  -0.196  54.070  1.00  0.00     0.029 A 
HETATM   11  C6  UNL     1      22.497  -1.335  54.415  1.00  0.00     0.004 A 
HETATM   12  C5  UNL     1      21.168  -1.429  54.056  1.00  0.00     0.029 A 
HETATM   13  C4  UNL     1      20.593  -0.381  53.369  1.00  0.00     0.037 A 
HETATM   14  C17 UNL     1      21.338   0.722  53.056  1.00  0.00     0.059 A 
BRANCH  13  15
HETATM   15  N1  UNL     1      19.223  -0.460  52.989  1.00  0.00    -0.324 N 
HETATM   16  C3  UNL     1      18.584  -0.081  51.776  1.00  0.00     0.244 C 
HETATM   17  O1  UNL     1      19.084   0.422  50.736  1.00  0.00    -0.268 OA
HETATM   18  H4  UNL     1      18.685  -0.864  53.765  1.00  0.00     0.169 HD
BRANCH  16  19
HETATM   19  C2  UNL     1      17.145  -0.294  51.700  1.00  0.00     0.064 C 
HETATM   20  C1  UNL     1      16.670  -1.003  52.710  1.00  0.00     0.017 C 
ENDBRANCH  16  19
ENDBRANCH  13  15
ENDBRANCH   7   9
ENDBRANCH   1   7
BRANCH   6  21
HETATM   21  C16 UNL     1      23.918   2.822  50.364  1.00  0.00     0.422 C 
HETATM   22  F1  UNL     1      23.123   3.887  50.736  1.00  0.00    -0.166 F 
HETATM   23  F2  UNL     1      24.426   3.136  49.122  1.00  0.00    -0.166 F 
HETATM   24  F3  UNL     1      23.148   1.682  50.179  1.00  0.00    -0.166 F 
ENDBRANCH   6  21
BRANCH   3  25
HETATM   25  N4  UNL     1      28.117   1.817  53.920  1.00  0.00    -0.192 N 
HETATM   26  H9  UNL     1      28.360   2.524  54.643  1.00  0.00     0.184 HD
BRANCH  25  27
HETATM   27  C11 UNL     1      28.817   0.585  53.816  1.00  0.00     0.026 A 
HETATM   28  C12 UNL     1      30.074   0.023  53.543  1.00  0.00     0.005 A 
HETATM   29  C13 UNL     1      28.905  -0.852  53.868  1.00  0.00     0.086 A 
ENDBRANCH  25  27
ENDBRANCH   3  25
TORSDOF 7
ENDMDL
MODEL 9
REMARK VINA RESULT:      -7.7      1.424      2.509
REMARK  7 active torsions:
REMARK  status: ('A' for Active; 'I' for Inactive)
REMARK    1  A    between atoms: C2_2  and  C3_3 
REMARK       I    between atoms: C3_3  and  N1_5 
REMARK    2  A    between atoms: N1_5  and  C4_6 
REMARK    3  A    between atoms: C8_10  and  N2_11 
REMARK    4  A    between atoms: N2_11  and  C9_12 
REMARK    5  A    between atoms: C10_14  and  N4_15 
REMARK    6  A    between atoms: N4_15  and  C11_16 
REMARK    7  A    between atoms: C15_21  and  C16_22 
ROOT
HETATM    1  C9  UNL     1      24.685   0.367  53.271  1.00  0.00     0.164 A 
HETATM    2  N3  UNL     1      25.960   0.482  53.658  1.00  0.00    -0.044 NA
HETATM    3  C10 UNL     1      26.509  -0.106  54.728  1.00  0.00     0.728 A 
HETATM    4  N5  UNL     1      25.712  -0.882  55.485  1.00  0.00    -0.074 NA
HETATM    5  C14 UNL     1      24.420  -1.068  55.192  1.00  0.00     0.156 A 
HETATM    6  C15 UNL     1      23.916  -0.434  54.076  1.00  0.00     0.112 A 
ENDROOT
BRANCH   1   7
HETATM    7  N2  UNL     1      24.108   0.994  52.139  1.00  0.00    -0.340 N 
HETATM    8  H8  UNL     1      23.203   0.590  51.784  1.00  0.00     0.167 HD
BRANCH   7   9
HETATM    9  C8  UNL     1      24.595   2.108  51.414  1.00  0.00     0.035 A 
HETATM   10  C7  UNL     1      25.846   2.226  50.857  1.00  0.00     0.029 A 
HETATM   11  C6  UNL     1      26.307   3.316  50.154  1.00  0.00     0.004 A 
HETATM   12  C5  UNL     1      25.460   4.391  49.981  1.00  0.00     0.029 A 
HETATM   13  C4  UNL     1      24.193   4.326  50.519  1.00  0.00     0.037 A 
HETATM   14  C17 UNL     1      23.797   3.213  51.207  1.00  0.00     0.059 A 
BRANCH  13  15
HETATM   15  N1  UNL     1      23.304   5.426  50.351  1.00  0.00    -0.324 N 
HETATM   16  C3  UNL     1      23.468   6.798  50.692  1.00  0.00     0.244 C 
HETATM   17  O1  UNL     1      24.449   7.373  51.230  1.00  0.00    -0.268 OA
HETATM   18  H4  UNL     1      22.439   5.092  49.910  1.00  0.00     0.169 HD
BRANCH  16  19
HETATM   19  C2  UNL     1      22.355   7.686  50.384  1.00  0.00     0.064 C 
HETATM   20  C1  UNL     1      21.195   7.056  50.298  1.00  0.00     0.017 C 
ENDBRANCH  16  19
ENDBRANCH  13  15
ENDBRANCH   7   9
ENDBRANCH   1   7
BRANCH   6  21
HETATM   21  C16 UNL     1      22.481  -0.653  53.757  1.00  0.00     0.422 C 
HETATM   22  F1  UNL     1      21.743   0.513  53.747  1.00  0.00    -0.166 F 
HETATM   23  F2  UNL     1      22.337  -1.210  52.504  1.00  0.00    -0.166 F 
HETATM   24  F3  UNL     1      21.931  -1.569  54.642  1.00  0.00    -0.166 F 
ENDBRANCH   6  21
BRANCH   3  25
HETATM   25  N4  UNL     1      27.874   0.090  55.040  1.00  0.00    -0.192 N 
HETATM   26  H9  UNL     1      28.139   0.629  55.889  1.00  0.00     0.184 HD
BRANCH  25  27
HETATM   27  C11 UNL     1      28.852  -0.463  54.171  1.00  0.00     0.026 A 
HETATM   28  C12 UNL     1      30.021  -0.161  53.452  1.00  0.00     0.005 A 
HETATM   29  C13 UNL     1      29.434  -1.536  53.405  1.00  0.00     0.086 A 
ENDBRANCH  25  27
ENDBRANCH   3  25
TORSDOF 7
ENDMDL
