MODEL 1
REMARK VINA RESULT:      -7.6      0.000      0.000
REMARK  9 active torsions:
REMARK  status: ('A' for Active; 'I' for Inactive)
REMARK    1  A    between atoms: C2_2  and  C11_14 
REMARK    2  A    between atoms: C3_3  and  N1_4 
REMARK       I    between atoms: N1_4  and  C4_5 
REMARK    3  A    between atoms: C4_5  and  C5_7 
REMARK    4  A    between atoms: C5_7  and  C6_8 
REMARK    5  A    between atoms: C7_9  and  C8_10 
REMARK    6  A    between atoms: C8_10  and  N2_11 
REMARK    7  A    between atoms: C11_14  and  N3_15 
REMARK    8  A    between atoms: N3_15  and  C12_16 
REMARK    9  A    between atoms: C15_19  and  N4_20 
ROOT
HETATM    1  C11 UNL     1      26.643   3.635  49.375  1.00  0.00     0.155 C 
ENDROOT
BRANCH   1   2
HETATM    2  C2  UNL     1      26.345   5.056  49.061  1.00  0.00    -0.051 C 
HETATM    3  C1  UNL     1      24.872   5.323  49.159  1.00  0.00     0.046 C 
HETATM    4  C3  UNL     1      27.226   5.994  48.735  1.00  0.00     0.095 C 
BRANCH   4   5
HETATM    5  N1  UNL     1      28.627   5.774  48.634  1.00  0.00    -0.337 N 
HETATM    6  C4  UNL     1      29.363   6.477  47.668  1.00  0.00     0.224 C 
HETATM    7  O1  UNL     1      28.788   7.297  46.897  1.00  0.00    -0.273 OA
HETATM    8  H5  UNL     1      29.128   5.115  49.246  1.00  0.00     0.168 HD
BRANCH   6   9
HETATM    9  C5  UNL     1      30.834   6.332  47.466  1.00  0.00     0.130 C 
BRANCH   9  10
HETATM   10  C6  UNL     1      31.359   5.104  48.070  1.00  0.00    -0.020 C 
HETATM   11  C7  UNL     1      32.263   4.267  47.578  1.00  0.00    -0.011 C 
BRANCH  11  12
HETATM   12  C8  UNL     1      32.986   4.341  46.291  1.00  0.00     0.143 C 
BRANCH  12  13
HETATM   13  N2  UNL     1      34.198   3.589  46.386  1.00  0.00    -0.418 N 
HETATM   14  C9  UNL     1      35.154   3.813  45.350  1.00  0.00     0.142 C 
HETATM   15  C10 UNL     1      34.730   3.466  47.707  1.00  0.00     0.142 C 
ENDBRANCH  12  13
ENDBRANCH  11  12
ENDBRANCH   9  10
ENDBRANCH   6   9
ENDBRANCH   4   5
ENDBRANCH   1   2
BRANCH   1  16
HETATM   16  N3  UNL     1      26.673   3.500  50.829  1.00  0.00    -0.386 N 
HETATM   17  H20 UNL     1      27.320   4.001  51.473  1.00  0.00     0.160 HD
BRANCH  16  18
HETATM   18  C12 UNL     1      25.808   2.650  51.560  1.00  0.00     0.029 A 
HETATM   19  C13 UNL     1      24.547   2.950  52.089  1.00  0.00     0.031 A 
HETATM   20  C14 UNL     1      23.835   2.007  52.777  1.00  0.00     0.034 A 
HETATM   21  C15 UNL     1      24.326   0.734  52.975  1.00  0.00     0.061 A 
HETATM   22  C19 UNL     1      25.564   0.395  52.471  1.00  0.00     0.063 A 
HETATM   23 CL1  UNL     1      26.202  -1.220  52.716  1.00  0.00    -0.082 Cl
HETATM   24  C20 UNL     1      26.275   1.352  51.780  1.00  0.00     0.055 A 
BRANCH  21  25
HETATM   25  N4  UNL     1      23.555  -0.227  53.697  1.00  0.00    -0.314 N 
HETATM   26  C16 UNL     1      23.621  -0.871  54.891  1.00  0.00     0.117 A 
HETATM   27  C17 UNL     1      22.549  -1.698  55.014  1.00  0.00     0.135 A 
HETATM   28  N5  UNL     1      21.783  -1.591  53.894  1.00  0.00    -0.254 NA
HETATM   29  C18 UNL     1      22.418  -0.683  53.097  1.00  0.00     0.214 A 
ENDBRANCH  21  25
ENDBRANCH  16  18
ENDBRANCH   1  16
TORSDOF 9
ENDMDL
MODEL 2
REMARK VINA RESULT:      -7.5      5.011      8.031
REMARK  9 active torsions:
REMARK  status: ('A' for Active; 'I' for Inactive)
REMARK    1  A    between atoms: C2_2  and  C11_14 
REMARK    2  A    between atoms: C3_3  and  N1_4 
REMARK       I    between atoms: N1_4  and  C4_5 
REMARK    3  A    between atoms: C4_5  and  C5_7 
REMARK    4  A    between atoms: C5_7  and  C6_8 
REMARK    5  A    between atoms: C7_9  and  C8_10 
REMARK    6  A    between atoms: C8_10  and  N2_11 
REMARK    7  A    between atoms: C11_14  and  N3_15 
REMARK    8  A    between atoms: N3_15  and  C12_16 
REMARK    9  A    between atoms: C15_19  and  N4_20 
ROOT
HETATM    1  C11 UNL     1      20.062   0.321  54.086  1.00  0.00     0.155 C 
ENDROOT
BRANCH   1   2
HETATM    2  C2  UNL     1      19.391   0.117  52.777  1.00  0.00    -0.051 C 
HETATM    3  C1  UNL     1      18.358  -0.967  52.875  1.00  0.00     0.046 C 
HETATM    4  C3  UNL     1      19.637   0.777  51.652  1.00  0.00     0.095 C 
BRANCH   4   5
HETATM    5  N1  UNL     1      20.608   1.808  51.526  1.00  0.00    -0.337 N 
HETATM    6  C4  UNL     1      20.231   3.138  51.770  1.00  0.00     0.224 C 
HETATM    7  O1  UNL     1      19.042   3.415  52.098  1.00  0.00    -0.273 OA
HETATM    8  H5  UNL     1      21.585   1.618  51.263  1.00  0.00     0.168 HD
BRANCH   6   9
HETATM    9  C5  UNL     1      21.156   4.303  51.671  1.00  0.00     0.130 C 
BRANCH   9  10
HETATM   10  C6  UNL     1      22.396   4.093  52.426  1.00  0.00    -0.020 C 
HETATM   11  C7  UNL     1      23.632   4.435  52.087  1.00  0.00    -0.011 C 
BRANCH  11  12
HETATM   12  C8  UNL     1      24.099   5.118  50.862  1.00  0.00     0.143 C 
BRANCH  12  13
HETATM   13  N2  UNL     1      24.797   4.182  50.038  1.00  0.00    -0.418 N 
HETATM   14  C9  UNL     1      23.981   3.320  49.243  1.00  0.00     0.142 C 
HETATM   15  C10 UNL     1      25.966   4.696  49.396  1.00  0.00     0.142 C 
ENDBRANCH  12  13
ENDBRANCH  11  12
ENDBRANCH   9  10
ENDBRANCH   6   9
ENDBRANCH   4   5
ENDBRANCH   1   2
BRANCH   1  16
HETATM   16  N3  UNL     1      20.919  -0.836  54.330  1.00  0.00    -0.386 N 
HETATM   17  H20 UNL     1      20.592  -1.811  54.493  1.00  0.00     0.160 HD
BRANCH  16  18
HETATM   18  C12 UNL     1      22.333  -0.775  54.379  1.00  0.00     0.029 A 
HETATM   19  C13 UNL     1      23.190  -1.355  55.322  1.00  0.00     0.031 A 
HETATM   20  C14 UNL     1      24.546  -1.198  55.224  1.00  0.00     0.034 A 
HETATM   21  C15 UNL     1      25.116  -0.470  54.202  1.00  0.00     0.061 A 
HETATM   22  C19 UNL     1      24.309   0.119  53.251  1.00  0.00     0.063 A 
HETATM   23 CL1  UNL     1      25.021   1.049  51.946  1.00  0.00    -0.082 Cl
HETATM   24  C20 UNL     1      22.945  -0.044  53.357  1.00  0.00     0.055 A 
BRANCH  21  25
HETATM   25  N4  UNL     1      26.535  -0.327  54.129  1.00  0.00    -0.314 N 
HETATM   26  C16 UNL     1      27.560  -0.857  53.414  1.00  0.00     0.117 A 
HETATM   27  C17 UNL     1      28.728  -0.294  53.819  1.00  0.00     0.135 A 
HETATM   28  N5  UNL     1      28.463   0.606  54.804  1.00  0.00    -0.254 NA
HETATM   29  C18 UNL     1      27.109   0.572  54.980  1.00  0.00     0.214 A 
ENDBRANCH  21  25
ENDBRANCH  16  18
ENDBRANCH   1  16
TORSDOF 9
ENDMDL
MODEL 3
REMARK VINA RESULT:      -7.4      5.854      7.814
REMARK  9 active torsions:
REMARK  status: ('A' for Active; 'I' for Inactive)
REMARK    1  A    between atoms: C2_2  and  C11_14 
REMARK    2  A    between atoms: C3_3  and  N1_4 
REMARK       I    between atoms: N1_4  and  C4_5 
REMARK    3  A    between atoms: C4_5  and  C5_7 
REMARK    4  A    between atoms: C5_7  and  C6_8 
REMARK    5  A    between atoms: C7_9  and  C8_10 
REMARK    6  A    between atoms: C8_10  and  N2_11 
REMARK    7  A    between atoms: C11_14  and  N3_15 
REMARK    8  A    between atoms: N3_15  and  C12_16 
REMARK    9  A    between atoms: C15_19  and  N4_20 
ROOT
HETATM    1  C11 UNL     1      19.936   1.642  52.253  1.00  0.00     0.155 C 
ENDROOT
BRANCH   1   2
HETATM    2  C2  UNL     1      19.225   0.900  51.179  1.00  0.00    -0.051 C 
HETATM    3  C1  UNL     1      18.398  -0.208  51.759  1.00  0.00     0.046 C 
HETATM    4  C3  UNL     1      19.283   1.149  49.877  1.00  0.00     0.095 C 
BRANCH   4   5
HETATM    5  N1  UNL     1      20.057   2.191  49.296  1.00  0.00    -0.337 N 
HETATM    6  C4  UNL     1      21.220   1.864  48.581  1.00  0.00     0.224 C 
HETATM    7  O1  UNL     1      21.574   0.658  48.454  1.00  0.00    -0.273 OA
HETATM    8  H5  UNL     1      19.797   3.184  49.378  1.00  0.00     0.168 HD
BRANCH   6   9
HETATM    9  C5  UNL     1      22.111   2.866  47.928  1.00  0.00     0.130 C 
BRANCH   9  10
HETATM   10  C6  UNL     1      23.344   3.091  48.689  1.00  0.00    -0.020 C 
HETATM   11  C7  UNL     1      23.677   4.147  49.420  1.00  0.00    -0.011 C 
BRANCH  11  12
HETATM   12  C8  UNL     1      22.903   5.381  49.667  1.00  0.00     0.143 C 
BRANCH  12  13
HETATM   13  N2  UNL     1      23.132   5.821  51.008  1.00  0.00    -0.418 N 
HETATM   14  C9  UNL     1      23.042   4.817  52.019  1.00  0.00     0.142 C 
HETATM   15  C10 UNL     1      24.197   6.763  51.161  1.00  0.00     0.142 C 
ENDBRANCH  12  13
ENDBRANCH  11  12
ENDBRANCH   9  10
ENDBRANCH   6   9
ENDBRANCH   4   5
ENDBRANCH   1   2
BRANCH   1  16
HETATM   16  N3  UNL     1      20.415   0.663  53.225  1.00  0.00    -0.386 N 
HETATM   17  H20 UNL     1      19.820   0.119  53.884  1.00  0.00     0.160 HD
BRANCH  16  18
HETATM   18  C12 UNL     1      21.779   0.325  53.398  1.00  0.00     0.029 A 
HETATM   19  C13 UNL     1      22.328  -0.634  54.258  1.00  0.00     0.031 A 
HETATM   20  C14 UNL     1      23.680  -0.838  54.305  1.00  0.00     0.034 A 
HETATM   21  C15 UNL     1      24.547  -0.115  53.513  1.00  0.00     0.061 A 
HETATM   22  C19 UNL     1      24.049   0.839  52.651  1.00  0.00     0.063 A 
HETATM   23 CL1  UNL     1      25.140   1.766  51.639  1.00  0.00    -0.082 Cl
HETATM   24  C20 UNL     1      22.686   1.039  52.611  1.00  0.00     0.055 A 
BRANCH  21  25
HETATM   25  N4  UNL     1      25.953  -0.355  53.586  1.00  0.00    -0.314 N 
HETATM   26  C16 UNL     1      26.918  -0.899  52.802  1.00  0.00     0.117 A 
HETATM   27  C17 UNL     1      28.111  -0.835  53.450  1.00  0.00     0.135 A 
HETATM   28  N5  UNL     1      27.921  -0.247  54.662  1.00  0.00    -0.254 NA
HETATM   29  C18 UNL     1      26.588   0.041  54.727  1.00  0.00     0.214 A 
ENDBRANCH  21  25
ENDBRANCH  16  18
ENDBRANCH   1  16
TORSDOF 9
ENDMDL
MODEL 4
REMARK VINA RESULT:      -7.4      2.820      3.946
REMARK  9 active torsions:
REMARK  status: ('A' for Active; 'I' for Inactive)
REMARK    1  A    between atoms: C2_2  and  C11_14 
REMARK    2  A    between atoms: C3_3  and  N1_4 
REMARK       I    between atoms: N1_4  and  C4_5 
REMARK    3  A    between atoms: C4_5  and  C5_7 
REMARK    4  A    between atoms: C5_7  and  C6_8 
REMARK    5  A    between atoms: C7_9  and  C8_10 
REMARK    6  A    between atoms: C8_10  and  N2_11 
REMARK    7  A    between atoms: C11_14  and  N3_15 
REMARK    8  A    between atoms: N3_15  and  C12_16 
REMARK    9  A    between atoms: C15_19  and  N4_20 
ROOT
HETATM    1  C11 UNL     1      23.330   4.516  49.565  1.00  0.00     0.155 C 
ENDROOT
BRANCH   1   2
HETATM    2  C2  UNL     1      23.361   5.530  50.650  1.00  0.00    -0.051 C 
HETATM    3  C1  UNL     1      22.028   5.618  51.332  1.00  0.00     0.046 C 
HETATM    4  C3  UNL     1      24.400   6.277  51.002  1.00  0.00     0.095 C 
BRANCH   4   5
HETATM    5  N1  UNL     1      25.675   6.218  50.376  1.00  0.00    -0.337 N 
HETATM    6  C4  UNL     1      25.963   7.100  49.322  1.00  0.00     0.224 C 
HETATM    7  O1  UNL     1      25.099   7.937  48.934  1.00  0.00    -0.273 OA
HETATM    8  H5  UNL     1      26.403   5.551  50.667  1.00  0.00     0.168 HD
BRANCH   6   9
HETATM    9  C5  UNL     1      27.261   7.134  48.589  1.00  0.00     0.130 C 
BRANCH   9  10
HETATM   10  C6  UNL     1      27.865   5.803  48.466  1.00  0.00    -0.020 C 
HETATM   11  C7  UNL     1      29.112   5.494  48.134  1.00  0.00    -0.011 C 
BRANCH  11  12
HETATM   12  C8  UNL     1      30.230   6.400  47.797  1.00  0.00     0.143 C 
BRANCH  12  13
HETATM   13  N2  UNL     1      31.152   6.437  48.888  1.00  0.00    -0.418 N 
HETATM   14  C9  UNL     1      32.251   5.528  48.807  1.00  0.00     0.142 C 
HETATM   15  C10 UNL     1      31.462   7.745  49.374  1.00  0.00     0.142 C 
ENDBRANCH  12  13
ENDBRANCH  11  12
ENDBRANCH   9  10
ENDBRANCH   6   9
ENDBRANCH   4   5
ENDBRANCH   1   2
BRANCH   1  16
HETATM   16  N3  UNL     1      23.255   3.199  50.192  1.00  0.00    -0.386 N 
HETATM   17  H20 UNL     1      22.417   2.582  50.212  1.00  0.00     0.160 HD
BRANCH  16  18
HETATM   18  C12 UNL     1      24.337   2.584  50.867  1.00  0.00     0.029 A 
HETATM   19  C13 UNL     1      25.708   2.772  50.652  1.00  0.00     0.031 A 
HETATM   20  C14 UNL     1      26.632   2.094  51.398  1.00  0.00     0.034 A 
HETATM   21  C15 UNL     1      26.254   1.207  52.383  1.00  0.00     0.061 A 
HETATM   22  C19 UNL     1      24.914   0.991  52.628  1.00  0.00     0.063 A 
HETATM   23 CL1  UNL     1      24.419  -0.135  53.877  1.00  0.00    -0.082 Cl
HETATM   24  C20 UNL     1      23.990   1.678  51.872  1.00  0.00     0.055 A 
BRANCH  21  25
HETATM   25  N4  UNL     1      27.245   0.516  53.144  1.00  0.00    -0.314 N 
HETATM   26  C16 UNL     1      28.050   0.772  54.207  1.00  0.00     0.117 A 
HETATM   27  C17 UNL     1      28.803  -0.328  54.474  1.00  0.00     0.135 A 
HETATM   28  N5  UNL     1      28.487  -1.303  53.580  1.00  0.00    -0.254 NA
HETATM   29  C18 UNL     1      27.528  -0.766  52.771  1.00  0.00     0.214 A 
ENDBRANCH  21  25
ENDBRANCH  16  18
ENDBRANCH   1  16
TORSDOF 9
ENDMDL
MODEL 5
REMARK VINA RESULT:      -7.3      6.412     10.186
REMARK  9 active torsions:
REMARK  status: ('A' for Active; 'I' for Inactive)
REMARK    1  A    between atoms: C2_2  and  C11_14 
REMARK    2  A    between atoms: C3_3  and  N1_4 
REMARK       I    between atoms: N1_4  and  C4_5 
REMARK    3  A    between atoms: C4_5  and  C5_7 
REMARK    4  A    between atoms: C5_7  and  C6_8 
REMARK    5  A    between atoms: C7_9  and  C8_10 
REMARK    6  A    between atoms: C8_10  and  N2_11 
REMARK    7  A    between atoms: C11_14  and  N3_15 
REMARK    8  A    between atoms: N3_15  and  C12_16 
REMARK    9  A    between atoms: C15_19  and  N4_20 
ROOT
HETATM    1  C11 UNL     1      26.054   0.493  52.219  1.00  0.00     0.155 C 
ENDROOT
BRANCH   1   2
HETATM    2  C2  UNL     1      26.192  -0.206  53.523  1.00  0.00    -0.051 C 
HETATM    3  C1  UNL     1      27.637  -0.325  53.909  1.00  0.00     0.046 C 
HETATM    4  C3  UNL     1      25.205  -0.675  54.276  1.00  0.00     0.095 C 
BRANCH   4   5
HETATM    5  N1  UNL     1      23.827  -0.578  53.938  1.00  0.00    -0.337 N 
HETATM    6  C4  UNL     1      22.867  -1.100  54.819  1.00  0.00     0.224 C 
HETATM    7  O1  UNL     1      23.223  -1.649  55.900  1.00  0.00    -0.273 OA
HETATM    8  H5  UNL     1      23.502  -0.136  53.067  1.00  0.00     0.168 HD
BRANCH   6   9
HETATM    9  C5  UNL     1      21.396  -1.058  54.575  1.00  0.00     0.130 C 
BRANCH   9  10
HETATM   10  C6  UNL     1      20.916   0.301  54.305  1.00  0.00    -0.020 C 
HETATM   11  C7  UNL     1      20.167   0.722  53.295  1.00  0.00    -0.011 C 
BRANCH  11  12
HETATM   12  C8  UNL     1      19.612  -0.057  52.168  1.00  0.00     0.143 C 
BRANCH  12  13
HETATM   13  N2  UNL     1      18.199  -0.190  52.336  1.00  0.00    -0.418 N 
HETATM   14  C9  UNL     1      17.397   0.248  51.238  1.00  0.00     0.142 C 
HETATM   15  C10 UNL     1      17.776  -1.398  52.972  1.00  0.00     0.142 C 
ENDBRANCH  12  13
ENDBRANCH  11  12
ENDBRANCH   9  10
ENDBRANCH   6   9
ENDBRANCH   4   5
ENDBRANCH   1   2
BRANCH   1  16
HETATM   16  N3  UNL     1      25.709   1.884  52.496  1.00  0.00    -0.386 N 
HETATM   17  H20 UNL     1      26.332   2.587  52.946  1.00  0.00     0.160 HD
BRANCH  16  18
HETATM   18  C12 UNL     1      24.456   2.464  52.182  1.00  0.00     0.029 A 
HETATM   19  C13 UNL     1      23.870   3.607  52.740  1.00  0.00     0.031 A 
HETATM   20  C14 UNL     1      22.641   4.037  52.321  1.00  0.00     0.034 A 
HETATM   21  C15 UNL     1      21.937   3.369  51.342  1.00  0.00     0.061 A 
HETATM   22  C19 UNL     1      22.477   2.238  50.766  1.00  0.00     0.063 A 
HETATM   23 CL1  UNL     1      21.593   1.378  49.520  1.00  0.00    -0.082 Cl
HETATM   24  C20 UNL     1      23.715   1.811  51.194  1.00  0.00     0.055 A 
BRANCH  21  25
HETATM   25  N4  UNL     1      20.657   3.847  50.928  1.00  0.00    -0.314 N 
HETATM   26  C16 UNL     1      19.353   3.595  51.213  1.00  0.00     0.117 A 
HETATM   27  C17 UNL     1      18.565   4.408  50.461  1.00  0.00     0.135 A 
HETATM   28  N5  UNL     1      19.359   5.192  49.683  1.00  0.00    -0.254 NA
HETATM   29  C18 UNL     1      20.641   4.832  49.984  1.00  0.00     0.214 A 
ENDBRANCH  21  25
ENDBRANCH  16  18
ENDBRANCH   1  16
TORSDOF 9
ENDMDL
MODEL 6
REMARK VINA RESULT:      -7.3      4.852      8.949
REMARK  9 active torsions:
REMARK  status: ('A' for Active; 'I' for Inactive)
REMARK    1  A    between atoms: C2_2  and  C11_14 
REMARK    2  A    between atoms: C3_3  and  N1_4 
REMARK       I    between atoms: N1_4  and  C4_5 
REMARK    3  A    between atoms: C4_5  and  C5_7 
REMARK    4  A    between atoms: C5_7  and  C6_8 
REMARK    5  A    between atoms: C7_9  and  C8_10 
REMARK    6  A    between atoms: C8_10  and  N2_11 
REMARK    7  A    between atoms: C11_14  and  N3_15 
REMARK    8  A    between atoms: N3_15  and  C12_16 
REMARK    9  A    between atoms: C15_19  and  N4_20 
ROOT
HETATM    1  C11 UNL     1      19.482   1.021  51.742  1.00  0.00     0.155 C 
ENDROOT
BRANCH   1   2
HETATM    2  C2  UNL     1      19.206  -0.155  52.606  1.00  0.00    -0.051 C 
HETATM    3  C1  UNL     1      17.781  -0.600  52.457  1.00  0.00     0.046 C 
HETATM    4  C3  UNL     1      20.068  -0.761  53.413  1.00  0.00     0.095 C 
BRANCH   4   5
HETATM    5  N1  UNL     1      21.424  -0.364  53.577  1.00  0.00    -0.337 N 
HETATM    6  C4  UNL     1      22.270  -1.135  54.390  1.00  0.00     0.224 C 
HETATM    7  O1  UNL     1      21.832  -2.170  54.968  1.00  0.00    -0.273 OA
HETATM    8  H5  UNL     1      21.814   0.472  53.120  1.00  0.00     0.168 HD
BRANCH   6   9
HETATM    9  C5  UNL     1      23.706  -0.821  54.638  1.00  0.00     0.130 C 
BRANCH   9  10
HETATM   10  C6  UNL     1      24.278   0.032  53.592  1.00  0.00    -0.020 C 
HETATM   11  C7  UNL     1      25.453  -0.085  52.987  1.00  0.00    -0.011 C 
BRANCH  11  12
HETATM   12  C8  UNL     1      26.504  -1.102  53.200  1.00  0.00     0.143 C 
BRANCH  12  13
HETATM   13  N2  UNL     1      27.780  -0.459  53.246  1.00  0.00    -0.418 N 
HETATM   14  C9  UNL     1      27.862   0.706  54.068  1.00  0.00     0.142 C 
HETATM   15  C10 UNL     1      28.901  -1.343  53.307  1.00  0.00     0.142 C 
ENDBRANCH  12  13
ENDBRANCH  11  12
ENDBRANCH   9  10
ENDBRANCH   6   9
ENDBRANCH   4   5
ENDBRANCH   1   2
BRANCH   1  16
HETATM   16  N3  UNL     1      20.428   0.602  50.711  1.00  0.00    -0.386 N 
HETATM   17  H20 UNL     1      20.403  -0.302  50.194  1.00  0.00     0.160 HD
BRANCH  16  18
HETATM   18  C12 UNL     1      21.523   1.388  50.279  1.00  0.00     0.029 A 
HETATM   19  C13 UNL     1      21.932   1.650  48.965  1.00  0.00     0.031 A 
HETATM   20  C14 UNL     1      23.023   2.437  48.717  1.00  0.00     0.034 A 
HETATM   21  C15 UNL     1      23.755   2.999  49.740  1.00  0.00     0.061 A 
HETATM   22  C19 UNL     1      23.388   2.767  51.049  1.00  0.00     0.063 A 
HETATM   23 CL1  UNL     1      24.311   3.475  52.361  1.00  0.00    -0.082 Cl
HETATM   24  C20 UNL     1      22.288   1.973  51.291  1.00  0.00     0.055 A 
BRANCH  21  25
HETATM   25  N4  UNL     1      24.888   3.817  49.445  1.00  0.00    -0.314 N 
HETATM   26  C16 UNL     1      26.240   3.691  49.437  1.00  0.00     0.117 A 
HETATM   27  C17 UNL     1      26.798   4.868  49.049  1.00  0.00     0.135 A 
HETATM   28  N5  UNL     1      25.804   5.764  48.804  1.00  0.00    -0.254 NA
HETATM   29  C18 UNL     1      24.638   5.099  49.052  1.00  0.00     0.214 A 
ENDBRANCH  21  25
ENDBRANCH  16  18
ENDBRANCH   1  16
TORSDOF 9
ENDMDL
MODEL 7
REMARK VINA RESULT:      -7.2      4.823      6.688
REMARK  9 active torsions:
REMARK  status: ('A' for Active; 'I' for Inactive)
REMARK    1  A    between atoms: C2_2  and  C11_14 
REMARK    2  A    between atoms: C3_3  and  N1_4 
REMARK       I    between atoms: N1_4  and  C4_5 
REMARK    3  A    between atoms: C4_5  and  C5_7 
REMARK    4  A    between atoms: C5_7  and  C6_8 
REMARK    5  A    between atoms: C7_9  and  C8_10 
REMARK    6  A    between atoms: C8_10  and  N2_11 
REMARK    7  A    between atoms: C11_14  and  N3_15 
REMARK    8  A    between atoms: N3_15  and  C12_16 
REMARK    9  A    between atoms: C15_19  and  N4_20 
ROOT
HETATM    1  C11 UNL     1      26.297  -0.520  53.613  1.00  0.00     0.155 C 
ENDROOT
BRANCH   1   2
HETATM    2  C2  UNL     1      27.119   0.621  54.091  1.00  0.00    -0.051 C 
HETATM    3  C1  UNL     1      28.281   0.133  54.904  1.00  0.00     0.046 C 
HETATM    4  C3  UNL     1      26.896   1.909  53.856  1.00  0.00     0.095 C 
BRANCH   4   5
HETATM    5  N1  UNL     1      25.805   2.403  53.090  1.00  0.00    -0.337 N 
HETATM    6  C4  UNL     1      25.973   2.609  51.712  1.00  0.00     0.224 C 
HETATM    7  O1  UNL     1      27.080   2.356  51.158  1.00  0.00    -0.273 OA
HETATM    8  H5  UNL     1      24.889   2.619  53.508  1.00  0.00     0.168 HD
BRANCH   6   9
HETATM    9  C5  UNL     1      24.906   3.122  50.805  1.00  0.00     0.130 C 
BRANCH   9  10
HETATM   10  C6  UNL     1      25.449   3.643  49.546  1.00  0.00    -0.020 C 
HETATM   11  C7  UNL     1      25.684   4.905  49.212  1.00  0.00    -0.011 C 
BRANCH  11  12
HETATM   12  C8  UNL     1      25.464   6.128  50.011  1.00  0.00     0.143 C 
BRANCH  12  13
HETATM   13  N2  UNL     1      24.403   6.888  49.429  1.00  0.00    -0.418 N 
HETATM   14  C9  UNL     1      24.516   7.146  48.029  1.00  0.00     0.142 C 
HETATM   15  C10 UNL     1      23.094   6.554  49.895  1.00  0.00     0.142 C 
ENDBRANCH  12  13
ENDBRANCH  11  12
ENDBRANCH   9  10
ENDBRANCH   6   9
ENDBRANCH   4   5
ENDBRANCH   1   2
BRANCH   1  16
HETATM   16  N3  UNL     1      25.253  -0.760  54.605  1.00  0.00    -0.386 N 
HETATM   17  H20 UNL     1      25.409  -0.964  55.615  1.00  0.00     0.160 HD
BRANCH  16  18
HETATM   18  C12 UNL     1      23.868  -0.748  54.313  1.00  0.00     0.029 A 
HETATM   19  C13 UNL     1      22.814  -1.228  55.101  1.00  0.00     0.031 A 
HETATM   20  C14 UNL     1      21.520  -1.140  54.667  1.00  0.00     0.034 A 
HETATM   21  C15 UNL     1      21.204  -0.580  53.448  1.00  0.00     0.061 A 
HETATM   22  C19 UNL     1      22.211  -0.095  52.639  1.00  0.00     0.063 A 
HETATM   23 CL1  UNL     1      21.824   0.620  51.085  1.00  0.00    -0.082 Cl
HETATM   24  C20 UNL     1      23.512  -0.188  53.083  1.00  0.00     0.055 A 
BRANCH  21  25
HETATM   25  N4  UNL     1      19.842  -0.502  53.026  1.00  0.00    -0.314 N 
HETATM   26  C16 UNL     1      19.096   0.258  52.185  1.00  0.00     0.117 A 
HETATM   27  C17 UNL     1      17.807  -0.174  52.214  1.00  0.00     0.135 A 
HETATM   28  N5  UNL     1      17.715  -1.221  53.079  1.00  0.00    -0.254 NA
HETATM   29  C18 UNL     1      18.976  -1.407  53.567  1.00  0.00     0.214 A 
ENDBRANCH  21  25
ENDBRANCH  16  18
ENDBRANCH   1  16
TORSDOF 9
ENDMDL
MODEL 8
REMARK VINA RESULT:      -7.2      3.994      6.442
REMARK  9 active torsions:
REMARK  status: ('A' for Active; 'I' for Inactive)
REMARK    1  A    between atoms: C2_2  and  C11_14 
REMARK    2  A    between atoms: C3_3  and  N1_4 
REMARK       I    between atoms: N1_4  and  C4_5 
REMARK    3  A    between atoms: C4_5  and  C5_7 
REMARK    4  A    between atoms: C5_7  and  C6_8 
REMARK    5  A    between atoms: C7_9  and  C8_10 
REMARK    6  A    between atoms: C8_10  and  N2_11 
REMARK    7  A    between atoms: C11_14  and  N3_15 
REMARK    8  A    between atoms: N3_15  and  C12_16 
REMARK    9  A    between atoms: C15_19  and  N4_20 
ROOT
HETATM    1  C11 UNL     1      21.221   0.528  50.611  1.00  0.00     0.155 C 
ENDROOT
BRANCH   1   2
HETATM    2  C2  UNL     1      20.016   1.325  50.265  1.00  0.00    -0.051 C 
HETATM    3  C1  UNL     1      18.819   0.833  51.024  1.00  0.00     0.046 C 
HETATM    4  C3  UNL     1      19.959   2.338  49.409  1.00  0.00     0.095 C 
BRANCH   4   5
HETATM    5  N1  UNL     1      21.074   2.828  48.675  1.00  0.00    -0.337 N 
HETATM    6  C4  UNL     1      21.981   3.695  49.303  1.00  0.00     0.224 C 
HETATM    7  O1  UNL     1      21.809   4.035  50.508  1.00  0.00    -0.273 OA
HETATM    8  H5  UNL     1      21.245   2.570  47.693  1.00  0.00     0.168 HD
BRANCH   6   9
HETATM    9  C5  UNL     1      23.185   4.273  48.640  1.00  0.00     0.130 C 
BRANCH   9  10
HETATM   10  C6  UNL     1      24.433   3.831  49.270  1.00  0.00    -0.020 C 
HETATM   11  C7  UNL     1      25.442   4.574  49.704  1.00  0.00    -0.011 C 
BRANCH  11  12
HETATM   12  C8  UNL     1      25.587   6.045  49.673  1.00  0.00     0.143 C 
BRANCH  12  13
HETATM   13  N2  UNL     1      26.727   6.390  48.882  1.00  0.00    -0.418 N 
HETATM   14  C9  UNL     1      27.610   5.315  48.560  1.00  0.00     0.142 C 
HETATM   15  C10 UNL     1      26.473   7.323  47.830  1.00  0.00     0.142 C 
ENDBRANCH  12  13
ENDBRANCH  11  12
ENDBRANCH   9  10
ENDBRANCH   6   9
ENDBRANCH   4   5
ENDBRANCH   1   2
BRANCH   1  16
HETATM   16  N3  UNL     1      21.793   1.098  51.828  1.00  0.00    -0.386 N 
HETATM   17  H20 UNL     1      21.349   1.825  52.426  1.00  0.00     0.160 HD
BRANCH  16  18
HETATM   18  C12 UNL     1      23.052   0.725  52.358  1.00  0.00     0.029 A 
HETATM   19  C13 UNL     1      23.321  -0.190  53.383  1.00  0.00     0.031 A 
HETATM   20  C14 UNL     1      24.606  -0.438  53.780  1.00  0.00     0.034 A 
HETATM   21  C15 UNL     1      25.678   0.196  53.190  1.00  0.00     0.061 A 
HETATM   22  C19 UNL     1      25.460   1.106  52.176  1.00  0.00     0.063 A 
HETATM   23 CL1  UNL     1      26.814   1.921  51.418  1.00  0.00    -0.082 Cl
HETATM   24  C20 UNL     1      24.162   1.350  51.783  1.00  0.00     0.055 A 
BRANCH  21  25
HETATM   25  N4  UNL     1      27.008  -0.087  53.628  1.00  0.00    -0.314 N 
HETATM   26  C16 UNL     1      27.924   0.459  54.469  1.00  0.00     0.117 A 
HETATM   27  C17 UNL     1      29.050  -0.302  54.461  1.00  0.00     0.135 A 
HETATM   28  N5  UNL     1      28.865  -1.349  53.610  1.00  0.00    -0.254 NA
HETATM   29  C18 UNL     1      27.605  -1.199  53.108  1.00  0.00     0.214 A 
ENDBRANCH  21  25
ENDBRANCH  16  18
ENDBRANCH   1  16
TORSDOF 9
ENDMDL
MODEL 9
REMARK VINA RESULT:      -7.1      4.816      8.037
REMARK  9 active torsions:
REMARK  status: ('A' for Active; 'I' for Inactive)
REMARK    1  A    between atoms: C2_2  and  C11_14 
REMARK    2  A    between atoms: C3_3  and  N1_4 
REMARK       I    between atoms: N1_4  and  C4_5 
REMARK    3  A    between atoms: C4_5  and  C5_7 
REMARK    4  A    between atoms: C5_7  and  C6_8 
REMARK    5  A    between atoms: C7_9  and  C8_10 
REMARK    6  A    between atoms: C8_10  and  N2_11 
REMARK    7  A    between atoms: C11_14  and  N3_15 
REMARK    8  A    between atoms: N3_15  and  C12_16 
REMARK    9  A    between atoms: C15_19  and  N4_20 
ROOT
HETATM    1  C11 UNL     1      21.631   0.817  50.086  1.00  0.00     0.155 C 
ENDROOT
BRANCH   1   2
HETATM    2  C2  UNL     1      21.135   0.942  51.480  1.00  0.00    -0.051 C 
HETATM    3  C1  UNL     1      19.645   1.116  51.499  1.00  0.00     0.046 C 
HETATM    4  C3  UNL     1      21.869   0.909  52.586  1.00  0.00     0.095 C 
BRANCH   4   5
HETATM    5  N1  UNL     1      23.281   0.746  52.602  1.00  0.00    -0.337 N 
HETATM    6  C4  UNL     1      24.100   1.875  52.764  1.00  0.00     0.224 C 
HETATM    7  O1  UNL     1      23.587   3.023  52.894  1.00  0.00    -0.273 OA
HETATM    8  H5  UNL     1      23.733  -0.174  52.500  1.00  0.00     0.168 HD
BRANCH   6   9
HETATM    9  C5  UNL     1      25.590   1.832  52.797  1.00  0.00     0.130 C 
BRANCH   9  10
HETATM   10  C6  UNL     1      26.136   0.794  51.916  1.00  0.00    -0.020 C 
HETATM   11  C7  UNL     1      26.970  -0.191  52.225  1.00  0.00    -0.011 C 
BRANCH  11  12
HETATM   12  C8  UNL     1      27.577  -0.511  53.533  1.00  0.00     0.143 C 
BRANCH  12  13
HETATM   13  N2  UNL     1      28.910   0.004  53.574  1.00  0.00    -0.418 N 
HETATM   14  C9  UNL     1      29.093   1.202  54.330  1.00  0.00     0.142 C 
HETATM   15  C10 UNL     1      29.935  -0.983  53.714  1.00  0.00     0.142 C 
ENDBRANCH  12  13
ENDBRANCH  11  12
ENDBRANCH   9  10
ENDBRANCH   6   9
ENDBRANCH   4   5
ENDBRANCH   1   2
BRANCH   1  16
HETATM   16  N3  UNL     1      21.324   2.066  49.393  1.00  0.00    -0.386 N 
HETATM   17  H20 UNL     1      20.451   2.268  48.863  1.00  0.00     0.160 HD
BRANCH  16  18
HETATM   18  C12 UNL     1      22.196   3.181  49.353  1.00  0.00     0.029 A 
HETATM   19  C13 UNL     1      21.860   4.537  49.271  1.00  0.00     0.031 A 
HETATM   20  C14 UNL     1      22.833   5.499  49.241  1.00  0.00     0.034 A 
HETATM   21  C15 UNL     1      24.171   5.172  49.290  1.00  0.00     0.061 A 
HETATM   22  C19 UNL     1      24.548   3.848  49.371  1.00  0.00     0.063 A 
HETATM   23 CL1  UNL     1      26.246   3.419  49.435  1.00  0.00    -0.082 Cl
HETATM   24  C20 UNL     1      23.561   2.886  49.401  1.00  0.00     0.055 A 
BRANCH  21  25
HETATM   25  N4  UNL     1      25.161   6.201  49.258  1.00  0.00    -0.314 N 
HETATM   26  C16 UNL     1      26.052   6.706  48.367  1.00  0.00     0.117 A 
HETATM   27  C17 UNL     1      26.743   7.721  48.950  1.00  0.00     0.135 A 
HETATM   28  N5  UNL     1      26.299   7.877  50.227  1.00  0.00    -0.254 NA
HETATM   29  C18 UNL     1      25.327   6.933  50.398  1.00  0.00     0.214 A 
ENDBRANCH  21  25
ENDBRANCH  16  18
ENDBRANCH   1  16
TORSDOF 9
ENDMDL
