MODEL 1
REMARK VINA RESULT:      -7.2      0.000      0.000
REMARK  7 active torsions:
REMARK  status: ('A' for Active; 'I' for Inactive)
REMARK    1  A    between atoms: C2_2  and  N1_3 
REMARK    2  A    between atoms: N1_3  and  C3_4 
REMARK    3  A    between atoms: N1_3  and  C5_7 
REMARK    4  A    between atoms: C3_4  and  C4_5 
REMARK    5  A    between atoms: C10_13  and  N2_14 
REMARK    6  A    between atoms: N2_14  and  O1_15 
REMARK    7  A    between atoms: N2_14  and  C11_16 
ROOT
HETATM    1  C5  UNL     1      24.506   0.508  53.221  1.00  0.00     0.061 A 
HETATM    2  C6  UNL     1      23.792  -0.602  53.664  1.00  0.00     0.055 A 
HETATM    3  C7  UNL     1      22.400  -0.522  53.707  1.00  0.00     0.036 A 
HETATM    4 CL2  UNL     1      21.403  -1.872  54.253  1.00  0.00    -0.084 Cl
HETATM    5  C8  UNL     1      21.703   0.607  53.333  1.00  0.00     0.026 A 
HETATM    6  C9  UNL     1      22.466   1.671  52.904  1.00  0.00     0.036 A 
HETATM    7  C10 UNL     1      23.844   1.652  52.839  1.00  0.00     0.089 A 
ENDROOT
BRANCH   7   8
HETATM    8  N2  UNL     1      24.625   2.759  52.431  1.00  0.00    -0.223 N 
BRANCH   8   9
HETATM    9  O1  UNL     1      24.942   3.320  53.647  1.00  0.00    -0.282 OA
HETATM   10  H13 UNL     1      24.243   3.961  53.949  1.00  0.00     0.245 HD
ENDBRANCH   8   9
BRANCH   8  11
HETATM   11  C11 UNL     1      25.120   3.379  51.259  1.00  0.00     0.063 A 
HETATM   12  C12 UNL     1      26.288   2.893  50.719  1.00  0.00     0.032 A 
HETATM   13  C13 UNL     1      26.778   3.511  49.592  1.00  0.00     0.002 A 
HETATM   14  C14 UNL     1      26.132   4.574  49.022  1.00  0.00     0.000 A 
HETATM   15  C15 UNL     1      24.963   5.102  49.518  1.00  0.00     0.002 A 
HETATM   16  C16 UNL     1      24.510   4.450  50.646  1.00  0.00     0.032 A 
ENDBRANCH   8  11
ENDBRANCH   7   8
BRANCH   1  17
HETATM   17  N1  UNL     1      25.910   0.213  53.241  1.00  0.00    -0.378 N 
BRANCH  17  18
HETATM   18  C2  UNL     1      26.818  -0.391  52.255  1.00  0.00     0.118 C 
HETATM   19  C1  UNL     1      26.837  -1.904  52.387  1.00  0.00     0.026 C 
ENDBRANCH  17  18
BRANCH  17  20
HETATM   20  C3  UNL     1      26.653   0.586  54.440  1.00  0.00     0.138 C 
BRANCH  20  21
HETATM   21  C4  UNL     1      28.127   0.796  54.172  1.00  0.00     0.134 C 
HETATM   22 CL1  UNL     1      28.325   2.497  53.664  1.00  0.00    -0.129 Cl
ENDBRANCH  20  21
ENDBRANCH  17  20
ENDBRANCH   1  17
TORSDOF 7
ENDMDL
MODEL 2
REMARK VINA RESULT:      -6.9      2.373      4.571
REMARK  7 active torsions:
REMARK  status: ('A' for Active; 'I' for Inactive)
REMARK    1  A    between atoms: C2_2  and  N1_3 
REMARK    2  A    between atoms: N1_3  and  C3_4 
REMARK    3  A    between atoms: N1_3  and  C5_7 
REMARK    4  A    between atoms: C3_4  and  C4_5 
REMARK    5  A    between atoms: C10_13  and  N2_14 
REMARK    6  A    between atoms: N2_14  and  O1_15 
REMARK    7  A    between atoms: N2_14  and  C11_16 
ROOT
HETATM    1  C5  UNL     1      23.181   0.579  53.203  1.00  0.00     0.061 A 
HETATM    2  C6  UNL     1      21.946   0.853  52.621  1.00  0.00     0.055 A 
HETATM    3  C7  UNL     1      20.879  -0.002  52.895  1.00  0.00     0.036 A 
HETATM    4 CL2  UNL     1      19.275   0.258  52.207  1.00  0.00    -0.084 Cl
HETATM    5  C8  UNL     1      20.994  -1.105  53.713  1.00  0.00     0.026 A 
HETATM    6  C9  UNL     1      22.241  -1.322  54.259  1.00  0.00     0.036 A 
HETATM    7  C10 UNL     1      23.334  -0.513  54.026  1.00  0.00     0.089 A 
ENDROOT
BRANCH   7   8
HETATM    8  N2  UNL     1      24.620  -0.759  54.560  1.00  0.00    -0.223 N 
BRANCH   8   9
HETATM    9  O1  UNL     1      24.299  -1.280  55.793  1.00  0.00    -0.282 OA
HETATM   10  H13 UNL     1      23.332  -1.165  56.000  1.00  0.00     0.245 HD
ENDBRANCH   8   9
BRANCH   8  11
HETATM   11  C11 UNL     1      25.989  -0.638  54.222  1.00  0.00     0.063 A 
HETATM   12  C12 UNL     1      26.758   0.233  54.957  1.00  0.00     0.032 A 
HETATM   13  C13 UNL     1      28.084   0.365  54.613  1.00  0.00     0.002 A 
HETATM   14  C14 UNL     1      28.626  -0.343  53.575  1.00  0.00     0.000 A 
HETATM   15  C15 UNL     1      27.906  -1.228  52.806  1.00  0.00     0.002 A 
HETATM   16  C16 UNL     1      26.584  -1.327  53.188  1.00  0.00     0.032 A 
ENDBRANCH   8  11
ENDBRANCH   7   8
BRANCH   1  17
HETATM   17  N1  UNL     1      24.130   1.580  52.807  1.00  0.00    -0.378 N 
BRANCH  17  18
HETATM   18  C2  UNL     1      24.625   2.802  53.458  1.00  0.00     0.118 C 
HETATM   19  C1  UNL     1      23.830   4.017  53.011  1.00  0.00     0.026 C 
ENDBRANCH  17  18
BRANCH  17  20
HETATM   20  C3  UNL     1      24.796   1.396  51.521  1.00  0.00     0.138 C 
BRANCH  20  21
HETATM   21  C4  UNL     1      26.216   1.915  51.519  1.00  0.00     0.134 C 
HETATM   22 CL1  UNL     1      26.389   2.951  50.074  1.00  0.00    -0.129 Cl
ENDBRANCH  20  21
ENDBRANCH  17  20
ENDBRANCH   1  17
TORSDOF 7
ENDMDL
MODEL 3
REMARK VINA RESULT:      -6.9      1.359      2.125
REMARK  7 active torsions:
REMARK  status: ('A' for Active; 'I' for Inactive)
REMARK    1  A    between atoms: C2_2  and  N1_3 
REMARK    2  A    between atoms: N1_3  and  C3_4 
REMARK    3  A    between atoms: N1_3  and  C5_7 
REMARK    4  A    between atoms: C3_4  and  C4_5 
REMARK    5  A    between atoms: C10_13  and  N2_14 
REMARK    6  A    between atoms: N2_14  and  O1_15 
REMARK    7  A    between atoms: N2_14  and  C11_16 
ROOT
HETATM    1  C5  UNL     1      24.624   0.960  53.079  1.00  0.00     0.061 A 
HETATM    2  C6  UNL     1      24.023  -0.225  53.496  1.00  0.00     0.055 A 
HETATM    3  C7  UNL     1      22.633  -0.321  53.434  1.00  0.00     0.036 A 
HETATM    4 CL2  UNL     1      21.775  -1.778  53.939  1.00  0.00    -0.084 Cl
HETATM    5  C8  UNL     1      21.831   0.703  52.980  1.00  0.00     0.026 A 
HETATM    6  C9  UNL     1      22.485   1.849  52.582  1.00  0.00     0.036 A 
HETATM    7  C10 UNL     1      23.855   2.004  52.619  1.00  0.00     0.089 A 
ENDROOT
BRANCH   7   8
HETATM    8  N2  UNL     1      24.521   3.194  52.242  1.00  0.00    -0.223 N 
BRANCH   8   9
HETATM    9  O1  UNL     1      24.526   3.882  53.433  1.00  0.00    -0.282 OA
HETATM   10  H13 UNL     1      24.820   4.826  53.312  1.00  0.00     0.245 HD
ENDBRANCH   8   9
BRANCH   8  11
HETATM   11  C11 UNL     1      25.118   3.806  51.113  1.00  0.00     0.063 A 
HETATM   12  C12 UNL     1      24.541   4.955  50.625  1.00  0.00     0.032 A 
HETATM   13  C13 UNL     1      25.110   5.537  49.517  1.00  0.00     0.002 A 
HETATM   14  C14 UNL     1      26.213   4.996  48.913  1.00  0.00     0.000 A 
HETATM   15  C15 UNL     1      26.831   3.850  49.356  1.00  0.00     0.002 A 
HETATM   16  C16 UNL     1      26.226   3.304  50.469  1.00  0.00     0.032 A 
ENDBRANCH   8  11
ENDBRANCH   7   8
BRANCH   1  17
HETATM   17  N1  UNL     1      26.049   0.846  53.210  1.00  0.00    -0.378 N 
BRANCH  17  18
HETATM   18  C2  UNL     1      27.006   1.365  54.198  1.00  0.00     0.118 C 
HETATM   19  C1  UNL     1      27.908   2.419  53.580  1.00  0.00     0.026 C 
ENDBRANCH  17  18
BRANCH  17  20
HETATM   20  C3  UNL     1      26.749   0.045  52.211  1.00  0.00     0.138 C 
BRANCH  20  21
HETATM   21  C4  UNL     1      27.635  -1.014  52.827  1.00  0.00     0.134 C 
HETATM   22 CL1  UNL     1      26.974  -2.598  52.331  1.00  0.00    -0.129 Cl
ENDBRANCH  20  21
ENDBRANCH  17  20
ENDBRANCH   1  17
TORSDOF 7
ENDMDL
MODEL 4
REMARK VINA RESULT:      -6.9      2.063      4.720
REMARK  7 active torsions:
REMARK  status: ('A' for Active; 'I' for Inactive)
REMARK    1  A    between atoms: C2_2  and  N1_3 
REMARK    2  A    between atoms: N1_3  and  C3_4 
REMARK    3  A    between atoms: N1_3  and  C5_7 
REMARK    4  A    between atoms: C3_4  and  C4_5 
REMARK    5  A    between atoms: C10_13  and  N2_14 
REMARK    6  A    between atoms: N2_14  and  O1_15 
REMARK    7  A    between atoms: N2_14  and  C11_16 
ROOT
HETATM    1  C5  UNL     1      24.396   1.532  52.004  1.00  0.00     0.061 A 
HETATM    2  C6  UNL     1      23.120   1.377  51.467  1.00  0.00     0.055 A 
HETATM    3  C7  UNL     1      22.273   0.426  52.035  1.00  0.00     0.036 A 
HETATM    4 CL2  UNL     1      20.638   0.152  51.429  1.00  0.00    -0.084 Cl
HETATM    5  C8  UNL     1      22.643  -0.367  53.100  1.00  0.00     0.026 A 
HETATM    6  C9  UNL     1      23.917  -0.166  53.586  1.00  0.00     0.036 A 
HETATM    7  C10 UNL     1      24.800   0.759  53.068  1.00  0.00     0.089 A 
ENDROOT
BRANCH   7   8
HETATM    8  N2  UNL     1      26.119   0.938  53.547  1.00  0.00    -0.223 N 
BRANCH   8   9
HETATM    9  O1  UNL     1      25.988   2.114  54.249  1.00  0.00    -0.282 OA
HETATM   10  H13 UNL     1      26.181   2.906  53.678  1.00  0.00     0.245 HD
ENDBRANCH   8   9
BRANCH   8  11
HETATM   11  C11 UNL     1      27.391   0.316  53.516  1.00  0.00     0.063 A 
HETATM   12  C12 UNL     1      28.488   1.084  53.826  1.00  0.00     0.032 A 
HETATM   13  C13 UNL     1      29.725   0.484  53.775  1.00  0.00     0.002 A 
HETATM   14  C14 UNL     1      29.867  -0.832  53.426  1.00  0.00     0.000 A 
HETATM   15  C15 UNL     1      28.806  -1.647  53.105  1.00  0.00     0.002 A 
HETATM   16  C16 UNL     1      27.588  -1.002  53.172  1.00  0.00     0.032 A 
ENDBRANCH   8  11
ENDBRANCH   7   8
BRANCH   1  17
HETATM   17  N1  UNL     1      25.094   2.562  51.290  1.00  0.00    -0.378 N 
BRANCH  17  18
HETATM   18  C2  UNL     1      26.425   2.621  50.668  1.00  0.00     0.118 C 
HETATM   19  C1  UNL     1      26.493   3.728  49.630  1.00  0.00     0.026 C 
ENDBRANCH  17  18
BRANCH  17  20
HETATM   20  C3  UNL     1      24.389   3.822  51.078  1.00  0.00     0.138 C 
BRANCH  20  21
HETATM   21  C4  UNL     1      23.993   4.495  52.373  1.00  0.00     0.134 C 
HETATM   22 CL1  UNL     1      22.235   4.801  52.285  1.00  0.00    -0.129 Cl
ENDBRANCH  20  21
ENDBRANCH  17  20
ENDBRANCH   1  17
TORSDOF 7
ENDMDL
MODEL 5
REMARK VINA RESULT:      -6.7      2.203      4.737
REMARK  7 active torsions:
REMARK  status: ('A' for Active; 'I' for Inactive)
REMARK    1  A    between atoms: C2_2  and  N1_3 
REMARK    2  A    between atoms: N1_3  and  C3_4 
REMARK    3  A    between atoms: N1_3  and  C5_7 
REMARK    4  A    between atoms: C3_4  and  C4_5 
REMARK    5  A    between atoms: C10_13  and  N2_14 
REMARK    6  A    between atoms: N2_14  and  O1_15 
REMARK    7  A    between atoms: N2_14  and  C11_16 
ROOT
HETATM    1  C5  UNL     1      24.234   2.160  51.236  1.00  0.00     0.061 A 
HETATM    2  C6  UNL     1      23.058   1.973  50.512  1.00  0.00     0.055 A 
HETATM    3  C7  UNL     1      22.098   1.100  51.022  1.00  0.00     0.036 A 
HETATM    4 CL2  UNL     1      20.575   0.795  50.183  1.00  0.00    -0.084 Cl
HETATM    5  C8  UNL     1      22.261   0.415  52.207  1.00  0.00     0.026 A 
HETATM    6  C9  UNL     1      23.445   0.642  52.875  1.00  0.00     0.036 A 
HETATM    7  C10 UNL     1      24.432   1.493  52.423  1.00  0.00     0.089 A 
ENDROOT
BRANCH   7   8
HETATM    8  N2  UNL     1      25.660   1.697  53.094  1.00  0.00    -0.223 N 
BRANCH   8   9
HETATM    9  O1  UNL     1      25.419   2.894  53.728  1.00  0.00    -0.282 OA
HETATM   10  H13 UNL     1      24.452   3.131  53.712  1.00  0.00     0.245 HD
ENDBRANCH   8   9
BRANCH   8  11
HETATM   11  C11 UNL     1      26.923   1.084  53.280  1.00  0.00     0.063 A 
HETATM   12  C12 UNL     1      27.983   1.889  53.625  1.00  0.00     0.032 A 
HETATM   13  C13 UNL     1      29.213   1.295  53.785  1.00  0.00     0.002 A 
HETATM   14  C14 UNL     1      29.385  -0.051  53.608  1.00  0.00     0.000 A 
HETATM   15  C15 UNL     1      28.362  -0.904  53.263  1.00  0.00     0.002 A 
HETATM   16  C16 UNL     1      27.149  -0.264  53.115  1.00  0.00     0.032 A 
ENDBRANCH   8  11
ENDBRANCH   7   8
BRANCH   1  17
HETATM   17  N1  UNL     1      25.074   3.099  50.549  1.00  0.00    -0.378 N 
BRANCH  17  18
HETATM   18  C2  UNL     1      26.468   3.040  50.087  1.00  0.00     0.118 C 
HETATM   19  C1  UNL     1      26.807   4.242  49.221  1.00  0.00     0.026 C 
ENDBRANCH  17  18
BRANCH  17  20
HETATM   20  C3  UNL     1      24.481   4.381  50.182  1.00  0.00     0.138 C 
BRANCH  20  21
HETATM   21  C4  UNL     1      23.973   5.153  51.379  1.00  0.00     0.134 C 
HETATM   22 CL1  UNL     1      24.427   6.862  51.126  1.00  0.00    -0.129 Cl
ENDBRANCH  20  21
ENDBRANCH  17  20
ENDBRANCH   1  17
TORSDOF 7
ENDMDL
MODEL 6
REMARK VINA RESULT:      -6.5      2.147      5.001
REMARK  7 active torsions:
REMARK  status: ('A' for Active; 'I' for Inactive)
REMARK    1  A    between atoms: C2_2  and  N1_3 
REMARK    2  A    between atoms: N1_3  and  C3_4 
REMARK    3  A    between atoms: N1_3  and  C5_7 
REMARK    4  A    between atoms: C3_4  and  C4_5 
REMARK    5  A    between atoms: C10_13  and  N2_14 
REMARK    6  A    between atoms: N2_14  and  O1_15 
REMARK    7  A    between atoms: N2_14  and  C11_16 
ROOT
HETATM    1  C5  UNL     1      25.935   2.724  51.262  1.00  0.00     0.061 A 
HETATM    2  C6  UNL     1      26.953   3.172  50.424  1.00  0.00     0.055 A 
HETATM    3  C7  UNL     1      26.667   4.197  49.523  1.00  0.00     0.036 A 
HETATM    4 CL2  UNL     1      27.886   4.837  48.419  1.00  0.00    -0.084 Cl
HETATM    5  C8  UNL     1      25.423   4.784  49.425  1.00  0.00     0.026 A 
HETATM    6  C9  UNL     1      24.459   4.296  50.281  1.00  0.00     0.036 A 
HETATM    7  C10 UNL     1      24.681   3.286  51.193  1.00  0.00     0.089 A 
ENDROOT
BRANCH   7   8
HETATM    8  N2  UNL     1      23.679   2.764  52.045  1.00  0.00    -0.223 N 
BRANCH   8   9
HETATM    9  O1  UNL     1      23.729   3.659  53.089  1.00  0.00    -0.282 OA
HETATM   10  H13 UNL     1      22.819   3.952  53.366  1.00  0.00     0.245 HD
ENDBRANCH   8   9
BRANCH   8  11
HETATM   11  C11 UNL     1      22.744   1.704  52.117  1.00  0.00     0.063 A 
HETATM   12  C12 UNL     1      22.116   1.321  50.955  1.00  0.00     0.032 A 
HETATM   13  C13 UNL     1      21.193   0.305  51.031  1.00  0.00     0.002 A 
HETATM   14  C14 UNL     1      20.902  -0.309  52.219  1.00  0.00     0.000 A 
HETATM   15  C15 UNL     1      21.498   0.031  53.411  1.00  0.00     0.002 A 
HETATM   16  C16 UNL     1      22.416   1.053  53.285  1.00  0.00     0.032 A 
ENDBRANCH   8  11
ENDBRANCH   7   8
BRANCH   1  17
HETATM   17  N1  UNL     1      26.439   1.684  52.114  1.00  0.00    -0.378 N 
BRANCH  17  18
HETATM   18  C2  UNL     1      26.584   0.232  51.938  1.00  0.00     0.118 C 
HETATM   19  C1  UNL     1      25.734  -0.525  52.945  1.00  0.00     0.026 C 
ENDBRANCH  17  18
BRANCH  17  20
HETATM   20  C3  UNL     1      26.953   2.083  53.420  1.00  0.00     0.138 C 
BRANCH  20  21
HETATM   21  C4  UNL     1      28.463   2.040  53.493  1.00  0.00     0.134 C 
HETATM   22 CL1  UNL     1      28.891   0.772  54.675  1.00  0.00    -0.129 Cl
ENDBRANCH  20  21
ENDBRANCH  17  20
ENDBRANCH   1  17
TORSDOF 7
ENDMDL
MODEL 7
REMARK VINA RESULT:      -6.3      2.685      4.456
REMARK  7 active torsions:
REMARK  status: ('A' for Active; 'I' for Inactive)
REMARK    1  A    between atoms: C2_2  and  N1_3 
REMARK    2  A    between atoms: N1_3  and  C3_4 
REMARK    3  A    between atoms: N1_3  and  C5_7 
REMARK    4  A    between atoms: C3_4  and  C4_5 
REMARK    5  A    between atoms: C10_13  and  N2_14 
REMARK    6  A    between atoms: N2_14  and  O1_15 
REMARK    7  A    between atoms: N2_14  and  C11_16 
ROOT
HETATM    1  C5  UNL     1      22.711   2.338  51.556  1.00  0.00     0.061 A 
HETATM    2  C6  UNL     1      22.130   1.120  51.898  1.00  0.00     0.055 A 
HETATM    3  C7  UNL     1      22.836   0.262  52.741  1.00  0.00     0.036 A 
HETATM    4 CL2  UNL     1      22.188  -1.304  53.234  1.00  0.00    -0.084 Cl
HETATM    5  C8  UNL     1      24.081   0.565  53.247  1.00  0.00     0.026 A 
HETATM    6  C9  UNL     1      24.603   1.785  52.871  1.00  0.00     0.036 A 
HETATM    7  C10 UNL     1      23.953   2.676  52.042  1.00  0.00     0.089 A 
ENDROOT
BRANCH   7   8
HETATM    8  N2  UNL     1      24.507   3.911  51.631  1.00  0.00    -0.223 N 
BRANCH   8   9
HETATM    9  O1  UNL     1      24.032   4.752  52.611  1.00  0.00    -0.282 OA
HETATM   10  H13 UNL     1      24.218   5.707  52.398  1.00  0.00     0.245 HD
ENDBRANCH   8   9
BRANCH   8  11
HETATM   11  C11 UNL     1      25.322   4.463  50.613  1.00  0.00     0.063 A 
HETATM   12  C12 UNL     1      25.055   5.748  50.203  1.00  0.00     0.032 A 
HETATM   13  C13 UNL     1      25.835   6.275  49.200  1.00  0.00     0.002 A 
HETATM   14  C14 UNL     1      26.843   5.551  48.624  1.00  0.00     0.000 A 
HETATM   15  C15 UNL     1      27.154   4.263  48.993  1.00  0.00     0.002 A 
HETATM   16  C16 UNL     1      26.347   3.778  50.001  1.00  0.00     0.032 A 
ENDBRANCH   8  11
ENDBRANCH   7   8
BRANCH   1  17
HETATM   17  N1  UNL     1      21.821   3.070  50.700  1.00  0.00    -0.378 N 
BRANCH  17  18
HETATM   18  C2  UNL     1      21.620   3.081  49.244  1.00  0.00     0.118 C 
HETATM   19  C1  UNL     1      22.907   2.740  48.513  1.00  0.00     0.026 C 
ENDBRANCH  17  18
BRANCH  17  20
HETATM   20  C3  UNL     1      20.882   3.984  51.340  1.00  0.00     0.138 C 
BRANCH  20  21
HETATM   21  C4  UNL     1      20.539   5.173  50.471  1.00  0.00     0.134 C 
HETATM   22 CL1  UNL     1      21.579   6.524  51.003  1.00  0.00    -0.129 Cl
ENDBRANCH  20  21
ENDBRANCH  17  20
ENDBRANCH   1  17
TORSDOF 7
ENDMDL
MODEL 8
REMARK VINA RESULT:      -6.2      7.659     10.064
REMARK  7 active torsions:
REMARK  status: ('A' for Active; 'I' for Inactive)
REMARK    1  A    between atoms: C2_2  and  N1_3 
REMARK    2  A    between atoms: N1_3  and  C3_4 
REMARK    3  A    between atoms: N1_3  and  C5_7 
REMARK    4  A    between atoms: C3_4  and  C4_5 
REMARK    5  A    between atoms: C10_13  and  N2_14 
REMARK    6  A    between atoms: N2_14  and  O1_15 
REMARK    7  A    between atoms: N2_14  and  C11_16 
ROOT
HETATM    1  C5  UNL     1      29.952   7.426  48.009  1.00  0.00     0.061 A 
HETATM    2  C6  UNL     1      28.762   8.065  47.669  1.00  0.00     0.055 A 
HETATM    3  C7  UNL     1      27.575   7.338  47.745  1.00  0.00     0.036 A 
HETATM    4 CL2  UNL     1      26.014   8.054  47.336  1.00  0.00    -0.084 Cl
HETATM    5  C8  UNL     1      27.528   6.018  48.140  1.00  0.00     0.026 A 
HETATM    6  C9  UNL     1      28.738   5.443  48.463  1.00  0.00     0.036 A 
HETATM    7  C10 UNL     1      29.945   6.110  48.409  1.00  0.00     0.089 A 
ENDROOT
BRANCH   7   8
HETATM    8  N2  UNL     1      31.188   5.506  48.708  1.00  0.00    -0.223 N 
BRANCH   8   9
HETATM    9  O1  UNL     1      31.235   5.660  50.074  1.00  0.00    -0.282 OA
HETATM   10  H13 UNL     1      32.154   5.520  50.430  1.00  0.00     0.245 HD
ENDBRANCH   8   9
BRANCH   8  11
HETATM   11  C11 UNL     1      32.274   4.858  48.071  1.00  0.00     0.063 A 
HETATM   12  C12 UNL     1      33.544   5.298  48.362  1.00  0.00     0.032 A 
HETATM   13  C13 UNL     1      34.597   4.681  47.726  1.00  0.00     0.002 A 
HETATM   14  C14 UNL     1      34.395   3.664  46.833  1.00  0.00     0.000 A 
HETATM   15  C15 UNL     1      33.148   3.184  46.504  1.00  0.00     0.002 A 
HETATM   16  C16 UNL     1      32.126   3.832  47.166  1.00  0.00     0.032 A 
ENDBRANCH   8  11
ENDBRANCH   7   8
BRANCH   1  17
HETATM   17  N1  UNL     1      31.045   8.348  47.877  1.00  0.00    -0.378 N 
BRANCH  17  18
HETATM   18  C2  UNL     1      32.184   8.421  46.951  1.00  0.00     0.118 C 
HETATM   19  C1  UNL     1      31.871   7.710  45.646  1.00  0.00     0.026 C 
ENDBRANCH  17  18
BRANCH  17  20
HETATM   20  C3  UNL     1      31.078   9.479  48.798  1.00  0.00     0.138 C 
BRANCH  20  21
HETATM   21  C4  UNL     1      31.313  10.798  48.096  1.00  0.00     0.134 C 
HETATM   22 CL1  UNL     1      30.764  12.084  49.208  1.00  0.00    -0.129 Cl
ENDBRANCH  20  21
ENDBRANCH  17  20
ENDBRANCH   1  17
TORSDOF 7
ENDMDL
MODEL 9
REMARK VINA RESULT:      -6.2      1.874      4.175
REMARK  7 active torsions:
REMARK  status: ('A' for Active; 'I' for Inactive)
REMARK    1  A    between atoms: C2_2  and  N1_3 
REMARK    2  A    between atoms: N1_3  and  C3_4 
REMARK    3  A    between atoms: N1_3  and  C5_7 
REMARK    4  A    between atoms: C3_4  and  C4_5 
REMARK    5  A    between atoms: C10_13  and  N2_14 
REMARK    6  A    between atoms: N2_14  and  O1_15 
REMARK    7  A    between atoms: N2_14  and  C11_16 
ROOT
HETATM    1  C5  UNL     1      24.347   0.876  52.646  1.00  0.00     0.061 A 
HETATM    2  C6  UNL     1      24.910  -0.392  52.766  1.00  0.00     0.055 A 
HETATM    3  C7  UNL     1      26.282  -0.531  52.559  1.00  0.00     0.036 A 
HETATM    4 CL2  UNL     1      27.092  -2.094  52.689  1.00  0.00    -0.084 Cl
HETATM    5  C8  UNL     1      27.102   0.529  52.239  1.00  0.00     0.026 A 
HETATM    6  C9  UNL     1      26.485   1.757  52.134  1.00  0.00     0.036 A 
HETATM    7  C10 UNL     1      25.135   1.958  52.328  1.00  0.00     0.089 A 
ENDROOT
BRANCH   7   8
HETATM    8  N2  UNL     1      24.500   3.214  52.185  1.00  0.00    -0.223 N 
BRANCH   8   9
HETATM    9  O1  UNL     1      24.501   3.660  53.487  1.00  0.00    -0.282 OA
HETATM   10  H13 UNL     1      25.411   3.934  53.781  1.00  0.00     0.245 HD
ENDBRANCH   8   9
BRANCH   8  11
HETATM   11  C11 UNL     1      23.931   4.049  51.193  1.00  0.00     0.063 A 
HETATM   12  C12 UNL     1      24.193   3.751  49.876  1.00  0.00     0.032 A 
HETATM   13  C13 UNL     1      23.657   4.575  48.914  1.00  0.00     0.002 A 
HETATM   14  C14 UNL     1      22.889   5.657  49.248  1.00  0.00     0.000 A 
HETATM   15  C15 UNL     1      22.595   6.003  50.547  1.00  0.00     0.002 A 
HETATM   16  C16 UNL     1      23.152   5.148  51.475  1.00  0.00     0.032 A 
ENDBRANCH   8  11
ENDBRANCH   7   8
BRANCH   1  17
HETATM   17  N1  UNL     1      22.938   0.801  52.910  1.00  0.00    -0.378 N 
BRANCH  17  18
HETATM   18  C2  UNL     1      21.759   1.309  52.194  1.00  0.00     0.118 C 
HETATM   19  C1  UNL     1      21.831   0.969  50.715  1.00  0.00     0.026 C 
ENDBRANCH  17  18
BRANCH  17  20
HETATM   20  C3  UNL     1      22.520   0.064  54.098  1.00  0.00     0.138 C 
BRANCH  20  21
HETATM   21  C4  UNL     1      21.020   0.064  54.289  1.00  0.00     0.134 C 
HETATM   22 CL1  UNL     1      20.480  -1.634  54.166  1.00  0.00    -0.129 Cl
ENDBRANCH  20  21
ENDBRANCH  17  20
ENDBRANCH   1  17
TORSDOF 7
ENDMDL
