MODEL 1
REMARK VINA RESULT:      -6.7      0.000      0.000
REMARK  9 active torsions:
REMARK  status: ('A' for Active; 'I' for Inactive)
REMARK    1  A    between atoms: C2_2  and  C3_3 
REMARK    2  A    between atoms: C4_4  and  C5_5 
REMARK    3  A    between atoms: C5_5  and  C6_6 
REMARK       I    between atoms: C6_6  and  N1_8 
REMARK    4  A    between atoms: N1_8  and  C7_9 
REMARK    5  A    between atoms: N1_8  and  C11_13 
REMARK    6  A    between atoms: C7_9  and  C8_10 
REMARK    7  A    between atoms: C8_10  and  C9_11 
REMARK    8  A    between atoms: C11_13  and  C12_14 
REMARK    9  A    between atoms: C17_20  and  O2_21 
ROOT
HETATM    1  C6  UNL     1      22.334   2.856  51.686  1.00  0.00     0.223 C 
HETATM    2  O1  UNL     1      21.657   2.967  50.607  1.00  0.00    -0.273 OA
HETATM    3  N1  UNL     1      23.758   2.893  51.615  1.00  0.00    -0.348 N 
ENDROOT
BRANCH   3   4
HETATM    4  C7  UNL     1      24.235   3.058  50.258  1.00  0.00     0.126 C 
BRANCH   4   5
HETATM    5  C8  UNL     1      25.153   4.215  50.050  1.00  0.00     0.020 C 
BRANCH   5   6
HETATM    6  C9  UNL     1      26.503   3.631  49.636  1.00  0.00    -0.003 C 
HETATM    7  C10 UNL     1      27.348   4.589  48.863  1.00  0.00     0.005 C 
ENDBRANCH   5   6
ENDBRANCH   4   5
ENDBRANCH   3   4
BRANCH   3   8
HETATM    8  C11 UNL     1      24.283   2.727  52.961  1.00  0.00     0.167 C 
BRANCH   8   9
HETATM    9  C12 UNL     1      25.142   1.530  53.130  1.00  0.00    -0.006 A 
HETATM   10  C13 UNL     1      24.645   0.270  52.831  1.00  0.00     0.012 A 
HETATM   11  C14 UNL     1      25.472  -0.817  53.021  1.00  0.00     0.002 A 
HETATM   12  C15 UNL     1      26.765  -0.696  53.493  1.00  0.00     0.022 A 
HETATM   13  C16 UNL     1      27.258   0.539  53.788  1.00  0.00     0.044 A 
HETATM   14 BR1  UNL     1      29.044   0.692  54.439  1.00  0.00    -0.048 Br
HETATM   15  C17 UNL     1      26.434   1.657  53.602  1.00  0.00     0.090 A 
BRANCH  15  16
HETATM   16  O2  UNL     1      27.017   2.863  53.924  1.00  0.00    -0.359 OA
HETATM   17  H22 UNL     1      27.772   3.286  53.408  1.00  0.00     0.217 HD
ENDBRANCH  15  16
ENDBRANCH   8   9
ENDBRANCH   3   8
BRANCH   1  18
HETATM   18  C5  UNL     1      21.086   2.742  52.446  1.00  0.00     0.130 C 
BRANCH  18  19
HETATM   19  C4  UNL     1      20.797   1.302  52.690  1.00  0.00    -0.018 C 
HETATM   20  C3  UNL     1      21.188   0.702  53.795  1.00  0.00    -0.004 C 
BRANCH  20  21
HETATM   21  C2  UNL     1      21.086  -0.633  54.345  1.00  0.00    -0.011 C 
HETATM   22  C1  UNL     1      22.014  -1.498  54.714  1.00  0.00     0.011 C 
ENDBRANCH  20  21
ENDBRANCH  18  19
ENDBRANCH   1  18
TORSDOF 9
ENDMDL
MODEL 2
REMARK VINA RESULT:      -6.7      2.570      4.795
REMARK  9 active torsions:
REMARK  status: ('A' for Active; 'I' for Inactive)
REMARK    1  A    between atoms: C2_2  and  C3_3 
REMARK    2  A    between atoms: C4_4  and  C5_5 
REMARK    3  A    between atoms: C5_5  and  C6_6 
REMARK       I    between atoms: C6_6  and  N1_8 
REMARK    4  A    between atoms: N1_8  and  C7_9 
REMARK    5  A    between atoms: N1_8  and  C11_13 
REMARK    6  A    between atoms: C7_9  and  C8_10 
REMARK    7  A    between atoms: C8_10  and  C9_11 
REMARK    8  A    between atoms: C11_13  and  C12_14 
REMARK    9  A    between atoms: C17_20  and  O2_21 
ROOT
HETATM    1  C6  UNL     1      25.473  -0.418  53.833  1.00  0.00     0.223 C 
HETATM    2  O1  UNL     1      25.839  -1.641  53.912  1.00  0.00    -0.273 OA
HETATM    3  N1  UNL     1      26.368   0.536  53.268  1.00  0.00    -0.348 N 
ENDROOT
BRANCH   3   4
HETATM    4  C7  UNL     1      27.619  -0.065  52.851  1.00  0.00     0.126 C 
BRANCH   4   5
HETATM    5  C8  UNL     1      28.837   0.512  53.488  1.00  0.00     0.020 C 
BRANCH   5   6
HETATM    6  C9  UNL     1      29.754  -0.665  53.818  1.00  0.00    -0.003 C 
HETATM    7  C10 UNL     1      29.291  -1.957  53.228  1.00  0.00     0.005 C 
ENDBRANCH   5   6
ENDBRANCH   4   5
ENDBRANCH   3   4
BRANCH   3   8
HETATM    8  C11 UNL     1      25.728   1.841  53.313  1.00  0.00     0.167 C 
BRANCH   8   9
HETATM    9  C12 UNL     1      25.358   2.376  51.980  1.00  0.00    -0.006 A 
HETATM   10  C13 UNL     1      24.075   2.190  51.487  1.00  0.00     0.012 A 
HETATM   11  C14 UNL     1      23.780   2.688  50.235  1.00  0.00     0.002 A 
HETATM   12  C15 UNL     1      24.709   3.359  49.464  1.00  0.00     0.022 A 
HETATM   13  C16 UNL     1      25.970   3.545  49.942  1.00  0.00     0.044 A 
HETATM   14 BR1  UNL     1      27.241   4.473  48.866  1.00  0.00    -0.048 Br
HETATM   15  C17 UNL     1      26.290   3.047  51.212  1.00  0.00     0.090 A 
BRANCH  15  16
HETATM   16  O2  UNL     1      27.586   3.284  51.615  1.00  0.00    -0.359 OA
HETATM   17  H22 UNL     1      28.062   2.767  52.337  1.00  0.00     0.217 HD
ENDBRANCH  15  16
ENDBRANCH   8   9
ENDBRANCH   3   8
BRANCH   1  18
HETATM   18  C5  UNL     1      24.191  -0.773  54.448  1.00  0.00     0.130 C 
BRANCH  18  19
HETATM   19  C4  UNL     1      23.123  -0.714  53.412  1.00  0.00    -0.018 C 
HETATM   20  C3  UNL     1      22.011  -0.036  53.610  1.00  0.00    -0.004 C 
BRANCH  20  21
HETATM   21  C2  UNL     1      20.807   0.229  52.853  1.00  0.00    -0.011 C 
HETATM   22  C1  UNL     1      20.584   0.259  51.550  1.00  0.00     0.011 C 
ENDBRANCH  20  21
ENDBRANCH  18  19
ENDBRANCH   1  18
TORSDOF 9
ENDMDL
MODEL 3
REMARK VINA RESULT:      -6.4      2.843      4.985
REMARK  9 active torsions:
REMARK  status: ('A' for Active; 'I' for Inactive)
REMARK    1  A    between atoms: C2_2  and  C3_3 
REMARK    2  A    between atoms: C4_4  and  C5_5 
REMARK    3  A    between atoms: C5_5  and  C6_6 
REMARK       I    between atoms: C6_6  and  N1_8 
REMARK    4  A    between atoms: N1_8  and  C7_9 
REMARK    5  A    between atoms: N1_8  and  C11_13 
REMARK    6  A    between atoms: C7_9  and  C8_10 
REMARK    7  A    between atoms: C8_10  and  C9_11 
REMARK    8  A    between atoms: C11_13  and  C12_14 
REMARK    9  A    between atoms: C17_20  and  O2_21 
ROOT
HETATM    1  C6  UNL     1      23.746   0.352  53.152  1.00  0.00     0.223 C 
HETATM    2  O1  UNL     1      23.317  -0.852  53.129  1.00  0.00    -0.273 OA
HETATM    3  N1  UNL     1      25.132   0.588  53.388  1.00  0.00    -0.348 N 
ENDROOT
BRANCH   3   4
HETATM    4  C7  UNL     1      25.873  -0.642  53.575  1.00  0.00     0.126 C 
BRANCH   4   5
HETATM    5  C8  UNL     1      27.105  -0.767  52.744  1.00  0.00     0.020 C 
BRANCH   5   6
HETATM    6  C9  UNL     1      28.270  -0.316  53.624  1.00  0.00    -0.003 C 
HETATM    7  C10 UNL     1      29.516  -1.110  53.405  1.00  0.00     0.005 C 
ENDBRANCH   5   6
ENDBRANCH   4   5
ENDBRANCH   3   4
BRANCH   3   8
HETATM    8  C11 UNL     1      25.354   2.025  53.384  1.00  0.00     0.167 C 
BRANCH   8   9
HETATM    9  C12 UNL     1      25.406   2.623  52.028  1.00  0.00    -0.006 A 
HETATM   10  C13 UNL     1      26.387   2.228  51.131  1.00  0.00     0.012 A 
HETATM   11  C14 UNL     1      26.410   2.824  49.888  1.00  0.00     0.002 A 
HETATM   12  C15 UNL     1      25.500   3.791  49.509  1.00  0.00     0.022 A 
HETATM   13  C16 UNL     1      24.535   4.184  50.386  1.00  0.00     0.044 A 
HETATM   14 BR1  UNL     1      23.285   5.521  49.850  1.00  0.00    -0.048 Br
HETATM   15  C17 UNL     1      24.494   3.591  51.655  1.00  0.00     0.090 A 
BRANCH  15  16
HETATM   16  O2  UNL     1      23.483   4.047  52.472  1.00  0.00    -0.359 OA
HETATM   17  H22 UNL     1      22.880   3.454  53.018  1.00  0.00     0.217 HD
ENDBRANCH  15  16
ENDBRANCH   8   9
ENDBRANCH   3   8
BRANCH   1  18
HETATM   18  C5  UNL     1      22.385   0.830  52.889  1.00  0.00     0.130 C 
BRANCH  18  19
HETATM   19  C4  UNL     1      22.015   0.490  51.488  1.00  0.00    -0.018 C 
HETATM   20  C3  UNL     1      22.016   1.402  50.537  1.00  0.00    -0.004 C 
BRANCH  20  21
HETATM   21  C2  UNL     1      21.723   1.427  49.120  1.00  0.00    -0.011 C 
HETATM   22  C1  UNL     1      22.345   2.012  48.111  1.00  0.00     0.011 C 
ENDBRANCH  20  21
ENDBRANCH  18  19
ENDBRANCH   1  18
TORSDOF 9
ENDMDL
MODEL 4
REMARK VINA RESULT:      -6.4      1.447      5.141
REMARK  9 active torsions:
REMARK  status: ('A' for Active; 'I' for Inactive)
REMARK    1  A    between atoms: C2_2  and  C3_3 
REMARK    2  A    between atoms: C4_4  and  C5_5 
REMARK    3  A    between atoms: C5_5  and  C6_6 
REMARK       I    between atoms: C6_6  and  N1_8 
REMARK    4  A    between atoms: N1_8  and  C7_9 
REMARK    5  A    between atoms: N1_8  and  C11_13 
REMARK    6  A    between atoms: C7_9  and  C8_10 
REMARK    7  A    between atoms: C8_10  and  C9_11 
REMARK    8  A    between atoms: C11_13  and  C12_14 
REMARK    9  A    between atoms: C17_20  and  O2_21 
ROOT
HETATM    1  C6  UNL     1      24.726   3.009  50.861  1.00  0.00     0.223 C 
HETATM    2  O1  UNL     1      24.239   3.176  49.690  1.00  0.00    -0.273 OA
HETATM    3  N1  UNL     1      23.836   2.867  51.965  1.00  0.00    -0.348 N 
ENDROOT
BRANCH   3   4
HETATM    4  C7  UNL     1      22.447   2.940  51.563  1.00  0.00     0.126 C 
BRANCH   4   5
HETATM    5  C8  UNL     1      21.570   1.878  52.136  1.00  0.00     0.020 C 
BRANCH   5   6
HETATM    6  C9  UNL     1      21.696   0.666  51.214  1.00  0.00    -0.003 C 
HETATM    7  C10 UNL     1      21.371   0.973  49.789  1.00  0.00     0.005 C 
ENDBRANCH   5   6
ENDBRANCH   4   5
ENDBRANCH   3   4
BRANCH   3   8
HETATM    8  C11 UNL     1      24.633   2.712  53.172  1.00  0.00     0.167 C 
BRANCH   8   9
HETATM    9  C12 UNL     1      25.438   1.467  53.207  1.00  0.00    -0.006 A 
HETATM   10  C13 UNL     1      24.836   0.243  52.958  1.00  0.00     0.012 A 
HETATM   11  C14 UNL     1      25.617  -0.891  53.020  1.00  0.00     0.002 A 
HETATM   12  C15 UNL     1      26.965  -0.851  53.319  1.00  0.00     0.022 A 
HETATM   13  C16 UNL     1      27.562   0.348  53.565  1.00  0.00     0.044 A 
HETATM   14 BR1  UNL     1      29.424   0.389  53.976  1.00  0.00    -0.048 Br
HETATM   15  C17 UNL     1      26.786   1.513  53.507  1.00  0.00     0.090 A 
BRANCH  15  16
HETATM   16  O2  UNL     1      27.473   2.678  53.766  1.00  0.00    -0.359 OA
HETATM   17  H22 UNL     1      27.293   3.559  53.313  1.00  0.00     0.217 HD
ENDBRANCH  15  16
ENDBRANCH   8   9
ENDBRANCH   3   8
BRANCH   1  18
HETATM   18  C5  UNL     1      26.077   3.071  50.296  1.00  0.00     0.130 C 
BRANCH  18  19
HETATM   19  C4  UNL     1      26.181   4.271  49.421  1.00  0.00    -0.018 C 
HETATM   20  C3  UNL     1      27.350   4.735  49.029  1.00  0.00    -0.004 C 
BRANCH  20  21
HETATM   21  C2  UNL     1      27.809   5.836  48.209  1.00  0.00    -0.011 C 
HETATM   22  C1  UNL     1      27.869   7.135  48.446  1.00  0.00     0.011 C 
ENDBRANCH  20  21
ENDBRANCH  18  19
ENDBRANCH   1  18
TORSDOF 9
ENDMDL
MODEL 5
REMARK VINA RESULT:      -6.4      2.814      4.547
REMARK  9 active torsions:
REMARK  status: ('A' for Active; 'I' for Inactive)
REMARK    1  A    between atoms: C2_2  and  C3_3 
REMARK    2  A    between atoms: C4_4  and  C5_5 
REMARK    3  A    between atoms: C5_5  and  C6_6 
REMARK       I    between atoms: C6_6  and  N1_8 
REMARK    4  A    between atoms: N1_8  and  C7_9 
REMARK    5  A    between atoms: N1_8  and  C11_13 
REMARK    6  A    between atoms: C7_9  and  C8_10 
REMARK    7  A    between atoms: C8_10  and  C9_11 
REMARK    8  A    between atoms: C11_13  and  C12_14 
REMARK    9  A    between atoms: C17_20  and  O2_21 
ROOT
HETATM    1  C6  UNL     1      25.806   1.116  52.462  1.00  0.00     0.223 C 
HETATM    2  O1  UNL     1      26.634   0.430  51.768  1.00  0.00    -0.273 OA
HETATM    3  N1  UNL     1      25.581   2.480  52.118  1.00  0.00    -0.348 N 
ENDROOT
BRANCH   3   4
HETATM    4  C7  UNL     1      26.369   2.896  50.976  1.00  0.00     0.126 C 
BRANCH   4   5
HETATM    5  C8  UNL     1      25.581   3.216  49.751  1.00  0.00     0.020 C 
BRANCH   5   6
HETATM    6  C9  UNL     1      26.000   4.621  49.320  1.00  0.00    -0.003 C 
HETATM    7  C10 UNL     1      27.399   4.686  48.801  1.00  0.00     0.005 C 
ENDBRANCH   5   6
ENDBRANCH   4   5
ENDBRANCH   3   4
BRANCH   3   8
HETATM    8  C11 UNL     1      24.623   3.033  53.063  1.00  0.00     0.167 C 
BRANCH   8   9
HETATM    9  C12 UNL     1      23.354   3.481  52.441  1.00  0.00    -0.006 A 
HETATM   10  C13 UNL     1      22.332   2.572  52.215  1.00  0.00     0.012 A 
HETATM   11  C14 UNL     1      21.176   3.028  51.617  1.00  0.00     0.002 A 
HETATM   12  C15 UNL     1      21.002   4.345  51.240  1.00  0.00     0.022 A 
HETATM   13  C16 UNL     1      22.002   5.243  51.460  1.00  0.00     0.044 A 
HETATM   14 BR1  UNL     1      21.749   7.058  50.934  1.00  0.00    -0.048 Br
HETATM   15  C17 UNL     1      23.186   4.800  52.066  1.00  0.00     0.090 A 
BRANCH  15  16
HETATM   16  O2  UNL     1      24.139   5.777  52.251  1.00  0.00    -0.359 OA
HETATM   17  H22 UNL     1      24.950   5.677  52.841  1.00  0.00     0.217 HD
ENDBRANCH  15  16
ENDBRANCH   8   9
ENDBRANCH   3   8
BRANCH   1  18
HETATM   18  C5  UNL     1      25.553  -0.059  53.301  1.00  0.00     0.130 C 
BRANCH  18  19
HETATM   19  C4  UNL     1      24.145  -0.501  53.104  1.00  0.00    -0.018 C 
HETATM   20  C3  UNL     1      23.271  -0.467  54.089  1.00  0.00    -0.004 C 
BRANCH  20  21
HETATM   21  C2  UNL     1      21.874  -0.807  54.251  1.00  0.00    -0.011 C 
HETATM   22  C1  UNL     1      20.802  -0.046  54.392  1.00  0.00     0.011 C 
ENDBRANCH  20  21
ENDBRANCH  18  19
ENDBRANCH   1  18
TORSDOF 9
ENDMDL
MODEL 6
REMARK VINA RESULT:      -6.2      2.705      6.338
REMARK  9 active torsions:
REMARK  status: ('A' for Active; 'I' for Inactive)
REMARK    1  A    between atoms: C2_2  and  C3_3 
REMARK    2  A    between atoms: C4_4  and  C5_5 
REMARK    3  A    between atoms: C5_5  and  C6_6 
REMARK       I    between atoms: C6_6  and  N1_8 
REMARK    4  A    between atoms: N1_8  and  C7_9 
REMARK    5  A    between atoms: N1_8  and  C11_13 
REMARK    6  A    between atoms: C7_9  and  C8_10 
REMARK    7  A    between atoms: C8_10  and  C9_11 
REMARK    8  A    between atoms: C11_13  and  C12_14 
REMARK    9  A    between atoms: C17_20  and  O2_21 
ROOT
HETATM    1  C6  UNL     1      24.818   1.208  52.833  1.00  0.00     0.223 C 
HETATM    2  O1  UNL     1      25.250   0.007  52.747  1.00  0.00    -0.273 OA
HETATM    3  N1  UNL     1      23.411   1.438  52.821  1.00  0.00    -0.348 N 
ENDROOT
BRANCH   3   4
HETATM    4  C7  UNL     1      22.655   0.208  52.707  1.00  0.00     0.126 C 
BRANCH   4   5
HETATM    5  C8  UNL     1      21.586   0.029  53.731  1.00  0.00     0.020 C 
BRANCH   5   6
HETATM    6  C9  UNL     1      21.862  -1.308  54.419  1.00  0.00    -0.003 C 
HETATM    7  C10 UNL     1      23.043  -1.267  55.333  1.00  0.00     0.005 C 
ENDBRANCH   5   6
ENDBRANCH   4   5
ENDBRANCH   3   4
BRANCH   3   8
HETATM    8  C11 UNL     1      23.186   2.872  52.909  1.00  0.00     0.167 C 
BRANCH   8   9
HETATM    9  C12 UNL     1      23.245   3.572  51.603  1.00  0.00    -0.006 A 
HETATM   10  C13 UNL     1      22.942   2.890  50.434  1.00  0.00     0.012 A 
HETATM   11  C14 UNL     1      23.029   3.575  49.241  1.00  0.00     0.002 A 
HETATM   12  C15 UNL     1      23.402   4.904  49.170  1.00  0.00     0.022 A 
HETATM   13  C16 UNL     1      23.700   5.578  50.314  1.00  0.00     0.044 A 
HETATM   14 BR1  UNL     1      24.215   7.411  50.202  1.00  0.00    -0.048 Br
HETATM   15  C17 UNL     1      23.619   4.900  51.539  1.00  0.00     0.090 A 
BRANCH  15  16
HETATM   16  O2  UNL     1      23.935   5.662  52.642  1.00  0.00    -0.359 OA
HETATM   17  H22 UNL     1      23.883   6.668  52.674  1.00  0.00     0.217 HD
ENDBRANCH  15  16
ENDBRANCH   8   9
ENDBRANCH   3   8
BRANCH   1  18
HETATM   18  C5  UNL     1      26.200   1.690  52.899  1.00  0.00     0.130 C 
BRANCH  18  19
HETATM   19  C4  UNL     1      26.737   1.813  51.516  1.00  0.00    -0.018 C 
HETATM   20  C3  UNL     1      26.457   2.858  50.763  1.00  0.00    -0.004 C 
BRANCH  20  21
HETATM   21  C2  UNL     1      26.792   3.292  49.424  1.00  0.00    -0.011 C 
HETATM   22  C1  UNL     1      27.167   4.471  48.958  1.00  0.00     0.011 C 
ENDBRANCH  20  21
ENDBRANCH  18  19
ENDBRANCH   1  18
TORSDOF 9
ENDMDL
MODEL 7
REMARK VINA RESULT:      -6.2      3.050      5.046
REMARK  9 active torsions:
REMARK  status: ('A' for Active; 'I' for Inactive)
REMARK    1  A    between atoms: C2_2  and  C3_3 
REMARK    2  A    between atoms: C4_4  and  C5_5 
REMARK    3  A    between atoms: C5_5  and  C6_6 
REMARK       I    between atoms: C6_6  and  N1_8 
REMARK    4  A    between atoms: N1_8  and  C7_9 
REMARK    5  A    between atoms: N1_8  and  C11_13 
REMARK    6  A    between atoms: C7_9  and  C8_10 
REMARK    7  A    between atoms: C8_10  and  C9_11 
REMARK    8  A    between atoms: C11_13  and  C12_14 
REMARK    9  A    between atoms: C17_20  and  O2_21 
ROOT
HETATM    1  C6  UNL     1      24.877   0.500  53.270  1.00  0.00     0.223 C 
HETATM    2  O1  UNL     1      25.556  -0.583  53.238  1.00  0.00    -0.273 OA
HETATM    3  N1  UNL     1      25.498   1.718  52.866  1.00  0.00    -0.348 N 
ENDROOT
BRANCH   3   4
HETATM    4  C7  UNL     1      26.875   1.523  52.462  1.00  0.00     0.126 C 
BRANCH   4   5
HETATM    5  C8  UNL     1      27.887   2.181  53.337  1.00  0.00     0.020 C 
BRANCH   5   6
HETATM    6  C9  UNL     1      28.955   1.128  53.635  1.00  0.00    -0.003 C 
HETATM    7  C10 UNL     1      28.627   0.274  54.815  1.00  0.00     0.005 C 
ENDBRANCH   5   6
ENDBRANCH   4   5
ENDBRANCH   3   4
BRANCH   3   8
HETATM    8  C11 UNL     1      24.529   2.792  53.015  1.00  0.00     0.167 C 
BRANCH   8   9
HETATM    9  C12 UNL     1      24.197   3.483  51.745  1.00  0.00    -0.006 A 
HETATM   10  C13 UNL     1      24.166   2.774  50.554  1.00  0.00     0.012 A 
HETATM   11  C14 UNL     1      23.872   3.461  49.395  1.00  0.00     0.002 A 
HETATM   12  C15 UNL     1      23.609   4.816  49.380  1.00  0.00     0.022 A 
HETATM   13  C16 UNL     1      23.638   5.519  50.546  1.00  0.00     0.044 A 
HETATM   14 BR1  UNL     1      23.275   7.390  50.510  1.00  0.00    -0.048 Br
HETATM   15  C17 UNL     1      23.936   4.840  51.736  1.00  0.00     0.090 A 
BRANCH  15  16
HETATM   16  O2  UNL     1      23.940   5.629  52.864  1.00  0.00    -0.359 OA
HETATM   17  H22 UNL     1      23.463   5.400  53.722  1.00  0.00     0.217 HD
ENDBRANCH  15  16
ENDBRANCH   8   9
ENDBRANCH   3   8
BRANCH   1  18
HETATM   18  C5  UNL     1      23.721  -0.252  53.767  1.00  0.00     0.130 C 
BRANCH  18  19
HETATM   19  C4  UNL     1      22.806  -0.539  52.628  1.00  0.00    -0.018 C 
HETATM   20  C3  UNL     1      21.945   0.360  52.197  1.00  0.00    -0.004 C 
BRANCH  20  21
HETATM   21  C2  UNL     1      20.942   0.423  51.155  1.00  0.00    -0.011 C 
HETATM   22  C1  UNL     1      21.016   0.813  49.895  1.00  0.00     0.011 C 
ENDBRANCH  20  21
ENDBRANCH  18  19
ENDBRANCH   1  18
TORSDOF 9
ENDMDL
MODEL 8
REMARK VINA RESULT:      -6.1      2.866      5.255
REMARK  9 active torsions:
REMARK  status: ('A' for Active; 'I' for Inactive)
REMARK    1  A    between atoms: C2_2  and  C3_3 
REMARK    2  A    between atoms: C4_4  and  C5_5 
REMARK    3  A    between atoms: C5_5  and  C6_6 
REMARK       I    between atoms: C6_6  and  N1_8 
REMARK    4  A    between atoms: N1_8  and  C7_9 
REMARK    5  A    between atoms: N1_8  and  C11_13 
REMARK    6  A    between atoms: C7_9  and  C8_10 
REMARK    7  A    between atoms: C8_10  and  C9_11 
REMARK    8  A    between atoms: C11_13  and  C12_14 
REMARK    9  A    between atoms: C17_20  and  O2_21 
ROOT
HETATM    1  C6  UNL     1      25.986   2.916  51.155  1.00  0.00     0.223 C 
HETATM    2  O1  UNL     1      26.833   2.776  50.208  1.00  0.00    -0.273 OA
HETATM    3  N1  UNL     1      26.141   2.141  52.341  1.00  0.00    -0.348 N 
ENDROOT
BRANCH   3   4
HETATM    4  C7  UNL     1      27.297   1.271  52.281  1.00  0.00     0.126 C 
BRANCH   4   5
HETATM    5  C8  UNL     1      27.526   0.443  53.499  1.00  0.00     0.020 C 
BRANCH   5   6
HETATM    6  C9  UNL     1      29.040   0.378  53.703  1.00  0.00    -0.003 C 
HETATM    7  C10 UNL     1      29.577  -1.015  53.692  1.00  0.00     0.005 C 
ENDBRANCH   5   6
ENDBRANCH   4   5
ENDBRANCH   3   4
BRANCH   3   8
HETATM    8  C11 UNL     1      25.048   2.469  53.242  1.00  0.00     0.167 C 
BRANCH   8   9
HETATM    9  C12 UNL     1      23.779   1.765  52.932  1.00  0.00    -0.006 A 
HETATM   10  C13 UNL     1      23.734   0.379  52.935  1.00  0.00     0.012 A 
HETATM   11  C14 UNL     1      22.539  -0.233  52.622  1.00  0.00     0.002 A 
HETATM   12  C15 UNL     1      21.397   0.479  52.309  1.00  0.00     0.022 A 
HETATM   13  C16 UNL     1      21.435   1.840  52.304  1.00  0.00     0.044 A 
HETATM   14 BR1  UNL     1      19.852   2.810  51.869  1.00  0.00    -0.048 Br
HETATM   15  C17 UNL     1      22.641   2.482  52.619  1.00  0.00     0.090 A 
BRANCH  15  16
HETATM   16  O2  UNL     1      22.585   3.858  52.592  1.00  0.00    -0.359 OA
HETATM   17  H22 UNL     1      22.322   4.434  53.376  1.00  0.00     0.217 HD
ENDBRANCH  15  16
ENDBRANCH   8   9
ENDBRANCH   3   8
BRANCH   1  18
HETATM   18  C5  UNL     1      25.271   3.914  50.353  1.00  0.00     0.130 C 
BRANCH  18  19
HETATM   19  C4  UNL     1      24.565   3.225  49.239  1.00  0.00    -0.018 C 
HETATM   20  C3  UNL     1      23.267   3.004  49.281  1.00  0.00    -0.004 C 
BRANCH  20  21
HETATM   21  C2  UNL     1      22.289   2.386  48.412  1.00  0.00    -0.011 C 
HETATM   22  C1  UNL     1      21.580   1.279  48.544  1.00  0.00     0.011 C 
ENDBRANCH  20  21
ENDBRANCH  18  19
ENDBRANCH   1  18
TORSDOF 9
ENDMDL
MODEL 9
REMARK VINA RESULT:      -6.1      2.787      5.172
REMARK  9 active torsions:
REMARK  status: ('A' for Active; 'I' for Inactive)
REMARK    1  A    between atoms: C2_2  and  C3_3 
REMARK    2  A    between atoms: C4_4  and  C5_5 
REMARK    3  A    between atoms: C5_5  and  C6_6 
REMARK       I    between atoms: C6_6  and  N1_8 
REMARK    4  A    between atoms: N1_8  and  C7_9 
REMARK    5  A    between atoms: N1_8  and  C11_13 
REMARK    6  A    between atoms: C7_9  and  C8_10 
REMARK    7  A    between atoms: C8_10  and  C9_11 
REMARK    8  A    between atoms: C11_13  and  C12_14 
REMARK    9  A    between atoms: C17_20  and  O2_21 
ROOT
HETATM    1  C6  UNL     1      23.638   0.390  53.148  1.00  0.00     0.223 C 
HETATM    2  O1  UNL     1      22.915  -0.656  53.015  1.00  0.00    -0.273 OA
HETATM    3  N1  UNL     1      23.213   1.606  52.537  1.00  0.00    -0.348 N 
ENDROOT
BRANCH   3   4
HETATM    4  C7  UNL     1      21.962   1.453  51.824  1.00  0.00     0.126 C 
BRANCH   4   5
HETATM    5  C8  UNL     1      22.098   1.087  50.385  1.00  0.00     0.020 C 
BRANCH   5   6
HETATM    6  C9  UNL     1      21.774   2.347  49.583  1.00  0.00    -0.003 C 
HETATM    7  C10 UNL     1      22.616   2.499  48.359  1.00  0.00     0.005 C 
ENDBRANCH   5   6
ENDBRANCH   4   5
ENDBRANCH   3   4
BRANCH   3   8
HETATM    8  C11 UNL     1      24.210   2.627  52.818  1.00  0.00     0.167 C 
BRANCH   8   9
HETATM    9  C12 UNL     1      24.883   3.161  51.609  1.00  0.00    -0.006 A 
HETATM   10  C13 UNL     1      25.974   2.496  51.070  1.00  0.00     0.012 A 
HETATM   11  C14 UNL     1      26.581   3.039  49.956  1.00  0.00     0.002 A 
HETATM   12  C15 UNL     1      26.143   4.209  49.366  1.00  0.00     0.022 A 
HETATM   13  C16 UNL     1      25.073   4.866  49.891  1.00  0.00     0.044 A 
HETATM   14 BR1  UNL     1      24.481   6.480  49.067  1.00  0.00    -0.048 Br
HETATM   15  C17 UNL     1      24.442   4.331  51.023  1.00  0.00     0.090 A 
BRANCH  15  16
HETATM   16  O2  UNL     1      23.367   5.061  51.482  1.00  0.00    -0.359 OA
HETATM   17  H22 UNL     1      22.762   4.772  52.234  1.00  0.00     0.217 HD
ENDBRANCH  15  16
ENDBRANCH   8   9
ENDBRANCH   3   8
BRANCH   1  18
HETATM   18  C5  UNL     1      24.591  -0.384  53.949  1.00  0.00     0.130 C 
BRANCH  18  19
HETATM   19  C4  UNL     1      25.813  -0.636  53.137  1.00  0.00    -0.018 C 
HETATM   20  C3  UNL     1      27.015  -0.594  53.675  1.00  0.00    -0.004 C 
BRANCH  20  21
HETATM   21  C2  UNL     1      28.371  -0.780  53.205  1.00  0.00    -0.011 C 
HETATM   22  C1  UNL     1      29.515  -0.259  53.613  1.00  0.00     0.011 C 
ENDBRANCH  20  21
ENDBRANCH  18  19
ENDBRANCH   1  18
TORSDOF 9
ENDMDL
