MODEL 1
REMARK VINA RESULT:      -7.3      0.000      0.000
REMARK  3 active torsions:
REMARK  status: ('A' for Active; 'I' for Inactive)
REMARK    1  A    between atoms: N1_2  and  C3_4 
REMARK    2  A    between atoms: N2_7  and  C6_8 
REMARK    3  A    between atoms: C7_9  and  C8_10 
ROOT
HETATM    1  C8  UNL     1      23.541   3.995  52.686  1.00  0.00     0.051 C 
HETATM    2  C9  UNL     1      23.800   4.961  51.836  1.00  0.00     0.116 C 
HETATM    3  N3  UNL     1      25.053   5.016  51.127  1.00  0.00    -0.357 N 
HETATM    4  C10 UNL     1      25.072   6.163  50.201  1.00  0.00     0.271 C 
HETATM    5  N4  UNL     1      23.889   6.059  49.417  1.00  0.00    -0.286 NA
HETATM    6  C11 UNL     1      23.274   7.064  48.987  1.00  0.00     0.085 C 
HETATM    7  C12 UNL     1      22.164   6.361  48.271  1.00  0.00     0.048 C 
HETATM    8  C13 UNL     1      21.449   5.378  49.146  1.00  0.00     0.026 C 
HETATM    9  C14 UNL     1      20.805   5.994  50.333  1.00  0.00     0.139 C 
HETATM   10  N5  UNL     1      21.741   6.653  51.171  1.00  0.00    -0.335 N 
HETATM   11  N6  UNL     1      22.740   5.894  51.700  1.00  0.00    -0.290 N 
HETATM   12  H15 UNL     1      25.797   4.324  51.284  1.00  0.00     0.162 HD
HETATM   13  H25 UNL     1      21.978   7.609  50.945  1.00  0.00     0.180 HD
HETATM   14  H26 UNL     1      22.588   6.323  52.659  1.00  0.00     0.188 HD
ENDROOT
BRANCH   1  15
HETATM   15  C7  UNL     1      24.331   2.854  53.104  1.00  0.00     0.021 C 
HETATM   16  C6  UNL     1      24.192   1.532  53.048  1.00  0.00     0.085 C 
BRANCH  16  17
HETATM   17  N2  UNL     1      25.176   0.648  53.563  1.00  0.00    -0.390 N 
HETATM   18  C5  UNL     1      26.289   1.053  54.405  1.00  0.00     0.124 C 
HETATM   19  C4  UNL     1      27.616   0.827  53.740  1.00  0.00     0.044 C 
HETATM   20  C3  UNL     1      27.729  -0.388  52.887  1.00  0.00     0.081 C 
HETATM   21  C16 UNL     1      26.480  -1.102  52.524  1.00  0.00     0.044 C 
HETATM   22  C15 UNL     1      25.286  -0.804  53.368  1.00  0.00     0.124 C 
BRANCH  20  23
HETATM   23  N1  UNL     1      28.742  -1.269  53.404  1.00  0.00    -0.416 N 
HETATM   24  C1  UNL     1      30.018  -0.732  53.610  1.00  0.00     0.143 C 
HETATM   25  C2  UNL     1      28.644  -2.627  52.996  1.00  0.00     0.143 C 
ENDBRANCH  20  23
ENDBRANCH  16  17
ENDBRANCH   1  15
TORSDOF 3
ENDMDL
MODEL 2
REMARK VINA RESULT:      -7.2      3.670      5.517
REMARK  3 active torsions:
REMARK  status: ('A' for Active; 'I' for Inactive)
REMARK    1  A    between atoms: N1_2  and  C3_4 
REMARK    2  A    between atoms: N2_7  and  C6_8 
REMARK    3  A    between atoms: C7_9  and  C8_10 
ROOT
HETATM    1  C8  UNL     1      27.164   5.610  48.567  1.00  0.00     0.051 C 
HETATM    2  C9  UNL     1      27.169   6.904  48.783  1.00  0.00     0.116 C 
HETATM    3  N3  UNL     1      26.731   7.453  50.042  1.00  0.00    -0.357 N 
HETATM    4  C10 UNL     1      26.883   8.919  50.047  1.00  0.00     0.271 C 
HETATM    5  N4  UNL     1      28.228   9.179  49.660  1.00  0.00    -0.286 NA
HETATM    6  C11 UNL     1      28.557  10.197  49.005  1.00  0.00     0.085 C 
HETATM    7  C12 UNL     1      30.026   9.932  48.898  1.00  0.00     0.048 C 
HETATM    8  C13 UNL     1      30.326   8.573  48.347  1.00  0.00     0.026 C 
HETATM    9  C14 UNL     1      29.801   8.356  46.976  1.00  0.00     0.139 C 
HETATM   10  N5  UNL     1      28.391   8.500  46.911  1.00  0.00    -0.335 N 
HETATM   11  N6  UNL     1      27.646   7.661  47.682  1.00  0.00    -0.290 N 
HETATM   12  H15 UNL     1      26.372   6.857  50.798  1.00  0.00     0.162 HD
HETATM   13  H25 UNL     1      28.022   9.433  46.783  1.00  0.00     0.180 HD
HETATM   14  H26 UNL     1      26.992   7.459  46.870  1.00  0.00     0.188 HD
ENDROOT
BRANCH   1  15
HETATM   15  C7  UNL     1      26.771   4.502  49.414  1.00  0.00     0.021 C 
HETATM   16  C6  UNL     1      25.697   4.194  50.137  1.00  0.00     0.085 C 
BRANCH  16  17
HETATM   17  N2  UNL     1      25.612   2.990  50.885  1.00  0.00    -0.390 N 
HETATM   18  C5  UNL     1      24.458   2.588  51.671  1.00  0.00     0.124 C 
HETATM   19  C4  UNL     1      24.769   2.510  53.138  1.00  0.00     0.044 C 
HETATM   20  C3  UNL     1      26.128   2.020  53.500  1.00  0.00     0.081 C 
HETATM   21  C16 UNL     1      27.145   1.931  52.424  1.00  0.00     0.044 C 
HETATM   22  C15 UNL     1      26.623   1.934  51.026  1.00  0.00     0.124 C 
BRANCH  20  23
HETATM   23  N1  UNL     1      26.032   0.812  54.275  1.00  0.00    -0.416 N 
HETATM   24  C1  UNL     1      27.222   0.271  54.775  1.00  0.00     0.143 C 
HETATM   25  C2  UNL     1      24.997  -0.084  53.892  1.00  0.00     0.143 C 
ENDBRANCH  20  23
ENDBRANCH  16  17
ENDBRANCH   1  15
TORSDOF 3
ENDMDL
MODEL 3
REMARK VINA RESULT:      -7.2      3.094      8.501
REMARK  3 active torsions:
REMARK  status: ('A' for Active; 'I' for Inactive)
REMARK    1  A    between atoms: N1_2  and  C3_4 
REMARK    2  A    between atoms: N2_7  and  C6_8 
REMARK    3  A    between atoms: C7_9  and  C8_10 
ROOT
HETATM    1  C8  UNL     1      24.994   0.618  53.720  1.00  0.00     0.051 C 
HETATM    2  C9  UNL     1      25.905  -0.320  53.626  1.00  0.00     0.116 C 
HETATM    3  N3  UNL     1      25.885  -1.276  52.547  1.00  0.00    -0.357 N 
HETATM    4  C10 UNL     1      27.041  -2.187  52.642  1.00  0.00     0.271 C 
HETATM    5  N4  UNL     1      28.192  -1.356  52.749  1.00  0.00    -0.286 NA
HETATM    6  C11 UNL     1      29.206  -1.691  53.407  1.00  0.00     0.085 C 
HETATM    7  C12 UNL     1      30.043  -0.473  53.169  1.00  0.00     0.048 C 
HETATM    8  C13 UNL     1      29.324   0.794  53.517  1.00  0.00     0.026 C 
HETATM    9  C14 UNL     1      28.925   0.881  54.944  1.00  0.00     0.139 C 
HETATM   10  N5  UNL     1      28.059  -0.176  55.326  1.00  0.00    -0.335 N 
HETATM   11  N6  UNL     1      26.874  -0.276  54.662  1.00  0.00    -0.290 N 
HETATM   12  H15 UNL     1      25.143  -1.276  51.836  1.00  0.00     0.162 HD
HETATM   13  H25 UNL     1      28.483  -1.047  55.614  1.00  0.00     0.180 HD
HETATM   14  H26 UNL     1      26.348  -0.409  55.574  1.00  0.00     0.188 HD
ENDROOT
BRANCH   1  15
HETATM   15  C7  UNL     1      23.854   0.930  52.881  1.00  0.00     0.021 C 
HETATM   16  C6  UNL     1      23.681   1.472  51.678  1.00  0.00     0.085 C 
BRANCH  16  17
HETATM   17  N2  UNL     1      22.392   1.650  51.109  1.00  0.00    -0.390 N 
HETATM   18  C5  UNL     1      21.738   2.936  50.936  1.00  0.00     0.124 C 
HETATM   19  C4  UNL     1      20.487   3.051  51.759  1.00  0.00     0.044 C 
HETATM   20  C3  UNL     1      19.674   1.812  51.903  1.00  0.00     0.081 C 
HETATM   21  C16 UNL     1      20.288   0.526  51.491  1.00  0.00     0.044 C 
HETATM   22  C15 UNL     1      21.476   0.623  50.594  1.00  0.00     0.124 C 
BRANCH  20  23
HETATM   23  N1  UNL     1      18.364   2.008  51.342  1.00  0.00    -0.416 N 
HETATM   24  C1  UNL     1      17.809   3.290  51.433  1.00  0.00     0.143 C 
HETATM   25  C2  UNL     1      17.488   0.890  51.420  1.00  0.00     0.143 C 
ENDBRANCH  20  23
ENDBRANCH  16  17
ENDBRANCH   1  15
TORSDOF 3
ENDMDL
MODEL 4
REMARK VINA RESULT:      -7.2      2.876      8.349
REMARK  3 active torsions:
REMARK  status: ('A' for Active; 'I' for Inactive)
REMARK    1  A    between atoms: N1_2  and  C3_4 
REMARK    2  A    between atoms: N2_7  and  C6_8 
REMARK    3  A    between atoms: C7_9  and  C8_10 
ROOT
HETATM    1  C8  UNL     1      25.122   0.946  53.440  1.00  0.00     0.051 C 
HETATM    2  C9  UNL     1      25.930  -0.087  53.421  1.00  0.00     0.116 C 
HETATM    3  N3  UNL     1      25.886  -1.051  52.350  1.00  0.00    -0.357 N 
HETATM    4  C10 UNL     1      26.925  -2.080  52.538  1.00  0.00     0.271 C 
HETATM    5  N4  UNL     1      28.148  -1.377  52.727  1.00  0.00    -0.286 NA
HETATM    6  C11 UNL     1      29.068  -1.811  53.462  1.00  0.00     0.085 C 
HETATM    7  C12 UNL     1      30.048  -0.694  53.280  1.00  0.00     0.048 C 
HETATM    8  C13 UNL     1      29.448   0.648  53.563  1.00  0.00     0.026 C 
HETATM    9  C14 UNL     1      28.956   0.799  54.955  1.00  0.00     0.139 C 
HETATM   10  N5  UNL     1      27.953  -0.151  55.277  1.00  0.00    -0.335 N 
HETATM   11  N6  UNL     1      26.818  -0.132  54.527  1.00  0.00    -0.290 N 
HETATM   12  H15 UNL     1      25.203  -0.981  51.585  1.00  0.00     0.162 HD
HETATM   13  H25 UNL     1      28.257  -1.058  55.603  1.00  0.00     0.180 HD
HETATM   14  H26 UNL     1      26.214  -0.194  55.398  1.00  0.00     0.188 HD
ENDROOT
BRANCH   1  15
HETATM   15  C7  UNL     1      24.088   1.367  52.514  1.00  0.00     0.021 C 
HETATM   16  C6  UNL     1      22.876   0.929  52.182  1.00  0.00     0.085 C 
BRANCH  16  17
HETATM   17  N2  UNL     1      22.081   1.582  51.204  1.00  0.00    -0.390 N 
HETATM   18  C5  UNL     1      21.053   0.932  50.409  1.00  0.00     0.124 C 
HETATM   19  C4  UNL     1      21.386   0.927  48.945  1.00  0.00     0.044 C 
HETATM   20  C3  UNL     1      22.083   2.135  48.422  1.00  0.00     0.081 C 
HETATM   21  C16 UNL     1      22.648   3.092  49.405  1.00  0.00     0.044 C 
HETATM   22  C15 UNL     1      22.118   2.993  50.796  1.00  0.00     0.124 C 
BRANCH  20  23
HETATM   23  N1  UNL     1      21.279   2.779  47.418  1.00  0.00    -0.416 N 
HETATM   24  C1  UNL     1      21.912   3.712  46.586  1.00  0.00     0.143 C 
HETATM   25  C2  UNL     1      19.921   3.007  47.769  1.00  0.00     0.143 C 
ENDBRANCH  20  23
ENDBRANCH  16  17
ENDBRANCH   1  15
TORSDOF 3
ENDMDL
MODEL 5
REMARK VINA RESULT:      -7.1      2.658      8.384
REMARK  3 active torsions:
REMARK  status: ('A' for Active; 'I' for Inactive)
REMARK    1  A    between atoms: N1_2  and  C3_4 
REMARK    2  A    between atoms: N2_7  and  C6_8 
REMARK    3  A    between atoms: C7_9  and  C8_10 
ROOT
HETATM    1  C8  UNL     1      26.137   2.511  50.733  1.00  0.00     0.051 C 
HETATM    2  C9  UNL     1      26.894   2.050  51.700  1.00  0.00     0.116 C 
HETATM    3  N3  UNL     1      27.684   2.937  52.518  1.00  0.00    -0.357 N 
HETATM    4  C10 UNL     1      28.400   2.177  53.559  1.00  0.00     0.271 C 
HETATM    5  N4  UNL     1      27.418   1.388  54.221  1.00  0.00    -0.286 NA
HETATM    6  C11 UNL     1      27.672   0.257  54.699  1.00  0.00     0.085 C 
HETATM    7  C12 UNL     1      26.315  -0.072  55.236  1.00  0.00     0.048 C 
HETATM    8  C13 UNL     1      25.240   0.066  54.202  1.00  0.00     0.026 C 
HETATM    9  C14 UNL     1      25.415  -0.835  53.036  1.00  0.00     0.139 C 
HETATM   10  N5  UNL     1      26.639  -0.605  52.358  1.00  0.00    -0.335 N 
HETATM   11  N6  UNL     1      26.837   0.640  51.841  1.00  0.00    -0.290 N 
HETATM   12  H15 UNL     1      27.705   3.951  52.354  1.00  0.00     0.162 HD
HETATM   13  H25 UNL     1      27.462  -1.079  52.704  1.00  0.00     0.180 HD
HETATM   14  H26 UNL     1      27.177   0.229  50.923  1.00  0.00     0.188 HD
ENDROOT
BRANCH   1  15
HETATM   15  C7  UNL     1      25.901   3.864  50.267  1.00  0.00     0.021 C 
HETATM   16  C6  UNL     1      24.974   4.793  50.483  1.00  0.00     0.085 C 
BRANCH  16  17
HETATM   17  N2  UNL     1      25.021   6.066  49.855  1.00  0.00    -0.390 N 
HETATM   18  C5  UNL     1      25.160   6.274  48.424  1.00  0.00     0.124 C 
HETATM   19  C4  UNL     1      26.444   6.968  48.073  1.00  0.00     0.044 C 
HETATM   20  C3  UNL     1      26.916   8.008  49.029  1.00  0.00     0.081 C 
HETATM   21  C16 UNL     1      26.269   8.073  50.362  1.00  0.00     0.044 C 
HETATM   22  C15 UNL     1      24.946   7.392  50.482  1.00  0.00     0.124 C 
BRANCH  20  23
HETATM   23  N1  UNL     1      26.981   9.290  48.379  1.00  0.00    -0.416 N 
HETATM   24  C1  UNL     1      26.918   9.307  46.980  1.00  0.00     0.143 C 
HETATM   25  C2  UNL     1      27.783  10.268  49.026  1.00  0.00     0.143 C 
ENDBRANCH  20  23
ENDBRANCH  16  17
ENDBRANCH   1  15
TORSDOF 3
ENDMDL
MODEL 6
REMARK VINA RESULT:      -6.9      1.877      8.233
REMARK  3 active torsions:
REMARK  status: ('A' for Active; 'I' for Inactive)
REMARK    1  A    between atoms: N1_2  and  C3_4 
REMARK    2  A    between atoms: N2_7  and  C6_8 
REMARK    3  A    between atoms: C7_9  and  C8_10 
ROOT
HETATM    1  C8  UNL     1      25.499   2.245  53.396  1.00  0.00     0.051 C 
HETATM    2  C9  UNL     1      26.009   1.039  53.463  1.00  0.00     0.116 C 
HETATM    3  N3  UNL     1      25.661   0.025  52.500  1.00  0.00    -0.357 N 
HETATM    4  C10 UNL     1      26.406  -1.219  52.766  1.00  0.00     0.271 C 
HETATM    5  N4  UNL     1      27.778  -0.849  52.848  1.00  0.00    -0.286 NA
HETATM    6  C11 UNL     1      28.591  -1.438  53.600  1.00  0.00     0.085 C 
HETATM    7  C12 UNL     1      29.816  -0.641  53.276  1.00  0.00     0.048 C 
HETATM    8  C13 UNL     1      29.600   0.833  53.434  1.00  0.00     0.026 C 
HETATM    9  C14 UNL     1      29.239   1.237  54.816  1.00  0.00     0.139 C 
HETATM   10  N5  UNL     1      28.043   0.618  55.262  1.00  0.00    -0.335 N 
HETATM   11  N6  UNL     1      26.913   0.865  54.544  1.00  0.00    -0.290 N 
HETATM   12  H15 UNL     1      24.980   0.200  51.750  1.00  0.00     0.162 HD
HETATM   13  H25 UNL     1      28.118  -0.302  55.672  1.00  0.00     0.180 HD
HETATM   14  H26 UNL     1      26.360   1.046  55.432  1.00  0.00     0.188 HD
ENDROOT
BRANCH   1  15
HETATM   15  C7  UNL     1      24.562   2.835  52.460  1.00  0.00     0.021 C 
HETATM   16  C6  UNL     1      23.487   3.614  52.557  1.00  0.00     0.085 C 
BRANCH  16  17
HETATM   17  N2  UNL     1      22.758   4.037  51.415  1.00  0.00    -0.390 N 
HETATM   18  C5  UNL     1      21.796   3.215  50.699  1.00  0.00     0.124 C 
HETATM   19  C4  UNL     1      22.233   2.924  49.293  1.00  0.00     0.044 C 
HETATM   20  C3  UNL     1      22.954   4.018  48.585  1.00  0.00     0.081 C 
HETATM   21  C16 UNL     1      23.438   5.167  49.389  1.00  0.00     0.044 C 
HETATM   22  C15 UNL     1      22.810   5.337  50.733  1.00  0.00     0.124 C 
BRANCH  20  23
HETATM   23  N1  UNL     1      22.218   4.427  47.418  1.00  0.00    -0.416 N 
HETATM   24  C1  UNL     1      21.938   3.447  46.457  1.00  0.00     0.143 C 
HETATM   25  C2  UNL     1      22.460   5.755  46.973  1.00  0.00     0.143 C 
ENDBRANCH  20  23
ENDBRANCH  16  17
ENDBRANCH   1  15
TORSDOF 3
ENDMDL
MODEL 7
REMARK VINA RESULT:      -6.8      4.648      7.269
REMARK  3 active torsions:
REMARK  status: ('A' for Active; 'I' for Inactive)
REMARK    1  A    between atoms: N1_2  and  C3_4 
REMARK    2  A    between atoms: N2_7  and  C6_8 
REMARK    3  A    between atoms: C7_9  and  C8_10 
ROOT
HETATM    1  C8  UNL     1      27.897   4.829  48.583  1.00  0.00     0.051 C 
HETATM    2  C9  UNL     1      28.473   5.995  48.410  1.00  0.00     0.116 C 
HETATM    3  N3  UNL     1      27.884   7.204  48.932  1.00  0.00    -0.357 N 
HETATM    4  C10 UNL     1      28.749   8.363  48.648  1.00  0.00     0.271 C 
HETATM    5  N4  UNL     1      30.045   8.017  49.124  1.00  0.00    -0.286 NA
HETATM    6  C11 UNL     1      31.096   8.426  48.576  1.00  0.00     0.085 C 
HETATM    7  C12 UNL     1      32.093   7.760  49.473  1.00  0.00     0.048 C 
HETATM    8  C13 UNL     1      31.854   6.288  49.603  1.00  0.00     0.026 C 
HETATM    9  C14 UNL     1      31.950   5.552  48.317  1.00  0.00     0.139 C 
HETATM   10  N5  UNL     1      31.011   6.017  47.360  1.00  0.00    -0.335 N 
HETATM   11  N6  UNL     1      29.693   5.924  47.691  1.00  0.00    -0.290 N 
HETATM   12  H15 UNL     1      26.983   7.199  49.426  1.00  0.00     0.162 HD
HETATM   13  H25 UNL     1      31.274   6.812  46.795  1.00  0.00     0.180 HD
HETATM   14  H26 UNL     1      29.460   5.520  46.737  1.00  0.00     0.188 HD
ENDROOT
BRANCH   1  15
HETATM   15  C7  UNL     1      26.668   4.461  49.258  1.00  0.00     0.021 C 
HETATM   16  C6  UNL     1      26.322   3.560  50.174  1.00  0.00     0.085 C 
BRANCH  16  17
HETATM   17  N2  UNL     1      24.989   3.443  50.649  1.00  0.00    -0.390 N 
HETATM   18  C5  UNL     1      24.619   2.874  51.934  1.00  0.00     0.124 C 
HETATM   19  C4  UNL     1      23.803   1.623  51.787  1.00  0.00     0.044 C 
HETATM   20  C3  UNL     1      22.841   1.591  50.650  1.00  0.00     0.081 C 
HETATM   21  C16 UNL     1      22.965   2.636  49.604  1.00  0.00     0.044 C 
HETATM   22  C15 UNL     1      23.746   3.850  49.980  1.00  0.00     0.124 C 
BRANCH  20  23
HETATM   23  N1  UNL     1      21.495   1.452  51.140  1.00  0.00    -0.416 N 
HETATM   24  C1  UNL     1      20.525   1.000  50.237  1.00  0.00     0.143 C 
HETATM   25  C2  UNL     1      21.102   2.389  52.134  1.00  0.00     0.143 C 
ENDBRANCH  20  23
ENDBRANCH  16  17
ENDBRANCH   1  15
TORSDOF 3
ENDMDL
MODEL 8
REMARK VINA RESULT:      -6.8      3.367      8.213
REMARK  3 active torsions:
REMARK  status: ('A' for Active; 'I' for Inactive)
REMARK    1  A    between atoms: N1_2  and  C3_4 
REMARK    2  A    between atoms: N2_7  and  C6_8 
REMARK    3  A    between atoms: C7_9  and  C8_10 
ROOT
HETATM    1  C8  UNL     1      24.727   2.412  52.431  1.00  0.00     0.051 C 
HETATM    2  C9  UNL     1      25.306   1.690  53.360  1.00  0.00     0.116 C 
HETATM    3  N3  UNL     1      24.795   0.393  53.725  1.00  0.00    -0.357 N 
HETATM    4  C10 UNL     1      25.652  -0.230  54.751  1.00  0.00     0.271 C 
HETATM    5  N4  UNL     1      26.980  -0.177  54.243  1.00  0.00    -0.286 NA
HETATM    6  C11 UNL     1      27.982  -0.047  54.986  1.00  0.00     0.085 C 
HETATM    7  C12 UNL     1      29.046  -0.051  53.934  1.00  0.00     0.048 C 
HETATM    8  C13 UNL     1      28.791   0.957  52.856  1.00  0.00     0.026 C 
HETATM    9  C14 UNL     1      28.749   2.357  53.346  1.00  0.00     0.139 C 
HETATM   10  N5  UNL     1      27.732   2.557  54.315  1.00  0.00    -0.335 N 
HETATM   11  N6  UNL     1      26.450   2.308  53.927  1.00  0.00    -0.290 N 
HETATM   12  H15 UNL     1      23.946   0.004  53.297  1.00  0.00     0.162 HD
HETATM   13  H25 UNL     1      27.955   2.346  55.277  1.00  0.00     0.180 HD
HETATM   14  H26 UNL     1      26.118   3.216  54.366  1.00  0.00     0.188 HD
ENDROOT
BRANCH   1  15
HETATM   15  C7  UNL     1      23.561   2.153  51.608  1.00  0.00     0.021 C 
HETATM   16  C6  UNL     1      23.240   2.343  50.331  1.00  0.00     0.085 C 
BRANCH  16  17
HETATM   17  N2  UNL     1      21.974   1.970  49.809  1.00  0.00    -0.390 N 
HETATM   18  C5  UNL     1      21.078   2.867  49.097  1.00  0.00     0.124 C 
HETATM   19  C4  UNL     1      19.790   3.086  49.836  1.00  0.00     0.044 C 
HETATM   20  C3  UNL     1      19.243   1.913  50.573  1.00  0.00     0.081 C 
HETATM   21  C16 UNL     1      20.128   0.739  50.768  1.00  0.00     0.044 C 
HETATM   22  C15 UNL     1      21.316   0.658  49.868  1.00  0.00     0.124 C 
BRANCH  20  23
HETATM   23  N1  UNL     1      17.951   1.554  50.050  1.00  0.00    -0.416 N 
HETATM   24  C1  UNL     1      17.586   0.204  50.107  1.00  0.00     0.143 C 
HETATM   25  C2  UNL     1      17.497   2.326  48.946  1.00  0.00     0.143 C 
ENDBRANCH  20  23
ENDBRANCH  16  17
ENDBRANCH   1  15
TORSDOF 3
ENDMDL
MODEL 9
REMARK VINA RESULT:      -6.6      3.633      5.887
REMARK  3 active torsions:
REMARK  status: ('A' for Active; 'I' for Inactive)
REMARK    1  A    between atoms: N1_2  and  C3_4 
REMARK    2  A    between atoms: N2_7  and  C6_8 
REMARK    3  A    between atoms: C7_9  and  C8_10 
ROOT
HETATM    1  C8  UNL     1      26.419   5.649  48.955  1.00  0.00     0.051 C 
HETATM    2  C9  UNL     1      26.806   6.902  48.977  1.00  0.00     0.116 C 
HETATM    3  N3  UNL     1      26.592   7.731  50.137  1.00  0.00    -0.357 N 
HETATM    4  C10 UNL     1      27.161   9.074  49.924  1.00  0.00     0.271 C 
HETATM    5  N4  UNL     1      28.509   8.873  49.512  1.00  0.00    -0.286 NA
HETATM    6  C11 UNL     1      29.093   9.645  48.715  1.00  0.00     0.085 C 
HETATM    7  C12 UNL     1      30.418   8.952  48.658  1.00  0.00     0.048 C 
HETATM    8  C13 UNL     1      30.292   7.499  48.318  1.00  0.00     0.026 C 
HETATM    9  C14 UNL     1      29.676   7.248  46.991  1.00  0.00     0.139 C 
HETATM   10  N5  UNL     1      28.367   7.786  46.896  1.00  0.00    -0.335 N 
HETATM   11  N6  UNL     1      27.440   7.320  47.778  1.00  0.00    -0.290 N 
HETATM   12  H15 UNL     1      26.104   7.381  50.970  1.00  0.00     0.162 HD
HETATM   13  H25 UNL     1      28.279   8.756  46.628  1.00  0.00     0.180 HD
HETATM   14  H26 UNL     1      26.727   7.202  47.001  1.00  0.00     0.188 HD
ENDROOT
BRANCH   1  15
HETATM   15  C7  UNL     1      25.755   4.838  49.956  1.00  0.00     0.021 C 
HETATM   16  C6  UNL     1      25.900   3.601  50.424  1.00  0.00     0.085 C 
BRANCH  16  17
HETATM   17  N2  UNL     1      25.062   3.077  51.443  1.00  0.00    -0.390 N 
HETATM   18  C5  UNL     1      25.511   2.198  52.510  1.00  0.00     0.124 C 
HETATM   19  C4  UNL     1      24.877   0.840  52.432  1.00  0.00     0.044 C 
HETATM   20  C3  UNL     1      23.459   0.799  51.977  1.00  0.00     0.081 C 
HETATM   21  C16 UNL     1      22.888   2.024  51.367  1.00  0.00     0.044 C 
HETATM   22  C15 UNL     1      23.622   3.295  51.638  1.00  0.00     0.124 C 
BRANCH  20  23
HETATM   23  N1  UNL     1      22.620   0.248  53.009  1.00  0.00    -0.416 N 
HETATM   24  C1  UNL     1      23.212  -0.639  53.915  1.00  0.00     0.143 C 
HETATM   25  C2  UNL     1      21.262   0.032  52.647  1.00  0.00     0.143 C 
ENDBRANCH  20  23
ENDBRANCH  16  17
ENDBRANCH   1  15
TORSDOF 3
ENDMDL
