MODEL 1
REMARK VINA RESULT:      -7.9      0.000      0.000
REMARK  2 active torsions:
REMARK  status: ('A' for Active; 'I' for Inactive)
REMARK    1  A    between atoms: C3_7  and  C4_8 
REMARK    2  A    between atoms: C4_8  and  C5_9 
ROOT
HETATM    1  O1  UNL     1      24.314   5.106  51.531  1.00  0.00    -0.098 OA
HETATM    2  C1  UNL     1      23.123   5.383  51.801  1.00  0.00     0.400 A 
HETATM    3  N1  UNL     1      23.053   6.823  51.582  1.00  0.00    -0.253 N 
HETATM    4  N2  UNL     1      24.063   7.764  51.141  1.00  0.00    -0.111 NA
HETATM    5  O2  UNL     1      25.174   7.045  50.881  1.00  0.00    -0.282 OA
HETATM    6  C2  UNL     1      25.956   7.487  49.862  1.00  0.00     0.232 C 
HETATM    7  C3  UNL     1      26.414   6.361  48.975  1.00  0.00    -0.035 C 
HETATM    8  C9  UNL     1      26.223   5.059  48.962  1.00  0.00     0.093 C 
HETATM    9  N3  UNL     1      25.623   3.928  49.555  1.00  0.00    -0.364 N 
HETATM   10  C10 UNL     1      25.493   3.196  50.754  1.00  0.00     0.070 A 
HETATM   11  C11 UNL     1      26.542   2.313  50.892  1.00  0.00     0.032 A 
HETATM   12  C12 UNL     1      26.771   1.423  51.951  1.00  0.00     0.002 A 
HETATM   13  C13 UNL     1      25.811   1.475  52.934  1.00  0.00     0.003 A 
HETATM   14  C14 UNL     1      24.746   2.342  52.832  1.00  0.00     0.043 A 
HETATM   15  C15 UNL     1      24.580   3.180  51.782  1.00  0.00     0.203 A 
HETATM   16  N4  UNL     1      23.374   3.960  51.968  1.00  0.00     0.158 N 
HETATM   17  H1  UNL     1      22.169   6.376  51.907  1.00  0.00     0.186 HD
HETATM   18  H2  UNL     1      24.293   8.409  51.918  1.00  0.00     0.180 HD
HETATM   19  H11 UNL     1      25.010   3.255  49.057  1.00  0.00     0.165 HD
HETATM   20  H16 UNL     1      22.478   3.525  52.272  1.00  0.00     0.337 HD
ENDROOT
BRANCH   7  21
HETATM   21  C4  UNL     1      27.257   6.967  47.921  1.00  0.00     0.077 C 
BRANCH  21  22
HETATM   22  C5  UNL     1      28.713   6.965  48.278  1.00  0.00    -0.047 A 
HETATM   23  C6  UNL     1      29.417   5.802  48.152  1.00  0.00     0.015 A 
HETATM   24  C7  UNL     1      30.764   5.808  48.474  1.00  0.00     0.050 A 
HETATM   25  S1  UNL     1      31.128   7.522  48.992  1.00  0.00    -0.113 SA
HETATM   26  C8  UNL     1      29.393   8.110  48.727  1.00  0.00     0.056 A 
ENDBRANCH  21  22
ENDBRANCH   7  21
TORSDOF 2
ENDMDL
MODEL 2
REMARK VINA RESULT:      -7.8      2.722      4.146
REMARK  2 active torsions:
REMARK  status: ('A' for Active; 'I' for Inactive)
REMARK    1  A    between atoms: C3_7  and  C4_8 
REMARK    2  A    between atoms: C4_8  and  C5_9 
ROOT
HETATM    1  O1  UNL     1      25.547   1.752  52.791  1.00  0.00    -0.098 OA
HETATM    2  C1  UNL     1      26.258   1.850  53.818  1.00  0.00     0.400 A 
HETATM    3  N1  UNL     1      27.493   2.442  53.318  1.00  0.00    -0.253 N 
HETATM    4  N2  UNL     1      27.870   2.861  51.983  1.00  0.00    -0.111 NA
HETATM    5  O2  UNL     1      26.794   2.658  51.196  1.00  0.00    -0.282 OA
HETATM    6  C2  UNL     1      26.611   3.543  50.182  1.00  0.00     0.232 C 
HETATM    7  C3  UNL     1      25.175   3.976  50.065  1.00  0.00    -0.035 C 
HETATM    8  C9  UNL     1      24.070   3.698  50.724  1.00  0.00     0.093 C 
HETATM    9  N3  UNL     1      23.443   2.993  51.773  1.00  0.00    -0.364 N 
HETATM   10  C10 UNL     1      23.220   1.711  52.319  1.00  0.00     0.070 A 
HETATM   11  C11 UNL     1      22.146   1.107  51.700  1.00  0.00     0.032 A 
HETATM   12  C12 UNL     1      21.623  -0.168  51.957  1.00  0.00     0.002 A 
HETATM   13  C13 UNL     1      22.292  -0.849  52.947  1.00  0.00     0.003 A 
HETATM   14  C14 UNL     1      23.368  -0.280  53.589  1.00  0.00     0.043 A 
HETATM   15  C15 UNL     1      23.828   0.958  53.296  1.00  0.00     0.203 A 
HETATM   16  N4  UNL     1      24.964   1.268  54.138  1.00  0.00     0.158 N 
HETATM   17  H1  UNL     1      27.479   2.231  54.338  1.00  0.00     0.186 HD
HETATM   18  H2  UNL     1      28.624   2.245  51.631  1.00  0.00     0.180 HD
HETATM   19  H11 UNL     1      22.875   3.431  52.522  1.00  0.00     0.165 HD
HETATM   20  H16 UNL     1      24.957   1.082  55.163  1.00  0.00     0.337 HD
ENDROOT
BRANCH   7  21
HETATM   21  C4  UNL     1      25.107   4.922  48.929  1.00  0.00     0.077 C 
BRANCH  21  22
HETATM   22  C5  UNL     1      25.847   6.198  49.199  1.00  0.00    -0.047 A 
HETATM   23  C6  UNL     1      26.920   6.509  48.414  1.00  0.00     0.015 A 
HETATM   24  C7  UNL     1      27.595   7.693  48.661  1.00  0.00     0.050 A 
HETATM   25  S1  UNL     1      26.720   8.463  50.068  1.00  0.00    -0.113 SA
HETATM   26  C8  UNL     1      25.482   7.094  50.216  1.00  0.00     0.056 A 
ENDBRANCH  21  22
ENDBRANCH   7  21
TORSDOF 2
ENDMDL
MODEL 3
REMARK VINA RESULT:      -7.8      3.597      5.864
REMARK  2 active torsions:
REMARK  status: ('A' for Active; 'I' for Inactive)
REMARK    1  A    between atoms: C3_7  and  C4_8 
REMARK    2  A    between atoms: C4_8  and  C5_9 
ROOT
HETATM    1  O1  UNL     1      23.672   5.411  50.448  1.00  0.00    -0.098 OA
HETATM    2  C1  UNL     1      24.255   6.514  50.561  1.00  0.00     0.400 A 
HETATM    3  N1  UNL     1      24.418   6.664  52.002  1.00  0.00    -0.253 N 
HETATM    4  N2  UNL     1      24.045   5.788  53.094  1.00  0.00    -0.111 NA
HETATM    5  O2  UNL     1      23.522   4.677  52.536  1.00  0.00    -0.282 OA
HETATM    6  C2  UNL     1      23.746   3.508  53.191  1.00  0.00     0.232 C 
HETATM    7  C3  UNL     1      24.138   2.402  52.249  1.00  0.00    -0.035 C 
HETATM    8  C9  UNL     1      24.317   2.316  50.948  1.00  0.00     0.093 C 
HETATM    9  N3  UNL     1      24.311   2.957  49.691  1.00  0.00    -0.364 N 
HETATM   10  C10 UNL     1      23.528   3.713  48.794  1.00  0.00     0.070 A 
HETATM   11  C11 UNL     1      22.754   2.880  48.015  1.00  0.00     0.032 A 
HETATM   12  C12 UNL     1      21.842   3.253  47.018  1.00  0.00     0.002 A 
HETATM   13  C13 UNL     1      21.747   4.612  46.836  1.00  0.00     0.003 A 
HETATM   14  C14 UNL     1      22.504   5.478  47.594  1.00  0.00     0.043 A 
HETATM   15  C15 UNL     1      23.370   5.056  48.544  1.00  0.00     0.203 A 
HETATM   16  N4  UNL     1      24.009   6.199  49.162  1.00  0.00     0.158 N 
HETATM   17  H1  UNL     1      24.779   7.454  51.426  1.00  0.00     0.186 HD
HETATM   18  H2  UNL     1      23.292   6.233  53.648  1.00  0.00     0.180 HD
HETATM   19  H11 UNL     1      25.112   2.971  49.032  1.00  0.00     0.165 HD
HETATM   20  H16 UNL     1      24.394   6.986  48.599  1.00  0.00     0.337 HD
ENDROOT
BRANCH   7  21
HETATM   21  C4  UNL     1      24.343   1.192  53.076  1.00  0.00     0.077 C 
BRANCH  21  22
HETATM   22  C5  UNL     1      25.788   0.809  53.186  1.00  0.00    -0.047 A 
HETATM   23  C6  UNL     1      26.177  -0.415  52.724  1.00  0.00     0.015 A 
HETATM   24  C7  UNL     1      27.515  -0.761  52.820  1.00  0.00     0.050 A 
HETATM   25  S1  UNL     1      28.331   0.678  53.596  1.00  0.00    -0.113 SA
HETATM   26  C8  UNL     1      26.765   1.656  53.734  1.00  0.00     0.056 A 
ENDBRANCH  21  22
ENDBRANCH   7  21
TORSDOF 2
ENDMDL
MODEL 4
REMARK VINA RESULT:      -7.7      3.777      5.465
REMARK  2 active torsions:
REMARK  status: ('A' for Active; 'I' for Inactive)
REMARK    1  A    between atoms: C3_7  and  C4_8 
REMARK    2  A    between atoms: C4_8  and  C5_9 
ROOT
HETATM    1  O1  UNL     1      24.943   0.244  53.803  1.00  0.00    -0.098 OA
HETATM    2  C1  UNL     1      24.527  -0.892  54.127  1.00  0.00     0.400 A 
HETATM    3  N1  UNL     1      23.077  -0.752  54.060  1.00  0.00    -0.253 N 
HETATM    4  N2  UNL     1      22.251   0.380  53.694  1.00  0.00    -0.111 NA
HETATM    5  O2  UNL     1      23.092   1.373  53.336  1.00  0.00    -0.282 OA
HETATM    6  C2  UNL     1      22.662   2.203  52.350  1.00  0.00     0.232 C 
HETATM    7  C3  UNL     1      23.743   2.485  51.342  1.00  0.00    -0.035 C 
HETATM    8  C9  UNL     1      24.995   2.106  51.199  1.00  0.00     0.093 C 
HETATM    9  N3  UNL     1      26.084   1.352  51.687  1.00  0.00    -0.364 N 
HETATM   10  C10 UNL     1      26.911   1.126  52.807  1.00  0.00     0.070 A 
HETATM   11  C11 UNL     1      27.946   2.036  52.829  1.00  0.00     0.032 A 
HETATM   12  C12 UNL     1      28.966   2.141  53.785  1.00  0.00     0.002 A 
HETATM   13  C13 UNL     1      28.879   1.206  54.790  1.00  0.00     0.003 A 
HETATM   14  C14 UNL     1      27.862   0.279  54.802  1.00  0.00     0.043 A 
HETATM   15  C15 UNL     1      26.903   0.228  53.849  1.00  0.00     0.203 A 
HETATM   16  N4  UNL     1      25.981  -0.850  54.141  1.00  0.00     0.158 N 
HETATM   17  H1  UNL     1      23.424  -1.689  54.357  1.00  0.00     0.186 HD
HETATM   18  H2  UNL     1      21.731   0.708  54.527  1.00  0.00     0.180 HD
HETATM   19  H11 UNL     1      26.605   0.644  51.136  1.00  0.00     0.165 HD
HETATM   20  H16 UNL     1      26.312  -1.797  54.419  1.00  0.00     0.337 HD
ENDROOT
BRANCH   7  21
HETATM   21  C4  UNL     1      23.158   3.399  50.337  1.00  0.00     0.077 C 
BRANCH  21  22
HETATM   22  C5  UNL     1      23.929   4.678  50.205  1.00  0.00    -0.047 A 
HETATM   23  C6  UNL     1      24.662   4.886  49.072  1.00  0.00     0.015 A 
HETATM   24  C7  UNL     1      25.366   6.073  48.952  1.00  0.00     0.050 A 
HETATM   25  S1  UNL     1      25.019   6.999  50.488  1.00  0.00    -0.113 SA
HETATM   26  C8  UNL     1      23.925   5.680  51.190  1.00  0.00     0.056 A 
ENDBRANCH  21  22
ENDBRANCH   7  21
TORSDOF 2
ENDMDL
MODEL 5
REMARK VINA RESULT:      -7.7      5.144      6.785
REMARK  2 active torsions:
REMARK  status: ('A' for Active; 'I' for Inactive)
REMARK    1  A    between atoms: C3_7  and  C4_8 
REMARK    2  A    between atoms: C4_8  and  C5_9 
ROOT
HETATM    1  O1  UNL     1      23.087   1.710  51.536  1.00  0.00    -0.098 OA
HETATM    2  C1  UNL     1      23.282   2.110  50.365  1.00  0.00     0.400 A 
HETATM    3  N1  UNL     1      24.462   2.956  50.489  1.00  0.00    -0.253 N 
HETATM    4  N2  UNL     1      25.276   3.283  51.643  1.00  0.00    -0.111 NA
HETATM    5  O2  UNL     1      24.773   2.583  52.681  1.00  0.00    -0.282 OA
HETATM    6  C2  UNL     1      25.667   2.150  53.608  1.00  0.00     0.232 C 
HETATM    7  C3  UNL     1      25.409   0.725  54.016  1.00  0.00    -0.035 C 
HETATM    8  C9  UNL     1      24.526  -0.189  53.673  1.00  0.00     0.093 C 
HETATM    9  N3  UNL     1      23.410  -0.543  52.886  1.00  0.00    -0.364 N 
HETATM   10  C10 UNL     1      22.087  -0.191  52.550  1.00  0.00     0.070 A 
HETATM   11  C11 UNL     1      21.203  -0.718  53.468  1.00  0.00     0.032 A 
HETATM   12  C12 UNL     1      19.808  -0.580  53.481  1.00  0.00     0.002 A 
HETATM   13  C13 UNL     1      19.317   0.173  52.441  1.00  0.00     0.003 A 
HETATM   14  C14 UNL     1      20.166   0.715  51.503  1.00  0.00     0.043 A 
HETATM   15  C15 UNL     1      21.509   0.547  51.543  1.00  0.00     0.203 A 
HETATM   16  N4  UNL     1      22.119   1.236  50.426  1.00  0.00     0.158 N 
HETATM   17  H1  UNL     1      24.060   2.888  49.531  1.00  0.00     0.186 HD
HETATM   18  H2  UNL     1      25.161   4.286  51.870  1.00  0.00     0.180 HD
HETATM   19  H11 UNL     1      23.372  -1.363  52.250  1.00  0.00     0.165 HD
HETATM   20  H16 UNL     1      21.742   1.161  49.459  1.00  0.00     0.337 HD
ENDROOT
BRANCH   7  21
HETATM   21  C4  UNL     1      26.434   0.380  55.026  1.00  0.00     0.077 C 
BRANCH  21  22
HETATM   22  C5  UNL     1      27.740  -0.018  54.408  1.00  0.00    -0.047 A 
HETATM   23  C6  UNL     1      27.781  -1.140  53.632  1.00  0.00     0.015 A 
HETATM   24  C7  UNL     1      28.989  -1.499  53.056  1.00  0.00     0.050 A 
HETATM   25  S1  UNL     1      30.179  -0.223  53.597  1.00  0.00    -0.113 SA
HETATM   26  C8  UNL     1      28.925   0.716  54.582  1.00  0.00     0.056 A 
ENDBRANCH  21  22
ENDBRANCH   7  21
TORSDOF 2
ENDMDL
MODEL 6
REMARK VINA RESULT:      -7.7      7.033      8.736
REMARK  2 active torsions:
REMARK  status: ('A' for Active; 'I' for Inactive)
REMARK    1  A    between atoms: C3_7  and  C4_8 
REMARK    2  A    between atoms: C4_8  and  C5_9 
ROOT
HETATM    1  O1  UNL     1      34.931   5.953  48.299  1.00  0.00    -0.098 OA
HETATM    2  C1  UNL     1      35.880   5.843  49.109  1.00  0.00     0.400 A 
HETATM    3  N1  UNL     1      36.511   7.157  49.071  1.00  0.00    -0.253 N 
HETATM    4  N2  UNL     1      36.168   8.350  48.324  1.00  0.00    -0.111 NA
HETATM    5  O2  UNL     1      35.039   8.067  47.640  1.00  0.00    -0.282 OA
HETATM    6  C2  UNL     1      34.167   9.093  47.464  1.00  0.00     0.232 C 
HETATM    7  C3  UNL     1      32.745   8.673  47.718  1.00  0.00    -0.035 C 
HETATM    8  C9  UNL     1      32.165   7.547  48.077  1.00  0.00     0.093 C 
HETATM    9  N3  UNL     1      32.298   6.188  48.429  1.00  0.00    -0.364 N 
HETATM   10  C10 UNL     1      32.803   4.939  48.009  1.00  0.00     0.070 A 
HETATM   11  C11 UNL     1      31.893   4.306  47.190  1.00  0.00     0.032 A 
HETATM   12  C12 UNL     1      32.033   3.057  46.569  1.00  0.00     0.002 A 
HETATM   13  C13 UNL     1      33.229   2.436  46.841  1.00  0.00     0.003 A 
HETATM   14  C14 UNL     1      34.163   3.035  47.655  1.00  0.00     0.043 A 
HETATM   15  C15 UNL     1      33.970   4.246  48.228  1.00  0.00     0.203 A 
HETATM   16  N4  UNL     1      35.129   4.600  49.020  1.00  0.00     0.158 N 
HETATM   17  H1  UNL     1      36.963   6.461  49.702  1.00  0.00     0.186 HD
HETATM   18  H2  UNL     1      36.907   8.540  47.624  1.00  0.00     0.180 HD
HETATM   19  H11 UNL     1      31.933   5.766  49.304  1.00  0.00     0.165 HD
HETATM   20  H16 UNL     1      35.579   3.923  49.671  1.00  0.00     0.337 HD
ENDROOT
BRANCH   7  21
HETATM   21  C4  UNL     1      31.901   9.865  47.485  1.00  0.00     0.077 C 
BRANCH  21  22
HETATM   22  C5  UNL     1      30.513   9.702  48.029  1.00  0.00    -0.047 A 
HETATM   23  C6  UNL     1      29.497   9.431  47.159  1.00  0.00     0.015 A 
HETATM   24  C7  UNL     1      28.218   9.272  47.668  1.00  0.00     0.050 A 
HETATM   25  S1  UNL     1      28.385   9.506  49.472  1.00  0.00    -0.113 SA
HETATM   26  C8  UNL     1      30.210   9.806  49.397  1.00  0.00     0.056 A 
ENDBRANCH  21  22
ENDBRANCH   7  21
TORSDOF 2
ENDMDL
MODEL 7
REMARK VINA RESULT:      -7.7      3.491      6.478
REMARK  2 active torsions:
REMARK  status: ('A' for Active; 'I' for Inactive)
REMARK    1  A    between atoms: C3_7  and  C4_8 
REMARK    2  A    between atoms: C4_8  and  C5_9 
ROOT
HETATM    1  O1  UNL     1      22.259   3.409  51.586  1.00  0.00    -0.098 OA
HETATM    2  C1  UNL     1      21.253   4.051  51.965  1.00  0.00     0.400 A 
HETATM    3  N1  UNL     1      20.375   3.018  52.501  1.00  0.00    -0.253 N 
HETATM    4  N2  UNL     1      20.561   1.585  52.620  1.00  0.00    -0.111 NA
HETATM    5  O2  UNL     1      21.805   1.319  52.171  1.00  0.00    -0.282 OA
HETATM    6  C2  UNL     1      22.462   0.298  52.782  1.00  0.00     0.232 C 
HETATM    7  C3  UNL     1      23.892   0.652  53.084  1.00  0.00    -0.035 C 
HETATM    8  C9  UNL     1      24.639   1.719  52.899  1.00  0.00     0.093 C 
HETATM    9  N3  UNL     1      24.744   3.042  52.419  1.00  0.00    -0.364 N 
HETATM   10  C10 UNL     1      24.570   3.868  51.289  1.00  0.00     0.070 A 
HETATM   11  C11 UNL     1      25.694   3.831  50.491  1.00  0.00     0.032 A 
HETATM   12  C12 UNL     1      25.900   4.507  49.281  1.00  0.00     0.002 A 
HETATM   13  C13 UNL     1      24.833   5.282  48.892  1.00  0.00     0.003 A 
HETATM   14  C14 UNL     1      23.694   5.348  49.662  1.00  0.00     0.043 A 
HETATM   15  C15 UNL     1      23.553   4.669  50.824  1.00  0.00     0.203 A 
HETATM   16  N4  UNL     1      22.251   4.943  51.393  1.00  0.00     0.158 N 
HETATM   17  H1  UNL     1      19.996   3.988  52.533  1.00  0.00     0.186 HD
HETATM   18  H2  UNL     1      19.899   1.101  51.987  1.00  0.00     0.180 HD
HETATM   19  H11 UNL     1      25.067   3.851  52.983  1.00  0.00     0.165 HD
HETATM   20  H16 UNL     1      21.867   5.909  51.452  1.00  0.00     0.337 HD
ENDROOT
BRANCH   7  21
HETATM   21  C4  UNL     1      24.495  -0.534  53.733  1.00  0.00     0.077 C 
BRANCH  21  22
HETATM   22  C5  UNL     1      25.979  -0.403  53.904  1.00  0.00    -0.047 A 
HETATM   23  C6  UNL     1      26.796  -0.919  52.940  1.00  0.00     0.015 A 
HETATM   24  C7  UNL     1      28.166  -0.788  53.099  1.00  0.00     0.050 A 
HETATM   25  S1  UNL     1      28.386   0.106  54.677  1.00  0.00    -0.113 SA
HETATM   26  C8  UNL     1      26.569   0.236  55.007  1.00  0.00     0.056 A 
ENDBRANCH  21  22
ENDBRANCH   7  21
TORSDOF 2
ENDMDL
MODEL 8
REMARK VINA RESULT:      -7.5      6.213      8.163
REMARK  2 active torsions:
REMARK  status: ('A' for Active; 'I' for Inactive)
REMARK    1  A    between atoms: C3_7  and  C4_8 
REMARK    2  A    between atoms: C4_8  and  C5_9 
ROOT
HETATM    1  O1  UNL     1      20.058  -0.030  52.235  1.00  0.00    -0.098 OA
HETATM    2  C1  UNL     1      18.859   0.062  52.584  1.00  0.00     0.400 A 
HETATM    3  N1  UNL     1      18.729  -0.958  53.618  1.00  0.00    -0.253 N 
HETATM    4  N2  UNL     1      19.705  -1.874  54.173  1.00  0.00    -0.111 NA
HETATM    5  O2  UNL     1      20.883  -1.587  53.581  1.00  0.00    -0.282 OA
HETATM    6  C2  UNL     1      21.997  -1.746  54.344  1.00  0.00     0.232 C 
HETATM    7  C3  UNL     1      22.954  -0.596  54.187  1.00  0.00    -0.035 C 
HETATM    8  C9  UNL     1      22.951   0.521  53.490  1.00  0.00     0.093 C 
HETATM    9  N3  UNL     1      22.282   1.364  52.578  1.00  0.00    -0.364 N 
HETATM   10  C10 UNL     1      21.685   1.427  51.302  1.00  0.00     0.070 A 
HETATM   11  C11 UNL     1      22.639   1.678  50.339  1.00  0.00     0.032 A 
HETATM   12  C12 UNL     1      22.441   1.801  48.957  1.00  0.00     0.002 A 
HETATM   13  C13 UNL     1      21.130   1.648  48.571  1.00  0.00     0.003 A 
HETATM   14  C14 UNL     1      20.147   1.398  49.502  1.00  0.00     0.043 A 
HETATM   15  C15 UNL     1      20.402   1.289  50.827  1.00  0.00     0.203 A 
HETATM   16  N4  UNL     1      19.169   1.026  51.539  1.00  0.00     0.158 N 
HETATM   17  H1  UNL     1      17.858  -0.428  53.399  1.00  0.00     0.186 HD
HETATM   18  H2  UNL     1      19.458  -2.842  53.904  1.00  0.00     0.180 HD
HETATM   19  H11 UNL     1      22.067   2.365  52.748  1.00  0.00     0.165 HD
HETATM   20  H16 UNL     1      18.296   1.561  51.347  1.00  0.00     0.337 HD
ENDROOT
BRANCH   7  21
HETATM   21  C4  UNL     1      24.118  -0.891  55.052  1.00  0.00     0.077 C 
BRANCH  21  22
HETATM   22  C5  UNL     1      25.424  -0.586  54.381  1.00  0.00    -0.047 A 
HETATM   23  C6  UNL     1      26.308   0.237  55.016  1.00  0.00     0.015 A 
HETATM   24  C7  UNL     1      27.517   0.508  54.397  1.00  0.00     0.050 A 
HETATM   25  S1  UNL     1      27.472  -0.420  52.824  1.00  0.00    -0.113 SA
HETATM   26  C8  UNL     1      25.785  -1.117  53.132  1.00  0.00     0.056 A 
ENDBRANCH  21  22
ENDBRANCH   7  21
TORSDOF 2
ENDMDL
MODEL 9
REMARK VINA RESULT:      -7.4      7.620      9.145
REMARK  2 active torsions:
REMARK  status: ('A' for Active; 'I' for Inactive)
REMARK    1  A    between atoms: C3_7  and  C4_8 
REMARK    2  A    between atoms: C4_8  and  C5_9 
ROOT
HETATM    1  O1  UNL     1      34.996   5.983  48.336  1.00  0.00    -0.098 OA
HETATM    2  C1  UNL     1      35.932   5.839  49.156  1.00  0.00     0.400 A 
HETATM    3  N1  UNL     1      36.607   7.130  49.129  1.00  0.00    -0.253 N 
HETATM    4  N2  UNL     1      36.314   8.337  48.381  1.00  0.00    -0.111 NA
HETATM    5  O2  UNL     1      35.184   8.095  47.685  1.00  0.00    -0.282 OA
HETATM    6  C2  UNL     1      34.349   9.151  47.502  1.00  0.00     0.232 C 
HETATM    7  C3  UNL     1      32.911   8.778  47.739  1.00  0.00    -0.035 C 
HETATM    8  C9  UNL     1      32.288   7.673  48.089  1.00  0.00     0.093 C 
HETATM    9  N3  UNL     1      32.371   6.308  48.439  1.00  0.00    -0.364 N 
HETATM   10  C10 UNL     1      32.837   5.044  48.021  1.00  0.00     0.070 A 
HETATM   11  C11 UNL     1      31.915   4.445  47.190  1.00  0.00     0.032 A 
HETATM   12  C12 UNL     1      32.019   3.193  46.566  1.00  0.00     0.002 A 
HETATM   13  C13 UNL     1      33.190   2.531  46.850  1.00  0.00     0.003 A 
HETATM   14  C14 UNL     1      34.135   3.095  47.676  1.00  0.00     0.043 A 
HETATM   15  C15 UNL     1      33.977   4.311  48.250  1.00  0.00     0.203 A 
HETATM   16  N4  UNL     1      35.139   4.623  49.056  1.00  0.00     0.158 N 
HETATM   17  H1  UNL     1      37.028   6.418  49.762  1.00  0.00     0.186 HD
HETATM   18  H2  UNL     1      37.067   8.503  47.690  1.00  0.00     0.180 HD
HETATM   19  H11 UNL     1      31.982   5.897  49.309  1.00  0.00     0.165 HD
HETATM   20  H16 UNL     1      35.559   3.929  49.710  1.00  0.00     0.337 HD
ENDROOT
BRANCH   7  21
HETATM   21  C4  UNL     1      32.110  10.000  47.501  1.00  0.00     0.077 C 
BRANCH  21  22
HETATM   22  C5  UNL     1      32.089  10.400  46.056  1.00  0.00    -0.047 A 
HETATM   23  C6  UNL     1      32.517  11.651  45.717  1.00  0.00     0.015 A 
HETATM   24  C7  UNL     1      32.504  12.012  44.380  1.00  0.00     0.050 A 
HETATM   25  S1  UNL     1      31.862  10.550  43.491  1.00  0.00    -0.113 SA
HETATM   26  C8  UNL     1      31.657   9.542  45.031  1.00  0.00     0.056 A 
ENDBRANCH  21  22
ENDBRANCH   7  21
TORSDOF 2
ENDMDL
