MODEL 1
REMARK VINA RESULT:      -8.4      0.000      0.000
REMARK  2 active torsions:
REMARK  status: ('A' for Active; 'I' for Inactive)
REMARK    1  A    between atoms: C3_4  and  O1_5 
REMARK    2  A    between atoms: C11_16  and  C12_17 
ROOT
HETATM    1  C1  UNL     1      21.583   4.905  47.148  1.00  0.00     0.057 C 
HETATM    2  S1  UNL     1      22.700   5.174  48.285  1.00  0.00    -0.175 SA
HETATM    3  C2  UNL     1      22.033   6.474  49.328  1.00  0.00     0.095 C 
HETATM    4  C3  UNL     1      21.924   6.534  50.662  1.00  0.00     0.161 C 
HETATM    5  N1  UNL     1      22.308   5.579  51.635  1.00  0.00    -0.260 N 
HETATM    6  N2  UNL     1      23.252   4.551  51.573  1.00  0.00    -0.190 N 
HETATM    7  N3  UNL     1      23.726   4.397  52.910  1.00  0.00    -0.171 NA
HETATM    8  C4  UNL     1      24.323   3.369  53.426  1.00  0.00     0.126 C 
HETATM    9  C5  UNL     1      24.481   1.968  53.054  1.00  0.00     0.073 C 
HETATM   10  C6  UNL     1      23.208   1.159  53.182  1.00  0.00    -0.017 C 
HETATM   11  C7  UNL     1      22.645   0.613  52.079  1.00  0.00    -0.025 C 
HETATM   12  C8  UNL     1      22.674   1.507  50.849  1.00  0.00     0.063 C 
HETATM   13  C9  UNL     1      23.896   2.408  50.998  1.00  0.00    -0.042 C 
HETATM   14  C10 UNL     1      24.933   1.786  51.636  1.00  0.00    -0.007 C 
HETATM   15  C11 UNL     1      23.694   3.780  50.434  1.00  0.00     0.131 C 
HETATM   16  C19 UNL     1      22.734   3.702  49.310  1.00  0.00     0.116 C 
HETATM   17  H5  UNL     1      21.830   5.603  52.587  1.00  0.00     0.191 HD
ENDROOT
BRANCH  15  18
HETATM   18  C12 UNL     1      24.916   4.411  49.900  1.00  0.00    -0.021 A 
HETATM   19  C13 UNL     1      25.246   5.718  49.788  1.00  0.00     0.011 A 
HETATM   20  C14 UNL     1      26.442   6.154  49.257  1.00  0.00     0.007 A 
HETATM   21  C15 UNL     1      27.341   5.238  48.820  1.00  0.00    -0.062 A 
HETATM   22  C16 UNL     1      28.615   5.791  48.256  1.00  0.00     0.048 C 
HETATM   23  C17 UNL     1      27.057   3.890  48.906  1.00  0.00     0.007 A 
HETATM   24  C18 UNL     1      25.842   3.461  49.448  1.00  0.00     0.011 A 
ENDBRANCH  15  18
BRANCH   4  25
HETATM   25  O1  UNL     1      21.356   7.691  51.185  1.00  0.00    -0.345 OA
HETATM   26  H4  UNL     1      21.640   8.026  52.086  1.00  0.00     0.219 HD
ENDBRANCH   4  25
TORSDOF 2
ENDMDL
MODEL 2
REMARK VINA RESULT:      -8.3      1.837      3.866
REMARK  2 active torsions:
REMARK  status: ('A' for Active; 'I' for Inactive)
REMARK    1  A    between atoms: C3_4  and  O1_5 
REMARK    2  A    between atoms: C11_16  and  C12_17 
ROOT
HETATM    1  C1  UNL     1      26.724   5.141  48.672  1.00  0.00     0.057 C 
HETATM    2  S1  UNL     1      25.880   4.662  49.963  1.00  0.00    -0.175 SA
HETATM    3  C2  UNL     1      25.201   6.159  50.687  1.00  0.00     0.095 C 
HETATM    4  C3  UNL     1      23.946   6.440  51.062  1.00  0.00     0.161 C 
HETATM    5  N1  UNL     1      22.789   5.626  50.993  1.00  0.00    -0.260 N 
HETATM    6  N2  UNL     1      22.660   4.236  50.941  1.00  0.00    -0.190 N 
HETATM    7  N3  UNL     1      21.414   3.953  51.575  1.00  0.00    -0.171 NA
HETATM    8  C4  UNL     1      20.693   2.882  51.464  1.00  0.00     0.126 C 
HETATM    9  C5  UNL     1      20.640   1.761  50.532  1.00  0.00     0.073 C 
HETATM   10  C6  UNL     1      20.106   2.133  49.165  1.00  0.00    -0.017 C 
HETATM   11  C7  UNL     1      20.909   2.029  48.080  1.00  0.00    -0.025 C 
HETATM   12  C8  UNL     1      22.344   2.473  48.312  1.00  0.00     0.063 C 
HETATM   13  C9  UNL     1      22.637   2.234  49.790  1.00  0.00    -0.042 C 
HETATM   14  C10 UNL     1      21.982   1.141  50.285  1.00  0.00    -0.007 C 
HETATM   15  C11 UNL     1      23.559   3.252  50.384  1.00  0.00     0.131 C 
HETATM   16  C19 UNL     1      24.470   3.751  49.330  1.00  0.00     0.116 C 
HETATM   17  H5  UNL     1      21.835   6.101  50.974  1.00  0.00     0.191 HD
ENDROOT
BRANCH  15  18
HETATM   18  C12 UNL     1      24.415   2.746  51.475  1.00  0.00    -0.021 A 
HETATM   19  C13 UNL     1      24.411   3.038  52.795  1.00  0.00     0.011 A 
HETATM   20  C14 UNL     1      25.289   2.475  53.697  1.00  0.00     0.007 A 
HETATM   21  C15 UNL     1      26.208   1.582  53.252  1.00  0.00    -0.062 A 
HETATM   22  C16 UNL     1      27.126   1.016  54.294  1.00  0.00     0.048 C 
HETATM   23  C17 UNL     1      26.260   1.247  51.914  1.00  0.00     0.007 A 
HETATM   24  C18 UNL     1      25.363   1.824  51.010  1.00  0.00     0.011 A 
ENDBRANCH  15  18
BRANCH   4  25
HETATM   25  O1  UNL     1      23.729   7.706  51.597  1.00  0.00    -0.345 OA
HETATM   26  H4  UNL     1      23.972   8.522  51.069  1.00  0.00     0.219 HD
ENDBRANCH   4  25
TORSDOF 2
ENDMDL
MODEL 3
REMARK VINA RESULT:      -8.1      8.764     10.389
REMARK  2 active torsions:
REMARK  status: ('A' for Active; 'I' for Inactive)
REMARK    1  A    between atoms: C3_4  and  O1_5 
REMARK    2  A    between atoms: C11_16  and  C12_17 
ROOT
HETATM    1  C1  UNL     1      29.424   8.125  45.801  1.00  0.00     0.057 C 
HETATM    2  S1  UNL     1      30.969   8.154  46.273  1.00  0.00    -0.175 SA
HETATM    3  C2  UNL     1      30.948   8.694  47.986  1.00  0.00     0.095 C 
HETATM    4  C3  UNL     1      31.541   8.162  49.062  1.00  0.00     0.161 C 
HETATM    5  N1  UNL     1      32.362   7.011  49.153  1.00  0.00    -0.260 N 
HETATM    6  N2  UNL     1      33.129   6.365  48.181  1.00  0.00    -0.190 N 
HETATM    7  N3  UNL     1      34.223   5.786  48.891  1.00  0.00    -0.171 NA
HETATM    8  C4  UNL     1      34.990   4.814  48.509  1.00  0.00     0.126 C 
HETATM    9  C5  UNL     1      34.920   3.780  47.482  1.00  0.00     0.073 C 
HETATM   10  C6  UNL     1      33.887   2.711  47.766  1.00  0.00    -0.017 C 
HETATM   11  C7  UNL     1      32.831   2.560  46.933  1.00  0.00    -0.025 C 
HETATM   12  C8  UNL     1      32.232   3.864  46.432  1.00  0.00     0.063 C 
HETATM   13  C9  UNL     1      33.364   4.885  46.423  1.00  0.00    -0.042 C 
HETATM   14  C10 UNL     1      34.575   4.324  46.128  1.00  0.00    -0.007 C 
HETATM   15  C11 UNL     1      32.914   6.273  46.755  1.00  0.00     0.131 C 
HETATM   16  C19 UNL     1      31.512   6.444  46.314  1.00  0.00     0.116 C 
HETATM   17  H5  UNL     1      32.443   6.519  50.095  1.00  0.00     0.191 HD
ENDROOT
BRANCH  15  18
HETATM   18  C12 UNL     1      33.693   7.345  46.105  1.00  0.00    -0.021 A 
HETATM   19  C13 UNL     1      34.380   8.376  46.646  1.00  0.00     0.011 A 
HETATM   20  C14 UNL     1      35.064   9.308  45.894  1.00  0.00     0.007 A 
HETATM   21  C15 UNL     1      35.055   9.198  44.542  1.00  0.00    -0.062 A 
HETATM   22  C16 UNL     1      35.820  10.250  43.797  1.00  0.00     0.048 C 
HETATM   23  C17 UNL     1      34.367   8.166  43.934  1.00  0.00     0.007 A 
HETATM   24  C18 UNL     1      33.680   7.227  44.709  1.00  0.00     0.011 A 
ENDBRANCH  15  18
BRANCH   4  25
HETATM   25  O1  UNL     1      31.335   8.819  50.271  1.00  0.00    -0.345 OA
HETATM   26  H4  UNL     1      31.786   9.697  50.447  1.00  0.00     0.219 HD
ENDBRANCH   4  25
TORSDOF 2
ENDMDL
MODEL 4
REMARK VINA RESULT:      -8.0      2.860      5.079
REMARK  2 active torsions:
REMARK  status: ('A' for Active; 'I' for Inactive)
REMARK    1  A    between atoms: C3_4  and  O1_5 
REMARK    2  A    between atoms: C11_16  and  C12_17 
ROOT
HETATM    1  C1  UNL     1      20.475   1.242  52.955  1.00  0.00     0.057 C 
HETATM    2  S1  UNL     1      21.836   1.574  52.150  1.00  0.00    -0.175 SA
HETATM    3  C2  UNL     1      21.622   0.868  50.513  1.00  0.00     0.095 C 
HETATM    4  C3  UNL     1      21.811   1.421  49.308  1.00  0.00     0.161 C 
HETATM    5  N1  UNL     1      22.238   2.732  48.981  1.00  0.00    -0.260 N 
HETATM    6  N2  UNL     1      22.972   3.657  49.726  1.00  0.00    -0.190 N 
HETATM    7  N3  UNL     1      23.689   4.427  48.763  1.00  0.00    -0.171 NA
HETATM    8  C4  UNL     1      24.212   5.603  48.918  1.00  0.00     0.126 C 
HETATM    9  C5  UNL     1      24.063   6.684  49.886  1.00  0.00     0.073 C 
HETATM   10  C6  UNL     1      22.735   7.405  49.792  1.00  0.00    -0.017 C 
HETATM   11  C7  UNL     1      21.871   7.358  50.832  1.00  0.00    -0.025 C 
HETATM   12  C8  UNL     1      21.778   6.003  51.515  1.00  0.00     0.063 C 
HETATM   13  C9  UNL     1      23.131   5.326  51.317  1.00  0.00    -0.042 C 
HETATM   14  C10 UNL     1      24.167   6.216  51.307  1.00  0.00    -0.007 C 
HETATM   15  C11 UNL     1      23.033   3.840  51.158  1.00  0.00     0.131 C 
HETATM   16  C19 UNL     1      21.856   3.352  51.910  1.00  0.00     0.116 C 
HETATM   17  H5  UNL     1      21.983   3.125  48.024  1.00  0.00     0.191 HD
ENDROOT
BRANCH  15  18
HETATM   18  C12 UNL     1      24.197   3.089  51.666  1.00  0.00    -0.021 A 
HETATM   19  C13 UNL     1      25.140   2.385  51.000  1.00  0.00     0.011 A 
HETATM   20  C14 UNL     1      26.177   1.728  51.626  1.00  0.00     0.007 A 
HETATM   21  C15 UNL     1      26.269   1.780  52.979  1.00  0.00    -0.062 A 
HETATM   22  C16 UNL     1      27.424   1.040  53.584  1.00  0.00     0.048 C 
HETATM   23  C17 UNL     1      25.333   2.483  53.711  1.00  0.00     0.007 A 
HETATM   24  C18 UNL     1      24.287   3.146  53.063  1.00  0.00     0.011 A 
ENDBRANCH  15  18
BRANCH   4  25
HETATM   25  O1  UNL     1      21.557   0.608  48.207  1.00  0.00    -0.345 OA
HETATM   26  H4  UNL     1      21.868   0.887  47.296  1.00  0.00     0.219 HD
ENDBRANCH   4  25
TORSDOF 2
ENDMDL
MODEL 5
REMARK VINA RESULT:      -7.8      3.021      5.909
REMARK  2 active torsions:
REMARK  status: ('A' for Active; 'I' for Inactive)
REMARK    1  A    between atoms: C3_4  and  O1_5 
REMARK    2  A    between atoms: C11_16  and  C12_17 
ROOT
HETATM    1  C1  UNL     1      26.432   1.854  51.976  1.00  0.00     0.057 C 
HETATM    2  S1  UNL     1      24.864   1.934  52.359  1.00  0.00    -0.175 SA
HETATM    3  C2  UNL     1      24.641   3.512  53.185  1.00  0.00     0.095 C 
HETATM    4  C3  UNL     1      23.737   4.477  52.966  1.00  0.00     0.161 C 
HETATM    5  N1  UNL     1      22.691   4.522  52.012  1.00  0.00    -0.260 N 
HETATM    6  N2  UNL     1      22.025   3.490  51.347  1.00  0.00    -0.190 N 
HETATM    7  N3  UNL     1      20.711   3.989  51.104  1.00  0.00    -0.171 NA
HETATM    8  C4  UNL     1      19.852   3.569  50.229  1.00  0.00     0.126 C 
HETATM    9  C5  UNL     1      19.915   2.736  49.032  1.00  0.00     0.073 C 
HETATM   10  C6  UNL     1      20.617   3.401  47.867  1.00  0.00    -0.017 C 
HETATM   11  C7  UNL     1      21.767   2.874  47.387  1.00  0.00    -0.025 C 
HETATM   12  C8  UNL     1      22.719   2.360  48.455  1.00  0.00     0.063 C 
HETATM   13  C9  UNL     1      21.855   1.943  49.640  1.00  0.00    -0.042 C 
HETATM   14  C10 UNL     1      20.642   1.444  49.256  1.00  0.00    -0.007 C 
HETATM   15  C11 UNL     1      22.509   2.184  50.965  1.00  0.00     0.131 C 
HETATM   16  C19 UNL     1      23.976   2.072  50.806  1.00  0.00     0.116 C 
HETATM   17  H5  UNL     1      22.314   5.475  51.718  1.00  0.00     0.191 HD
ENDROOT
BRANCH  15  18
HETATM   18  C12 UNL     1      22.127   1.227  52.023  1.00  0.00    -0.021 A 
HETATM   19  C13 UNL     1      21.297   1.381  53.080  1.00  0.00     0.011 A 
HETATM   20  C14 UNL     1      21.043   0.379  53.993  1.00  0.00     0.007 A 
HETATM   21  C15 UNL     1      21.647  -0.825  53.836  1.00  0.00    -0.062 A 
HETATM   22  C16 UNL     1      21.319  -1.860  54.870  1.00  0.00     0.048 C 
HETATM   23  C17 UNL     1      22.506  -1.037  52.776  1.00  0.00     0.007 A 
HETATM   24  C18 UNL     1      22.755  -0.014  51.857  1.00  0.00     0.011 A 
ENDBRANCH  15  18
BRANCH   4  25
HETATM   25  O1  UNL     1      23.821   5.600  53.783  1.00  0.00    -0.345 OA
HETATM   26  H4  UNL     1      24.686   5.825  54.237  1.00  0.00     0.219 HD
ENDBRANCH   4  25
TORSDOF 2
ENDMDL
MODEL 6
REMARK VINA RESULT:      -7.6      5.237      7.350
REMARK  2 active torsions:
REMARK  status: ('A' for Active; 'I' for Inactive)
REMARK    1  A    between atoms: C3_4  and  O1_5 
REMARK    2  A    between atoms: C11_16  and  C12_17 
ROOT
HETATM    1  C1  UNL     1      29.576  11.422  45.141  1.00  0.00     0.057 C 
HETATM    2  S1  UNL     1      29.663  10.625  46.544  1.00  0.00    -0.175 SA
HETATM    3  C2  UNL     1      29.436  11.862  47.826  1.00  0.00     0.095 C 
HETATM    4  C3  UNL     1      28.613  11.864  48.883  1.00  0.00     0.161 C 
HETATM    5  N1  UNL     1      27.682  10.878  49.292  1.00  0.00    -0.260 N 
HETATM    6  N2  UNL     1      27.633   9.509  49.021  1.00  0.00    -0.190 N 
HETATM    7  N3  UNL     1      27.002   8.925  50.160  1.00  0.00    -0.171 NA
HETATM    8  C4  UNL     1      26.418   7.771  50.238  1.00  0.00     0.126 C 
HETATM    9  C5  UNL     1      25.906   6.801  49.275  1.00  0.00     0.073 C 
HETATM   10  C6  UNL     1      24.659   7.265  48.552  1.00  0.00    -0.017 C 
HETATM   11  C7  UNL     1      24.692   7.457  47.213  1.00  0.00    -0.025 C 
HETATM   12  C8  UNL     1      25.967   8.107  46.701  1.00  0.00     0.063 C 
HETATM   13  C9  UNL     1      27.074   7.716  47.675  1.00  0.00    -0.042 C 
HETATM   14  C10 UNL     1      26.895   6.467  48.199  1.00  0.00    -0.007 C 
HETATM   15  C11 UNL     1      28.104   8.786  47.863  1.00  0.00     0.131 C 
HETATM   16  C19 UNL     1      28.207   9.580  46.619  1.00  0.00     0.116 C 
HETATM   17  H5  UNL     1      26.865  11.177  49.908  1.00  0.00     0.191 HD
ENDROOT
BRANCH  15  18
HETATM   18  C12 UNL     1      29.462   8.287  48.156  1.00  0.00    -0.021 A 
HETATM   19  C13 UNL     1      30.282   8.549  49.199  1.00  0.00     0.011 A 
HETATM   20  C14 UNL     1      31.540   7.999  49.329  1.00  0.00     0.007 A 
HETATM   21  C15 UNL     1      31.992   7.152  48.371  1.00  0.00    -0.062 A 
HETATM   22  C16 UNL     1      33.368   6.598  48.585  1.00  0.00     0.048 C 
HETATM   23  C17 UNL     1      31.198   6.850  47.282  1.00  0.00     0.007 A 
HETATM   24  C18 UNL     1      29.924   7.413  47.162  1.00  0.00     0.011 A 
ENDBRANCH  15  18
BRANCH   4  25
HETATM   25  O1  UNL     1      28.667  12.983  49.707  1.00  0.00    -0.345 OA
HETATM   26  H4  UNL     1      29.194  13.788  49.425  1.00  0.00     0.219 HD
ENDBRANCH   4  25
TORSDOF 2
ENDMDL
MODEL 7
REMARK VINA RESULT:      -7.5      2.466      4.633
REMARK  2 active torsions:
REMARK  status: ('A' for Active; 'I' for Inactive)
REMARK    1  A    between atoms: C3_4  and  O1_5 
REMARK    2  A    between atoms: C11_16  and  C12_17 
ROOT
HETATM    1  C1  UNL     1      23.538   5.142  53.528  1.00  0.00     0.057 C 
HETATM    2  S1  UNL     1      24.050   4.408  52.182  1.00  0.00    -0.175 SA
HETATM    3  C2  UNL     1      24.020   2.648  52.542  1.00  0.00     0.095 C 
HETATM    4  C3  UNL     1      23.487   1.638  51.843  1.00  0.00     0.161 C 
HETATM    5  N1  UNL     1      22.791   1.672  50.610  1.00  0.00    -0.260 N 
HETATM    6  N2  UNL     1      22.817   2.615  49.580  1.00  0.00    -0.190 N 
HETATM    7  N3  UNL     1      22.549   1.876  48.389  1.00  0.00    -0.171 NA
HETATM    8  C4  UNL     1      22.122   2.331  47.253  1.00  0.00     0.126 C 
HETATM    9  C5  UNL     1      21.491   3.566  46.802  1.00  0.00     0.073 C 
HETATM   10  C6  UNL     1      20.064   3.728  47.281  1.00  0.00    -0.017 C 
HETATM   11  C7  UNL     1      19.746   4.748  48.113  1.00  0.00    -0.025 C 
HETATM   12  C8  UNL     1      20.783   5.030  49.188  1.00  0.00     0.063 C 
HETATM   13  C9  UNL     1      22.129   4.599  48.616  1.00  0.00    -0.042 C 
HETATM   14  C10 UNL     1      22.213   4.796  47.266  1.00  0.00    -0.007 C 
HETATM   15  C11 UNL     1      23.059   4.038  49.646  1.00  0.00     0.131 C 
HETATM   16  C19 UNL     1      22.771   4.670  50.952  1.00  0.00     0.116 C 
HETATM   17  H5  UNL     1      22.125   0.872  50.381  1.00  0.00     0.191 HD
ENDROOT
BRANCH  15  18
HETATM   18  C12 UNL     1      24.491   4.271  49.373  1.00  0.00    -0.021 A 
HETATM   19  C13 UNL     1      25.539   3.417  49.421  1.00  0.00     0.011 A 
HETATM   20  C14 UNL     1      26.835   3.793  49.138  1.00  0.00     0.007 A 
HETATM   21  C15 UNL     1      27.087   5.081  48.794  1.00  0.00    -0.062 A 
HETATM   22  C16 UNL     1      28.520   5.410  48.502  1.00  0.00     0.048 C 
HETATM   23  C17 UNL     1      26.056   5.997  48.731  1.00  0.00     0.007 A 
HETATM   24  C18 UNL     1      24.746   5.602  49.019  1.00  0.00     0.011 A 
ENDBRANCH  15  18
BRANCH   4  25
HETATM   25  O1  UNL     1      23.628   0.366  52.389  1.00  0.00    -0.345 OA
HETATM   26  H4  UNL     1      24.183  -0.323  51.917  1.00  0.00     0.219 HD
ENDBRANCH   4  25
TORSDOF 2
ENDMDL
MODEL 8
REMARK VINA RESULT:      -7.3      3.084      5.858
REMARK  2 active torsions:
REMARK  status: ('A' for Active; 'I' for Inactive)
REMARK    1  A    between atoms: C3_4  and  O1_5 
REMARK    2  A    between atoms: C11_16  and  C12_17 
ROOT
HETATM    1  C1  UNL     1      17.362   4.075  51.416  1.00  0.00     0.057 C 
HETATM    2  S1  UNL     1      18.642   3.148  51.081  1.00  0.00    -0.175 SA
HETATM    3  C2  UNL     1      18.507   2.738  49.338  1.00  0.00     0.095 C 
HETATM    4  C3  UNL     1      19.419   2.830  48.361  1.00  0.00     0.161 C 
HETATM    5  N1  UNL     1      20.761   3.279  48.428  1.00  0.00    -0.260 N 
HETATM    6  N2  UNL     1      21.642   3.342  49.511  1.00  0.00    -0.190 N 
HETATM    7  N3  UNL     1      22.941   3.175  48.945  1.00  0.00    -0.171 NA
HETATM    8  C4  UNL     1      24.081   3.507  49.464  1.00  0.00     0.126 C 
HETATM    9  C5  UNL     1      24.509   4.374  50.556  1.00  0.00     0.073 C 
HETATM   10  C6  UNL     1      24.334   5.849  50.263  1.00  0.00    -0.017 C 
HETATM   11  C7  UNL     1      23.477   6.585  51.009  1.00  0.00    -0.025 C 
HETATM   12  C8  UNL     1      22.177   5.877  51.357  1.00  0.00     0.063 C 
HETATM   13  C9  UNL     1      22.491   4.385  51.388  1.00  0.00    -0.042 C 
HETATM   14  C10 UNL     1      23.758   4.125  51.830  1.00  0.00    -0.007 C 
HETATM   15  C11 UNL     1      21.358   3.530  50.914  1.00  0.00     0.131 C 
HETATM   16  C19 UNL     1      20.080   4.211  51.217  1.00  0.00     0.116 C 
HETATM   17  H5  UNL     1      21.221   3.639  47.537  1.00  0.00     0.191 HD
ENDROOT
BRANCH  15  18
HETATM   18  C12 UNL     1      21.285   2.199  51.548  1.00  0.00    -0.021 A 
HETATM   19  C13 UNL     1      21.536   0.973  51.036  1.00  0.00     0.011 A 
HETATM   20  C14 UNL     1      21.418  -0.191  51.766  1.00  0.00     0.007 A 
HETATM   21  C15 UNL     1      21.030  -0.118  53.064  1.00  0.00    -0.062 A 
HETATM   22  C16 UNL     1      20.925  -1.427  53.788  1.00  0.00     0.048 C 
HETATM   23  C17 UNL     1      20.758   1.107  53.639  1.00  0.00     0.007 A 
HETATM   24  C18 UNL     1      20.883   2.280  52.888  1.00  0.00     0.011 A 
ENDBRANCH  15  18
BRANCH   4  25
HETATM   25  O1  UNL     1      19.009   2.431  47.093  1.00  0.00    -0.345 OA
HETATM   26  H4  UNL     1      18.432   3.036  46.539  1.00  0.00     0.219 HD
ENDBRANCH   4  25
TORSDOF 2
ENDMDL
MODEL 9
REMARK VINA RESULT:      -7.2     18.222     21.095
REMARK  2 active torsions:
REMARK  status: ('A' for Active; 'I' for Inactive)
REMARK    1  A    between atoms: C3_4  and  O1_5 
REMARK    2  A    between atoms: C11_16  and  C12_17 
ROOT
HETATM    1  C1  UNL     1      42.766   8.526  51.471  1.00  0.00     0.057 C 
HETATM    2  S1  UNL     1      42.923   8.396  53.074  1.00  0.00    -0.175 SA
HETATM    3  C2  UNL     1      41.360   7.738  53.667  1.00  0.00     0.095 C 
HETATM    4  C3  UNL     1      41.118   6.707  54.486  1.00  0.00     0.161 C 
HETATM    5  N1  UNL     1      42.035   5.836  55.124  1.00  0.00    -0.260 N 
HETATM    6  N2  UNL     1      43.382   6.018  55.449  1.00  0.00    -0.190 N 
HETATM    7  N3  UNL     1      43.595   5.226  56.616  1.00  0.00    -0.171 NA
HETATM    8  C4  UNL     1      44.722   4.785  57.080  1.00  0.00     0.126 C 
HETATM    9  C5  UNL     1      46.070   4.624  56.547  1.00  0.00     0.073 C 
HETATM   10  C6  UNL     1      46.187   3.522  55.515  1.00  0.00    -0.017 C 
HETATM   11  C7  UNL     1      46.525   3.829  54.241  1.00  0.00    -0.025 C 
HETATM   12  C8  UNL     1      45.879   5.096  53.705  1.00  0.00     0.063 C 
HETATM   13  C9  UNL     1      45.628   5.997  54.910  1.00  0.00    -0.042 C 
HETATM   14  C10 UNL     1      46.586   5.861  55.876  1.00  0.00    -0.007 C 
HETATM   15  C11 UNL     1      44.384   6.821  54.787  1.00  0.00     0.131 C 
HETATM   16  C19 UNL     1      44.130   7.099  53.356  1.00  0.00     0.116 C 
HETATM   17  H5  UNL     1      41.695   4.872  55.425  1.00  0.00     0.191 HD
ENDROOT
BRANCH  15  18
HETATM   18  C12 UNL     1      44.443   8.130  55.466  1.00  0.00    -0.021 A 
HETATM   19  C13 UNL     1      43.753   8.591  56.535  1.00  0.00     0.011 A 
HETATM   20  C14 UNL     1      43.922   9.856  57.055  1.00  0.00     0.007 A 
HETATM   21  C15 UNL     1      44.821  10.692  56.477  1.00  0.00    -0.062 A 
HETATM   22  C16 UNL     1      44.945  12.050  57.101  1.00  0.00     0.048 C 
HETATM   23  C17 UNL     1      45.551  10.276  55.382  1.00  0.00     0.007 A 
HETATM   24  C18 UNL     1      45.372   8.989  54.865  1.00  0.00     0.011 A 
ENDBRANCH  15  18
BRANCH   4  25
HETATM   25  O1  UNL     1      39.781   6.438  54.764  1.00  0.00    -0.345 OA
HETATM   26  H4  UNL     1      39.059   6.960  54.304  1.00  0.00     0.219 HD
ENDBRANCH   4  25
TORSDOF 2
ENDMDL
