MODEL 1
REMARK VINA RESULT:      -7.9      0.000      0.000
REMARK  7 active torsions:
REMARK  status: ('A' for Active; 'I' for Inactive)
REMARK       I    between atoms: C1_2  and  N1_3 
REMARK    1  A    between atoms: C1_2  and  C8_11 
REMARK    2  A    between atoms: N1_3  and  C2_4 
REMARK    3  A    between atoms: C11_14  and  N2_15 
REMARK    4  A    between atoms: N2_15  and  C12_16 
REMARK    5  A    between atoms: N2_15  and  C14_19 
REMARK    6  A    between atoms: C12_16  and  C13_17 
REMARK    7  A    between atoms: C14_19  and  C15_20 
ROOT
HETATM    1  C8  UNL     1      23.448  -0.753  54.213  1.00  0.00     0.032 A 
HETATM    2  C9  UNL     1      22.382  -1.279  54.954  1.00  0.00     0.019 A 
HETATM    3  C10 UNL     1      21.099  -1.200  54.523  1.00  0.00     0.030 A 
HETATM    4  C11 UNL     1      20.747  -0.606  53.337  1.00  0.00     0.030 A 
HETATM    5  C16 UNL     1      21.816  -0.103  52.640  1.00  0.00     0.030 A 
HETATM    6  C17 UNL     1      23.140  -0.146  53.013  1.00  0.00     0.019 A 
ENDROOT
BRANCH   1   7
HETATM    7  C1  UNL     1      24.860  -0.779  54.568  1.00  0.00     0.256 C 
HETATM    8  O1  UNL     1      25.295  -1.080  55.733  1.00  0.00    -0.267 OA
HETATM    9  N1  UNL     1      25.823  -0.454  53.581  1.00  0.00    -0.320 N 
HETATM   10  H1  UNL     1      25.654  -0.190  52.598  1.00  0.00     0.169 HD
BRANCH   9  11
HETATM   11  C2  UNL     1      27.241  -0.387  53.612  1.00  0.00     0.073 A 
HETATM   12  C3  UNL     1      28.082   0.627  54.020  1.00  0.00     0.033 A 
HETATM   13  C4  UNL     1      29.432   0.477  53.965  1.00  0.00     0.002 A 
HETATM   14  C5  UNL     1      30.024  -0.675  53.509  1.00  0.00     0.003 A 
HETATM   15  C6  UNL     1      29.210  -1.727  53.088  1.00  0.00     0.044 A 
HETATM   16  C7  UNL     1      27.838  -1.547  53.153  1.00  0.00     0.143 A 
HETATM   17  F1  UNL     1      27.160  -2.638  52.717  1.00  0.00    -0.204 F 
ENDBRANCH   9  11
ENDBRANCH   1   7
BRANCH   4  18
HETATM   18  N2  UNL     1      19.381  -0.591  52.970  1.00  0.00    -0.379 N 
BRANCH  18  19
HETATM   19  C12 UNL     1      18.424  -1.335  53.777  1.00  0.00     0.138 C 
BRANCH  19  20
HETATM   20  C13 UNL     1      17.353  -2.015  52.985  1.00  0.00     0.134 C 
HETATM   21 CL1  UNL     1      17.128  -3.695  53.523  1.00  0.00    -0.129 Cl
ENDBRANCH  19  20
ENDBRANCH  18  19
BRANCH  18  22
HETATM   22  C14 UNL     1      18.591   0.022  51.950  1.00  0.00     0.138 C 
BRANCH  22  23
HETATM   23  C15 UNL     1      18.981   1.399  51.494  1.00  0.00     0.134 C 
HETATM   24 CL2  UNL     1      19.825   1.122  49.903  1.00  0.00    -0.129 Cl
ENDBRANCH  22  23
ENDBRANCH  18  22
ENDBRANCH   4  18
TORSDOF 7
ENDMDL
MODEL 2
REMARK VINA RESULT:      -7.7      0.700      2.671
REMARK  7 active torsions:
REMARK  status: ('A' for Active; 'I' for Inactive)
REMARK       I    between atoms: C1_2  and  N1_3 
REMARK    1  A    between atoms: C1_2  and  C8_11 
REMARK    2  A    between atoms: N1_3  and  C2_4 
REMARK    3  A    between atoms: C11_14  and  N2_15 
REMARK    4  A    between atoms: N2_15  and  C12_16 
REMARK    5  A    between atoms: N2_15  and  C14_19 
REMARK    6  A    between atoms: C12_16  and  C13_17 
REMARK    7  A    between atoms: C14_19  and  C15_20 
ROOT
HETATM    1  C8  UNL     1      23.378  -0.427  53.535  1.00  0.00     0.032 A 
HETATM    2  C9  UNL     1      23.002   0.234  52.360  1.00  0.00     0.019 A 
HETATM    3  C10 UNL     1      21.705   0.355  51.986  1.00  0.00     0.030 A 
HETATM    4  C11 UNL     1      20.667  -0.156  52.724  1.00  0.00     0.030 A 
HETATM    5  C16 UNL     1      21.073  -0.796  53.867  1.00  0.00     0.030 A 
HETATM    6  C17 UNL     1      22.366  -0.957  54.309  1.00  0.00     0.019 A 
ENDROOT
BRANCH   1   7
HETATM    7  C1  UNL     1      24.731  -0.619  54.041  1.00  0.00     0.256 C 
HETATM    8  O1  UNL     1      24.995  -1.067  55.210  1.00  0.00    -0.267 OA
HETATM    9  N1  UNL     1      25.829  -0.295  53.208  1.00  0.00    -0.320 N 
HETATM   10  H1  UNL     1      25.802   0.075  52.245  1.00  0.00     0.169 HD
BRANCH   9  11
HETATM   11  C2  UNL     1      27.234  -0.364  53.404  1.00  0.00     0.073 A 
HETATM   12  C3  UNL     1      28.117   0.570  53.902  1.00  0.00     0.033 A 
HETATM   13  C4  UNL     1      29.442   0.289  54.007  1.00  0.00     0.002 A 
HETATM   14  C5  UNL     1      29.968  -0.922  53.627  1.00  0.00     0.003 A 
HETATM   15  C6  UNL     1      29.109  -1.897  53.119  1.00  0.00     0.044 A 
HETATM   16  C7  UNL     1      27.764  -1.584  53.023  1.00  0.00     0.143 A 
HETATM   17  F1  UNL     1      27.037  -2.612  52.516  1.00  0.00    -0.204 F 
ENDBRANCH   9  11
ENDBRANCH   1   7
BRANCH   4  18
HETATM   18  N2  UNL     1      19.346   0.039  52.256  1.00  0.00    -0.379 N 
BRANCH  18  19
HETATM   19  C12 UNL     1      18.968   1.345  51.732  1.00  0.00     0.138 C 
BRANCH  19  20
HETATM   20  C13 UNL     1      18.479   1.319  50.319  1.00  0.00     0.134 C 
HETATM   21 CL1  UNL     1      19.626   2.131  49.230  1.00  0.00    -0.129 Cl
ENDBRANCH  19  20
ENDBRANCH  18  19
BRANCH  18  22
HETATM   22  C14 UNL     1      18.171  -0.759  52.113  1.00  0.00     0.138 C 
BRANCH  22  23
HETATM   23  C15 UNL     1      17.431  -1.147  53.361  1.00  0.00     0.134 C 
HETATM   24 CL2  UNL     1      17.835  -2.909  53.592  1.00  0.00    -0.129 Cl
ENDBRANCH  22  23
ENDBRANCH  18  22
ENDBRANCH   4  18
TORSDOF 7
ENDMDL
MODEL 3
REMARK VINA RESULT:      -7.3      1.448      1.721
REMARK  7 active torsions:
REMARK  status: ('A' for Active; 'I' for Inactive)
REMARK       I    between atoms: C1_2  and  N1_3 
REMARK    1  A    between atoms: C1_2  and  C8_11 
REMARK    2  A    between atoms: N1_3  and  C2_4 
REMARK    3  A    between atoms: C11_14  and  N2_15 
REMARK    4  A    between atoms: N2_15  and  C12_16 
REMARK    5  A    between atoms: N2_15  and  C14_19 
REMARK    6  A    between atoms: C12_16  and  C13_17 
REMARK    7  A    between atoms: C14_19  and  C15_20 
ROOT
HETATM    1  C8  UNL     1      23.426  -0.025  53.179  1.00  0.00     0.032 A 
HETATM    2  C9  UNL     1      22.180  -0.502  53.606  1.00  0.00     0.019 A 
HETATM    3  C10 UNL     1      21.024  -0.132  53.004  1.00  0.00     0.030 A 
HETATM    4  C11 UNL     1      20.982   0.731  51.938  1.00  0.00     0.030 A 
HETATM    5  C16 UNL     1      22.220   1.178  51.549  1.00  0.00     0.030 A 
HETATM    6  C17 UNL     1      23.432   0.847  52.110  1.00  0.00     0.019 A 
ENDROOT
BRANCH   1   7
HETATM    7  C1  UNL     1      24.730  -0.350  53.741  1.00  0.00     0.256 C 
HETATM    8  O1  UNL     1      24.895  -0.874  54.896  1.00  0.00    -0.267 OA
HETATM    9  N1  UNL     1      25.893  -0.077  52.981  1.00  0.00    -0.320 N 
HETATM   10  H1  UNL     1      25.947   0.339  52.039  1.00  0.00     0.169 HD
BRANCH   9  11
HETATM   11  C2  UNL     1      27.276  -0.270  53.242  1.00  0.00     0.073 A 
HETATM   12  C3  UNL     1      28.219   0.591  53.761  1.00  0.00     0.033 A 
HETATM   13  C4  UNL     1      29.507   0.193  53.932  1.00  0.00     0.002 A 
HETATM   14  C5  UNL     1      29.934  -1.071  53.602  1.00  0.00     0.003 A 
HETATM   15  C6  UNL     1      29.011  -1.975  53.075  1.00  0.00     0.044 A 
HETATM   16  C7  UNL     1      27.706  -1.542  52.911  1.00  0.00     0.143 A 
HETATM   17  F1  UNL     1      26.910  -2.511  52.393  1.00  0.00    -0.204 F 
ENDBRANCH   9  11
ENDBRANCH   1   7
BRANCH   4  18
HETATM   18  N2  UNL     1      19.724   1.041  51.370  1.00  0.00    -0.379 N 
BRANCH  18  19
HETATM   19  C12 UNL     1      18.767  -0.033  51.144  1.00  0.00     0.138 C 
BRANCH  19  20
HETATM   20  C13 UNL     1      17.543   0.049  51.997  1.00  0.00     0.134 C 
HETATM   21 CL1  UNL     1      17.535  -1.232  53.231  1.00  0.00    -0.129 Cl
ENDBRANCH  19  20
ENDBRANCH  18  19
BRANCH  18  22
HETATM   22  C14 UNL     1      19.049   2.221  50.933  1.00  0.00     0.138 C 
BRANCH  22  23
HETATM   23  C15 UNL     1      19.110   3.432  51.820  1.00  0.00     0.134 C 
HETATM   24 CL2  UNL     1      20.536   4.378  51.191  1.00  0.00    -0.129 Cl
ENDBRANCH  22  23
ENDBRANCH  18  22
ENDBRANCH   4  18
TORSDOF 7
ENDMDL
MODEL 4
REMARK VINA RESULT:      -7.2      2.167      3.370
REMARK  7 active torsions:
REMARK  status: ('A' for Active; 'I' for Inactive)
REMARK       I    between atoms: C1_2  and  N1_3 
REMARK    1  A    between atoms: C1_2  and  C8_11 
REMARK    2  A    between atoms: N1_3  and  C2_4 
REMARK    3  A    between atoms: C11_14  and  N2_15 
REMARK    4  A    between atoms: N2_15  and  C12_16 
REMARK    5  A    between atoms: N2_15  and  C14_19 
REMARK    6  A    between atoms: C12_16  and  C13_17 
REMARK    7  A    between atoms: C14_19  and  C15_20 
ROOT
HETATM    1  C8  UNL     1      23.609   0.227  52.961  1.00  0.00     0.032 A 
HETATM    2  C9  UNL     1      22.412  -0.475  52.772  1.00  0.00     0.019 A 
HETATM    3  C10 UNL     1      21.317   0.105  52.224  1.00  0.00     0.030 A 
HETATM    4  C11 UNL     1      21.294   1.414  51.815  1.00  0.00     0.030 A 
HETATM    5  C16 UNL     1      22.482   2.070  52.016  1.00  0.00     0.030 A 
HETATM    6  C17 UNL     1      23.631   1.548  52.564  1.00  0.00     0.019 A 
ENDROOT
BRANCH   1   7
HETATM    7  C1  UNL     1      24.847  -0.285  53.533  1.00  0.00     0.256 C 
HETATM    8  O1  UNL     1      24.927  -0.813  54.696  1.00  0.00    -0.267 OA
HETATM    9  N1  UNL     1      26.040  -0.202  52.775  1.00  0.00    -0.320 N 
HETATM   10  H1  UNL     1      26.160   0.189  51.828  1.00  0.00     0.169 HD
BRANCH   9  11
HETATM   11  C2  UNL     1      27.376  -0.599  53.046  1.00  0.00     0.073 A 
HETATM   12  C3  UNL     1      27.972  -1.841  52.988  1.00  0.00     0.033 A 
HETATM   13  C4  UNL     1      29.287  -1.998  53.293  1.00  0.00     0.002 A 
HETATM   14  C5  UNL     1      30.084  -0.944  53.669  1.00  0.00     0.003 A 
HETATM   15  C6  UNL     1      29.522   0.330  53.740  1.00  0.00     0.044 A 
HETATM   16  C7  UNL     1      28.179   0.461  53.425  1.00  0.00     0.143 A 
HETATM   17  F1  UNL     1      27.755   1.746  53.531  1.00  0.00    -0.204 F 
ENDBRANCH   9  11
ENDBRANCH   1   7
BRANCH   4  18
HETATM   18  N2  UNL     1      20.105   1.921  51.240  1.00  0.00    -0.379 N 
BRANCH  18  19
HETATM   19  C12 UNL     1      20.137   2.412  49.869  1.00  0.00     0.138 C 
BRANCH  19  20
HETATM   20  C13 UNL     1      20.753   1.462  48.893  1.00  0.00     0.134 C 
HETATM   21 CL1  UNL     1      22.355   2.030  48.370  1.00  0.00    -0.129 Cl
ENDBRANCH  19  20
ENDBRANCH  18  19
BRANCH  18  22
HETATM   22  C14 UNL     1      18.746   2.082  51.647  1.00  0.00     0.138 C 
BRANCH  22  23
HETATM   23  C15 UNL     1      17.690   1.341  50.876  1.00  0.00     0.134 C 
HETATM   24 CL2  UNL     1      17.874  -0.390  51.416  1.00  0.00    -0.129 Cl
ENDBRANCH  22  23
ENDBRANCH  18  22
ENDBRANCH   4  18
TORSDOF 7
ENDMDL
MODEL 5
REMARK VINA RESULT:      -6.9      7.367     10.076
REMARK  7 active torsions:
REMARK  status: ('A' for Active; 'I' for Inactive)
REMARK       I    between atoms: C1_2  and  N1_3 
REMARK    1  A    between atoms: C1_2  and  C8_11 
REMARK    2  A    between atoms: N1_3  and  C2_4 
REMARK    3  A    between atoms: C11_14  and  N2_15 
REMARK    4  A    between atoms: N2_15  and  C12_16 
REMARK    5  A    between atoms: N2_15  and  C14_19 
REMARK    6  A    between atoms: C12_16  and  C13_17 
REMARK    7  A    between atoms: C14_19  and  C15_20 
ROOT
HETATM    1  C8  UNL     1      25.841   4.518  49.282  1.00  0.00     0.032 A 
HETATM    2  C9  UNL     1      25.446   5.806  48.901  1.00  0.00     0.019 A 
HETATM    3  C10 UNL     1      26.322   6.704  48.386  1.00  0.00     0.030 A 
HETATM    4  C11 UNL     1      27.652   6.424  48.200  1.00  0.00     0.030 A 
HETATM    5  C16 UNL     1      28.001   5.154  48.585  1.00  0.00     0.030 A 
HETATM    6  C17 UNL     1      27.171   4.192  49.113  1.00  0.00     0.019 A 
ENDROOT
BRANCH   1   7
HETATM    7  C1  UNL     1      24.997   3.470  49.841  1.00  0.00     0.256 C 
HETATM    8  O1  UNL     1      23.949   3.018  49.262  1.00  0.00    -0.267 OA
HETATM    9  N1  UNL     1      25.338   2.908  51.095  1.00  0.00    -0.320 N 
HETATM   10  H1  UNL     1      26.141   3.149  51.696  1.00  0.00     0.169 HD
BRANCH   9  11
HETATM   11  C2  UNL     1      24.732   1.898  51.888  1.00  0.00     0.073 A 
HETATM   12  C3  UNL     1      23.470   1.825  52.438  1.00  0.00     0.033 A 
HETATM   13  C4  UNL     1      23.091   0.748  53.175  1.00  0.00     0.002 A 
HETATM   14  C5  UNL     1      23.932  -0.312  53.410  1.00  0.00     0.003 A 
HETATM   15  C6  UNL     1      25.219  -0.280  52.871  1.00  0.00     0.044 A 
HETATM   16  C7  UNL     1      25.578   0.830  52.125  1.00  0.00     0.143 A 
HETATM   17  F1  UNL     1      26.849   0.739  51.658  1.00  0.00    -0.204 F 
ENDBRANCH   9  11
ENDBRANCH   1   7
BRANCH   4  18
HETATM   18  N2  UNL     1      28.480   7.424  47.640  1.00  0.00    -0.379 N 
BRANCH  18  19
HETATM   19  C12 UNL     1      28.194   8.822  47.931  1.00  0.00     0.138 C 
BRANCH  19  20
HETATM   20  C13 UNL     1      28.700   9.288  49.259  1.00  0.00     0.134 C 
HETATM   21 CL1  UNL     1      27.394   9.323  50.465  1.00  0.00    -0.129 Cl
ENDBRANCH  19  20
ENDBRANCH  18  19
BRANCH  18  22
HETATM   22  C14 UNL     1      29.643   7.460  46.812  1.00  0.00     0.138 C 
BRANCH  22  23
HETATM   23  C15 UNL     1      30.978   7.261  47.469  1.00  0.00     0.134 C 
HETATM   24 CL2  UNL     1      31.307   5.477  47.285  1.00  0.00    -0.129 Cl
ENDBRANCH  22  23
ENDBRANCH  18  22
ENDBRANCH   4  18
TORSDOF 7
ENDMDL
MODEL 6
REMARK VINA RESULT:      -6.8      8.112     10.968
REMARK  7 active torsions:
REMARK  status: ('A' for Active; 'I' for Inactive)
REMARK       I    between atoms: C1_2  and  N1_3 
REMARK    1  A    between atoms: C1_2  and  C8_11 
REMARK    2  A    between atoms: N1_3  and  C2_4 
REMARK    3  A    between atoms: C11_14  and  N2_15 
REMARK    4  A    between atoms: N2_15  and  C12_16 
REMARK    5  A    between atoms: N2_15  and  C14_19 
REMARK    6  A    between atoms: C12_16  and  C13_17 
REMARK    7  A    between atoms: C14_19  and  C15_20 
ROOT
HETATM    1  C8  UNL     1      26.589   5.266  49.082  1.00  0.00     0.032 A 
HETATM    2  C9  UNL     1      26.356   6.638  48.932  1.00  0.00     0.019 A 
HETATM    3  C10 UNL     1      27.291   7.473  48.414  1.00  0.00     0.030 A 
HETATM    4  C11 UNL     1      28.526   7.043  48.001  1.00  0.00     0.030 A 
HETATM    5  C16 UNL     1      28.717   5.694  48.163  1.00  0.00     0.030 A 
HETATM    6  C17 UNL     1      27.819   4.788  48.679  1.00  0.00     0.019 A 
ENDROOT
BRANCH   1   7
HETATM    7  C1  UNL     1      25.667   4.273  49.620  1.00  0.00     0.256 C 
HETATM    8  O1  UNL     1      24.627   3.860  49.000  1.00  0.00    -0.267 OA
HETATM    9  N1  UNL     1      25.920   3.722  50.900  1.00  0.00    -0.320 N 
HETATM   10  H1  UNL     1      26.704   3.937  51.534  1.00  0.00     0.169 HD
BRANCH   9  11
HETATM   11  C2  UNL     1      25.227   2.761  51.682  1.00  0.00     0.073 A 
HETATM   12  C3  UNL     1      24.031   2.850  52.360  1.00  0.00     0.033 A 
HETATM   13  C4  UNL     1      23.543   1.790  53.057  1.00  0.00     0.002 A 
HETATM   14  C5  UNL     1      24.206   0.589  53.124  1.00  0.00     0.003 A 
HETATM   15  C6  UNL     1      25.420   0.455  52.451  1.00  0.00     0.044 A 
HETATM   16  C7  UNL     1      25.894   1.551  51.749  1.00  0.00     0.143 A 
HETATM   17  F1  UNL     1      27.079   1.292  51.141  1.00  0.00    -0.204 F 
ENDBRANCH   9  11
ENDBRANCH   1   7
BRANCH   4  18
HETATM   18  N2  UNL     1      29.424   7.992  47.458  1.00  0.00    -0.379 N 
BRANCH  18  19
HETATM   19  C12 UNL     1      29.891   7.821  46.089  1.00  0.00     0.138 C 
BRANCH  19  20
HETATM   20  C13 UNL     1      31.376   7.711  45.958  1.00  0.00     0.134 C 
HETATM   21 CL1  UNL     1      31.956   6.136  46.547  1.00  0.00    -0.129 Cl
ENDBRANCH  19  20
ENDBRANCH  18  19
BRANCH  18  22
HETATM   22  C14 UNL     1      30.046   9.198  47.901  1.00  0.00     0.138 C 
BRANCH  22  23
HETATM   23  C15 UNL     1      30.417   9.304  49.353  1.00  0.00     0.134 C 
HETATM   24 CL2  UNL     1      31.662   7.995  49.594  1.00  0.00    -0.129 Cl
ENDBRANCH  22  23
ENDBRANCH  18  22
ENDBRANCH   4  18
TORSDOF 7
ENDMDL
MODEL 7
REMARK VINA RESULT:      -6.8      7.337      9.788
REMARK  7 active torsions:
REMARK  status: ('A' for Active; 'I' for Inactive)
REMARK       I    between atoms: C1_2  and  N1_3 
REMARK    1  A    between atoms: C1_2  and  C8_11 
REMARK    2  A    between atoms: N1_3  and  C2_4 
REMARK    3  A    between atoms: C11_14  and  N2_15 
REMARK    4  A    between atoms: N2_15  and  C12_16 
REMARK    5  A    between atoms: N2_15  and  C14_19 
REMARK    6  A    between atoms: C12_16  and  C13_17 
REMARK    7  A    between atoms: C14_19  and  C15_20 
ROOT
HETATM    1  C8  UNL     1      25.789   4.348  49.394  1.00  0.00     0.032 A 
HETATM    2  C9  UNL     1      27.149   4.257  49.075  1.00  0.00     0.019 A 
HETATM    3  C10 UNL     1      27.836   5.299  48.546  1.00  0.00     0.030 A 
HETATM    4  C11 UNL     1      27.257   6.515  48.284  1.00  0.00     0.030 A 
HETATM    5  C16 UNL     1      25.925   6.567  48.609  1.00  0.00     0.030 A 
HETATM    6  C17 UNL     1      25.165   5.554  49.147  1.00  0.00     0.019 A 
ENDROOT
BRANCH   1   7
HETATM    7  C1  UNL     1      24.949   3.305  49.966  1.00  0.00     0.256 C 
HETATM    8  O1  UNL     1      23.861   2.896  49.431  1.00  0.00    -0.267 OA
HETATM    9  N1  UNL     1      25.341   2.696  51.184  1.00  0.00    -0.320 N 
HETATM   10  H1  UNL     1      26.180   2.900  51.748  1.00  0.00     0.169 HD
BRANCH   9  11
HETATM   11  C2  UNL     1      24.752   1.678  51.978  1.00  0.00     0.073 A 
HETATM   12  C3  UNL     1      23.486   1.578  52.515  1.00  0.00     0.033 A 
HETATM   13  C4  UNL     1      23.127   0.497  53.256  1.00  0.00     0.002 A 
HETATM   14  C5  UNL     1      23.991  -0.540  53.508  1.00  0.00     0.003 A 
HETATM   15  C6  UNL     1      25.282  -0.481  52.982  1.00  0.00     0.044 A 
HETATM   16  C7  UNL     1      25.622   0.632  52.232  1.00  0.00     0.143 A 
HETATM   17  F1  UNL     1      26.899   0.570  51.779  1.00  0.00    -0.204 F 
ENDBRANCH   9  11
ENDBRANCH   1   7
BRANCH   4  18
HETATM   18  N2  UNL     1      28.065   7.545  47.747  1.00  0.00    -0.379 N 
BRANCH  18  19
HETATM   19  C12 UNL     1      29.163   8.071  48.547  1.00  0.00     0.138 C 
BRANCH  19  20
HETATM   20  C13 UNL     1      28.895   9.416  49.143  1.00  0.00     0.134 C 
HETATM   21 CL1  UNL     1      27.564   9.341  50.320  1.00  0.00    -0.129 Cl
ENDBRANCH  19  20
ENDBRANCH  18  19
BRANCH  18  22
HETATM   22  C14 UNL     1      28.135   8.270  46.519  1.00  0.00     0.138 C 
BRANCH  22  23
HETATM   23  C15 UNL     1      26.844   8.619  45.836  1.00  0.00     0.134 C 
HETATM   24 CL2  UNL     1      26.056   9.823  46.954  1.00  0.00    -0.129 Cl
ENDBRANCH  22  23
ENDBRANCH  18  22
ENDBRANCH   4  18
TORSDOF 7
ENDMDL
MODEL 8
REMARK VINA RESULT:      -6.8      7.435      8.642
REMARK  7 active torsions:
REMARK  status: ('A' for Active; 'I' for Inactive)
REMARK       I    between atoms: C1_2  and  N1_3 
REMARK    1  A    between atoms: C1_2  and  C8_11 
REMARK    2  A    between atoms: N1_3  and  C2_4 
REMARK    3  A    between atoms: C11_14  and  N2_15 
REMARK    4  A    between atoms: N2_15  and  C12_16 
REMARK    5  A    between atoms: N2_15  and  C14_19 
REMARK    6  A    between atoms: C12_16  and  C13_17 
REMARK    7  A    between atoms: C14_19  and  C15_20 
ROOT
HETATM    1  C8  UNL     1      27.065   5.653  48.630  1.00  0.00     0.032 A 
HETATM    2  C9  UNL     1      25.803   6.259  48.644  1.00  0.00     0.019 A 
HETATM    3  C10 UNL     1      24.695   5.604  49.067  1.00  0.00     0.030 A 
HETATM    4  C11 UNL     1      24.722   4.306  49.512  1.00  0.00     0.030 A 
HETATM    5  C16 UNL     1      25.973   3.745  49.483  1.00  0.00     0.030 A 
HETATM    6  C17 UNL     1      27.139   4.347  49.069  1.00  0.00     0.019 A 
ENDROOT
BRANCH   1   7
HETATM    7  C1  UNL     1      28.322   6.252  48.203  1.00  0.00     0.256 C 
HETATM    8  O1  UNL     1      28.423   7.069  47.223  1.00  0.00    -0.267 OA
HETATM    9  N1  UNL     1      29.512   5.923  48.898  1.00  0.00    -0.320 N 
HETATM   10  H1  UNL     1      29.615   5.289  49.704  1.00  0.00     0.169 HD
BRANCH   9  11
HETATM   11  C2  UNL     1      30.862   6.327  48.729  1.00  0.00     0.073 A 
HETATM   12  C3  UNL     1      31.542   7.417  49.229  1.00  0.00     0.033 A 
HETATM   13  C4  UNL     1      32.854   7.614  48.938  1.00  0.00     0.002 A 
HETATM   14  C5  UNL     1      33.567   6.751  48.141  1.00  0.00     0.003 A 
HETATM   15  C6  UNL     1      32.917   5.634  47.614  1.00  0.00     0.044 A 
HETATM   16  C7  UNL     1      31.580   5.458  47.927  1.00  0.00     0.143 A 
HETATM   17  F1  UNL     1      31.067   4.339  47.356  1.00  0.00    -0.204 F 
ENDBRANCH   9  11
ENDBRANCH   1   7
BRANCH   4  18
HETATM   18  N2  UNL     1      23.512   3.717  49.948  1.00  0.00    -0.379 N 
BRANCH  18  19
HETATM   19  C12 UNL     1      22.432   3.528  48.990  1.00  0.00     0.138 C 
BRANCH  19  20
HETATM   20  C13 UNL     1      22.585   2.318  48.125  1.00  0.00     0.134 C 
HETATM   21 CL1  UNL     1      21.500   1.012  48.653  1.00  0.00    -0.129 Cl
ENDBRANCH  19  20
ENDBRANCH  18  19
BRANCH  18  22
HETATM   22  C14 UNL     1      23.005   3.181  51.171  1.00  0.00     0.138 C 
BRANCH  22  23
HETATM   23  C15 UNL     1      23.706   1.989  51.758  1.00  0.00     0.134 C 
HETATM   24 CL2  UNL     1      24.683   2.676  53.135  1.00  0.00    -0.129 Cl
ENDBRANCH  22  23
ENDBRANCH  18  22
ENDBRANCH   4  18
TORSDOF 7
ENDMDL
MODEL 9
REMARK VINA RESULT:      -6.8      8.103     10.622
REMARK  7 active torsions:
REMARK  status: ('A' for Active; 'I' for Inactive)
REMARK       I    between atoms: C1_2  and  N1_3 
REMARK    1  A    between atoms: C1_2  and  C8_11 
REMARK    2  A    between atoms: N1_3  and  C2_4 
REMARK    3  A    between atoms: C11_14  and  N2_15 
REMARK    4  A    between atoms: N2_15  and  C12_16 
REMARK    5  A    between atoms: N2_15  and  C14_19 
REMARK    6  A    between atoms: C12_16  and  C13_17 
REMARK    7  A    between atoms: C14_19  and  C15_20 
ROOT
HETATM    1  C8  UNL     1      26.698   4.995  49.230  1.00  0.00     0.032 A 
HETATM    2  C9  UNL     1      27.927   5.072  48.563  1.00  0.00     0.019 A 
HETATM    3  C10 UNL     1      28.427   6.247  48.109  1.00  0.00     0.030 A 
HETATM    4  C11 UNL     1      27.774   7.443  48.265  1.00  0.00     0.030 A 
HETATM    5  C16 UNL     1      26.576   7.330  48.923  1.00  0.00     0.030 A 
HETATM    6  C17 UNL     1      26.007   6.176  49.411  1.00  0.00     0.019 A 
ENDROOT
BRANCH   1   7
HETATM    7  C1  UNL     1      26.062   3.799  49.764  1.00  0.00     0.256 C 
HETATM    8  O1  UNL     1      25.038   3.243  49.236  1.00  0.00    -0.267 OA
HETATM    9  N1  UNL     1      26.591   3.202  50.935  1.00  0.00    -0.320 N 
HETATM   10  H1  UNL     1      27.405   3.513  51.488  1.00  0.00     0.169 HD
BRANCH   9  11
HETATM   11  C2  UNL     1      26.206   2.061  51.686  1.00  0.00     0.073 A 
HETATM   12  C3  UNL     1      26.744   0.793  51.730  1.00  0.00     0.033 A 
HETATM   13  C4  UNL     1      26.210  -0.164  52.534  1.00  0.00     0.002 A 
HETATM   14  C5  UNL     1      25.122   0.076  53.337  1.00  0.00     0.003 A 
HETATM   15  C6  UNL     1      24.547   1.348  53.325  1.00  0.00     0.044 A 
HETATM   16  C7  UNL     1      25.111   2.303  52.496  1.00  0.00     0.143 A 
HETATM   17  F1  UNL     1      24.463   3.492  52.575  1.00  0.00    -0.204 F 
ENDBRANCH   9  11
ENDBRANCH   1   7
BRANCH   4  18
HETATM   18  N2  UNL     1      28.389   8.617  47.769  1.00  0.00    -0.379 N 
BRANCH  18  19
HETATM   19  C12 UNL     1      27.609   9.529  46.944  1.00  0.00     0.138 C 
BRANCH  19  20
HETATM   20  C13 UNL     1      28.137   9.702  45.556  1.00  0.00     0.134 C 
HETATM   21 CL1  UNL     1      27.450   8.489  44.453  1.00  0.00    -0.129 Cl
ENDBRANCH  19  20
ENDBRANCH  18  19
BRANCH  18  22
HETATM   22  C14 UNL     1      29.671   9.237  47.875  1.00  0.00     0.138 C 
BRANCH  22  23
HETATM   23  C15 UNL     1      30.244   9.432  49.250  1.00  0.00     0.134 C 
HETATM   24 CL2  UNL     1      31.387   8.028  49.462  1.00  0.00    -0.129 Cl
ENDBRANCH  22  23
ENDBRANCH  18  22
ENDBRANCH   4  18
TORSDOF 7
ENDMDL
