MODEL 1
REMARK VINA RESULT:      -7.9      0.000      0.000
REMARK  6 active torsions:
REMARK  status: ('A' for Active; 'I' for Inactive)
REMARK    1  A    between atoms: C2_2  and  N1_3 
REMARK    2  A    between atoms: N1_3  and  C3_4 
REMARK    3  A    between atoms: C4_6  and  N3_7 
REMARK    4  A    between atoms: C5_8  and  N4_9 
REMARK    5  A    between atoms: N4_9  and  C6_10 
REMARK    6  A    between atoms: C14_20  and  C15_21 
ROOT
HETATM    1  C3  UNL     1      22.557   1.330  52.759  1.00  0.00     0.131 A 
HETATM    2  N2  UNL     1      21.859   2.106  52.047  1.00  0.00    -0.231 NA
HETATM    3  C4  UNL     1      22.319   2.889  50.935  1.00  0.00     0.391 A 
HETATM    4  C5  UNL     1      23.753   2.756  50.629  1.00  0.00     0.065 A 
HETATM    5  C12 UNL     1      24.499   1.954  51.360  1.00  0.00     0.044 A 
HETATM    6  C13 UNL     1      23.997   1.176  52.470  1.00  0.00     0.011 A 
HETATM    7  C14 UNL     1      24.726   0.383  53.160  1.00  0.00     0.019 C 
ENDROOT
BRANCH   4   8
HETATM    8  N4  UNL     1      24.128   3.565  49.525  1.00  0.00    -0.354 N 
HETATM    9  H10 UNL     1      23.404   3.456  48.761  1.00  0.00     0.166 HD
BRANCH   8  10
HETATM   10  C6  UNL     1      25.196   4.450  49.203  1.00  0.00     0.071 A 
HETATM   11  C7  UNL     1      24.914   5.774  48.964  1.00  0.00     0.034 A 
HETATM   12  C8  UNL     1      25.959   6.642  48.649  1.00  0.00     0.026 A 
HETATM   13  C9  UNL     1      27.266   6.157  48.582  1.00  0.00     0.037 A 
HETATM   14 CL1  UNL     1      28.581   7.245  48.187  1.00  0.00    -0.084 Cl
HETATM   15  C10 UNL     1      27.543   4.849  48.820  1.00  0.00     0.068 A 
HETATM   16  C11 UNL     1      26.500   3.984  49.134  1.00  0.00     0.144 A 
HETATM   17  F1  UNL     1      26.779   2.681  49.370  1.00  0.00    -0.204 F 
ENDBRANCH   8  10
ENDBRANCH   4   8
BRANCH   3  18
HETATM   18  N3  UNL     1      22.058   4.304  51.141  1.00  0.00     0.109 N 
HETATM   19  H8  UNL     1      21.029   4.492  50.952  1.00  0.00     0.316 HD
HETATM   20  H9  UNL     1      22.587   4.842  50.425  1.00  0.00     0.316 HD
ENDBRANCH   3  18
BRANCH   1  21
HETATM   21  N1  UNL     1      21.943   0.616  53.842  1.00  0.00    -0.375 N 
HETATM   22  H6  UNL     1      22.137   1.086  54.780  1.00  0.00     0.161 HD
BRANCH  21  23
HETATM   23  C2  UNL     1      21.166  -0.596  53.551  1.00  0.00     0.116 C 
HETATM   24  C1  UNL     1      21.541  -1.676  54.553  1.00  0.00     0.026 C 
ENDBRANCH  21  23
ENDBRANCH   1  21
BRANCH   7  25
HETATM   25  C15 UNL     1      26.026  -0.165  53.379  1.00  0.00    -0.063 C 
HETATM   26  C16 UNL     1      26.437   0.751  54.219  1.00  0.00     0.188 C 
HETATM   27  S1  UNL     1      28.123   0.207  54.620  1.00  0.00    -0.232 SA
HETATM   28  C17 UNL     1      28.324  -0.789  53.082  1.00  0.00     0.060 C 
HETATM   29  C18 UNL     1      26.877  -1.273  52.993  1.00  0.00     0.044 C 
ENDBRANCH   7  25
TORSDOF 6
ENDMDL
MODEL 2
REMARK VINA RESULT:      -7.9      1.334      1.613
REMARK  6 active torsions:
REMARK  status: ('A' for Active; 'I' for Inactive)
REMARK    1  A    between atoms: C2_2  and  N1_3 
REMARK    2  A    between atoms: N1_3  and  C3_4 
REMARK    3  A    between atoms: C4_6  and  N3_7 
REMARK    4  A    between atoms: C5_8  and  N4_9 
REMARK    5  A    between atoms: N4_9  and  C6_10 
REMARK    6  A    between atoms: C14_20  and  C15_21 
ROOT
HETATM    1  C3  UNL     1      22.739   1.117  52.345  1.00  0.00     0.131 A 
HETATM    2  N2  UNL     1      22.080   2.086  51.874  1.00  0.00    -0.231 NA
HETATM    3  C4  UNL     1      22.613   3.336  51.413  1.00  0.00     0.391 A 
HETATM    4  C5  UNL     1      24.076   3.470  51.523  1.00  0.00     0.065 A 
HETATM    5  C12 UNL     1      24.781   2.472  52.012  1.00  0.00     0.044 A 
HETATM    6  C13 UNL     1      24.207   1.224  52.462  1.00  0.00     0.011 A 
HETATM    7  C14 UNL     1      24.904   0.252  52.916  1.00  0.00     0.019 C 
ENDROOT
BRANCH   4   8
HETATM    8  N4  UNL     1      24.522   4.733  51.054  1.00  0.00    -0.354 N 
HETATM    9  H10 UNL     1      23.921   5.489  51.489  1.00  0.00     0.166 HD
BRANCH   8  10
HETATM   10  C6  UNL     1      25.535   5.215  50.178  1.00  0.00     0.071 A 
HETATM   11  C7  UNL     1      26.379   4.313  49.577  1.00  0.00     0.034 A 
HETATM   12  C8  UNL     1      27.373   4.784  48.718  1.00  0.00     0.026 A 
HETATM   13  C9  UNL     1      27.492   6.155  48.485  1.00  0.00     0.037 A 
HETATM   14 CL1  UNL     1      28.739   6.750  47.406  1.00  0.00    -0.084 Cl
HETATM   15  C10 UNL     1      26.657   7.045  49.079  1.00  0.00     0.068 A 
HETATM   16  C11 UNL     1      25.667   6.574  49.936  1.00  0.00     0.144 A 
HETATM   17  F1  UNL     1      24.836   7.463  50.527  1.00  0.00    -0.204 F 
ENDBRANCH   8  10
ENDBRANCH   4   8
BRANCH   3  18
HETATM   18  N3  UNL     1      22.029   4.457  52.131  1.00  0.00     0.109 N 
HETATM   19  H8  UNL     1      22.518   4.553  53.070  1.00  0.00     0.316 HD
HETATM   20  H9  UNL     1      21.037   4.228  52.343  1.00  0.00     0.316 HD
ENDBRANCH   3  18
BRANCH   1  21
HETATM   21  N1  UNL     1      22.051  -0.071  52.766  1.00  0.00    -0.375 N 
HETATM   22  H6  UNL     1      22.063  -0.820  52.008  1.00  0.00     0.161 HD
BRANCH  21  23
HETATM   23  C2  UNL     1      21.454  -0.113  54.108  1.00  0.00     0.116 C 
HETATM   24  C1  UNL     1      21.494  -1.544  54.622  1.00  0.00     0.026 C 
ENDBRANCH  21  23
ENDBRANCH   1  21
BRANCH   7  25
HETATM   25  C15 UNL     1      26.203  -0.239  53.250  1.00  0.00    -0.063 C 
HETATM   26  C16 UNL     1      26.429   0.589  54.237  1.00  0.00     0.188 C 
HETATM   27  S1  UNL     1      28.085   0.103  54.803  1.00  0.00    -0.232 SA
HETATM   28  C17 UNL     1      28.561  -0.681  53.204  1.00  0.00     0.060 C 
HETATM   29  C18 UNL     1      27.180  -1.237  52.861  1.00  0.00     0.044 C 
ENDBRANCH   7  25
TORSDOF 6
ENDMDL
MODEL 3
REMARK VINA RESULT:      -7.9      3.609      6.622
REMARK  6 active torsions:
REMARK  status: ('A' for Active; 'I' for Inactive)
REMARK    1  A    between atoms: C2_2  and  N1_3 
REMARK    2  A    between atoms: N1_3  and  C3_4 
REMARK    3  A    between atoms: C4_6  and  N3_7 
REMARK    4  A    between atoms: C5_8  and  N4_9 
REMARK    5  A    between atoms: N4_9  and  C6_10 
REMARK    6  A    between atoms: C14_20  and  C15_21 
ROOT
HETATM    1  C3  UNL     1      25.516   3.338  50.501  1.00  0.00     0.131 A 
HETATM    2  N2  UNL     1      24.444   3.953  50.235  1.00  0.00    -0.231 NA
HETATM    3  C4  UNL     1      23.157   3.718  50.825  1.00  0.00     0.391 A 
HETATM    4  C5  UNL     1      23.117   2.640  51.828  1.00  0.00     0.065 A 
HETATM    5  C12 UNL     1      24.222   1.986  52.119  1.00  0.00     0.044 A 
HETATM    6  C13 UNL     1      25.503   2.257  51.505  1.00  0.00     0.011 A 
HETATM    7  C14 UNL     1      26.576   1.629  51.811  1.00  0.00     0.019 C 
ENDROOT
BRANCH   4   8
HETATM    8  N4  UNL     1      21.812   2.467  52.356  1.00  0.00    -0.354 N 
HETATM    9  H10 UNL     1      21.415   3.417  52.604  1.00  0.00     0.166 HD
BRANCH   8  10
HETATM   10  C6  UNL     1      20.939   1.375  52.626  1.00  0.00     0.071 A 
HETATM   11  C7  UNL     1      19.768   1.268  51.913  1.00  0.00     0.034 A 
HETATM   12  C8  UNL     1      18.912   0.198  52.176  1.00  0.00     0.026 A 
HETATM   13  C9  UNL     1      19.255  -0.740  53.151  1.00  0.00     0.037 A 
HETATM   14 CL1  UNL     1      18.181  -2.085  53.483  1.00  0.00    -0.084 Cl
HETATM   15  C10 UNL     1      20.412  -0.633  53.853  1.00  0.00     0.068 A 
HETATM   16  C11 UNL     1      21.265   0.434  53.591  1.00  0.00     0.144 A 
HETATM   17  F1  UNL     1      22.418   0.539  54.292  1.00  0.00    -0.204 F 
ENDBRANCH   8  10
ENDBRANCH   4   8
BRANCH   3  18
HETATM   18  N3  UNL     1      22.164   3.394  49.814  1.00  0.00     0.109 N 
HETATM   19  H8  UNL     1      21.997   4.253  49.212  1.00  0.00     0.316 HD
HETATM   20  H9  UNL     1      21.262   3.196  50.293  1.00  0.00     0.316 HD
ENDBRANCH   3  18
BRANCH   1  21
HETATM   21  N1  UNL     1      26.726   3.694  49.817  1.00  0.00    -0.375 N 
HETATM   22  H6  UNL     1      27.508   2.996  50.015  1.00  0.00     0.161 HD
BRANCH  21  23
HETATM   23  C2  UNL     1      26.745   4.899  48.976  1.00  0.00     0.116 C 
HETATM   24  C1  UNL     1      28.174   5.168  48.530  1.00  0.00     0.026 C 
ENDBRANCH  21  23
ENDBRANCH   1  21
BRANCH   7  25
HETATM   25  C15 UNL     1      27.183   0.607  52.601  1.00  0.00    -0.063 C 
HETATM   26  C16 UNL     1      27.856   1.404  53.391  1.00  0.00     0.188 C 
HETATM   27  S1  UNL     1      28.717   0.249  54.497  1.00  0.00    -0.232 SA
HETATM   28  C17 UNL     1      28.624  -1.171  53.325  1.00  0.00     0.060 C 
HETATM   29  C18 UNL     1      27.250  -0.834  52.746  1.00  0.00     0.044 C 
ENDBRANCH   7  25
TORSDOF 6
ENDMDL
MODEL 4
REMARK VINA RESULT:      -7.7      3.614      6.827
REMARK  6 active torsions:
REMARK  status: ('A' for Active; 'I' for Inactive)
REMARK    1  A    between atoms: C2_2  and  N1_3 
REMARK    2  A    between atoms: N1_3  and  C3_4 
REMARK    3  A    between atoms: C4_6  and  N3_7 
REMARK    4  A    between atoms: C5_8  and  N4_9 
REMARK    5  A    between atoms: N4_9  and  C6_10 
REMARK    6  A    between atoms: C14_20  and  C15_21 
ROOT
HETATM    1  C3  UNL     1      23.762   4.454  49.442  1.00  0.00     0.131 A 
HETATM    2  N2  UNL     1      23.080   3.683  50.176  1.00  0.00    -0.231 NA
HETATM    3  C4  UNL     1      23.574   2.871  51.251  1.00  0.00     0.391 A 
HETATM    4  C5  UNL     1      25.024   2.962  51.487  1.00  0.00     0.065 A 
HETATM    5  C12 UNL     1      25.754   3.757  50.733  1.00  0.00     0.044 A 
HETATM    6  C13 UNL     1      25.217   4.566  49.661  1.00  0.00     0.011 A 
HETATM    7  C14 UNL     1      25.932   5.352  48.948  1.00  0.00     0.019 C 
ENDROOT
BRANCH   4   8
HETATM    8  N4  UNL     1      25.433   2.125  52.558  1.00  0.00    -0.354 N 
HETATM    9  H10 UNL     1      24.827   2.331  53.402  1.00  0.00     0.166 HD
BRANCH   8  10
HETATM   10  C6  UNL     1      26.416   1.118  52.770  1.00  0.00     0.071 A 
HETATM   11  C7  UNL     1      26.116  -0.184  52.447  1.00  0.00     0.034 A 
HETATM   12  C8  UNL     1      27.079  -1.172  52.655  1.00  0.00     0.026 A 
HETATM   13  C9  UNL     1      28.324  -0.825  53.183  1.00  0.00     0.037 A 
HETATM   14 CL1  UNL     1      29.536  -2.063  53.445  1.00  0.00    -0.084 Cl
HETATM   15  C10 UNL     1      28.619   0.462  53.501  1.00  0.00     0.068 A 
HETATM   16  C11 UNL     1      27.658   1.446  53.294  1.00  0.00     0.144 A 
HETATM   17  F1  UNL     1      27.954   2.728  53.611  1.00  0.00    -0.204 F 
ENDBRANCH   8  10
ENDBRANCH   4   8
BRANCH   3  18
HETATM   18  N3  UNL     1      23.266   1.466  51.036  1.00  0.00     0.109 N 
HETATM   19  H8  UNL     1      23.172   1.293  49.991  1.00  0.00     0.316 HD
HETATM   20  H9  UNL     1      22.331   1.269  51.447  1.00  0.00     0.316 HD
ENDBRANCH   3  18
BRANCH   1  21
HETATM   21  N1  UNL     1      23.114   5.201  48.402  1.00  0.00    -0.375 N 
HETATM   22  H6  UNL     1      23.474   4.923  47.437  1.00  0.00     0.161 HD
BRANCH  21  23
HETATM   23  C2  UNL     1      22.094   6.195  48.765  1.00  0.00     0.116 C 
HETATM   24  C1  UNL     1      22.754   7.315  49.553  1.00  0.00     0.026 C 
ENDBRANCH  21  23
ENDBRANCH   1  21
BRANCH   7  25
HETATM   25  C15 UNL     1      27.233   5.871  48.673  1.00  0.00    -0.063 C 
HETATM   26  C16 UNL     1      26.932   7.134  48.839  1.00  0.00     0.188 C 
HETATM   27  S1  UNL     1      28.510   7.974  48.520  1.00  0.00    -0.232 SA
HETATM   28  C17 UNL     1      29.210   6.593  47.519  1.00  0.00     0.060 C 
HETATM   29  C18 UNL     1      28.576   5.455  48.318  1.00  0.00     0.044 C 
ENDBRANCH   7  25
TORSDOF 6
ENDMDL
MODEL 5
REMARK VINA RESULT:      -7.5      3.306      6.207
REMARK  6 active torsions:
REMARK  status: ('A' for Active; 'I' for Inactive)
REMARK    1  A    between atoms: C2_2  and  N1_3 
REMARK    2  A    between atoms: N1_3  and  C3_4 
REMARK    3  A    between atoms: C4_6  and  N3_7 
REMARK    4  A    between atoms: C5_8  and  N4_9 
REMARK    5  A    between atoms: N4_9  and  C6_10 
REMARK    6  A    between atoms: C14_20  and  C15_21 
ROOT
HETATM    1  C3  UNL     1      21.450   2.160  52.525  1.00  0.00     0.131 A 
HETATM    2  N2  UNL     1      21.286   1.126  53.232  1.00  0.00    -0.231 NA
HETATM    3  C4  UNL     1      22.302   0.192  53.626  1.00  0.00     0.391 A 
HETATM    4  C5  UNL     1      23.655   0.496  53.129  1.00  0.00     0.065 A 
HETATM    5  C12 UNL     1      23.847   1.567  52.389  1.00  0.00     0.044 A 
HETATM    6  C13 UNL     1      22.797   2.489  52.018  1.00  0.00     0.011 A 
HETATM    7  C14 UNL     1      22.999   3.539  51.315  1.00  0.00     0.019 C 
ENDROOT
BRANCH   4   8
HETATM    8  N4  UNL     1      24.598  -0.476  53.555  1.00  0.00    -0.354 N 
HETATM    9  H10 UNL     1      24.074  -1.316  53.933  1.00  0.00     0.166 HD
BRANCH   8  10
HETATM   10  C6  UNL     1      26.016  -0.596  53.599  1.00  0.00     0.071 A 
HETATM   11  C7  UNL     1      26.629  -1.534  52.802  1.00  0.00     0.034 A 
HETATM   12  C8  UNL     1      28.018  -1.653  52.844  1.00  0.00     0.026 A 
HETATM   13  C9  UNL     1      28.759  -0.823  53.688  1.00  0.00     0.037 A 
HETATM   14 CL1  UNL     1      30.504  -0.970  53.742  1.00  0.00    -0.084 Cl
HETATM   15  C10 UNL     1      28.151   0.104  54.473  1.00  0.00     0.068 A 
HETATM   16  C11 UNL     1      26.766   0.221  54.431  1.00  0.00     0.144 A 
HETATM   17  F1  UNL     1      26.163   1.145  55.214  1.00  0.00    -0.204 F 
ENDBRANCH   8  10
ENDBRANCH   4   8
BRANCH   3  18
HETATM   18  N3  UNL     1      21.981  -1.155  53.186  1.00  0.00     0.109 N 
HETATM   19  H8  UNL     1      22.774  -1.514  52.576  1.00  0.00     0.316 HD
HETATM   20  H9  UNL     1      21.142  -1.107  52.572  1.00  0.00     0.316 HD
ENDBRANCH   3  18
BRANCH   1  21
HETATM   21  N1  UNL     1      20.323   2.995  52.217  1.00  0.00    -0.375 N 
HETATM   22  H6  UNL     1      20.478   3.998  52.544  1.00  0.00     0.161 HD
BRANCH  21  23
HETATM   23  C2  UNL     1      19.166   2.409  51.528  1.00  0.00     0.116 C 
HETATM   24  C1  UNL     1      19.513   2.206  50.061  1.00  0.00     0.026 C 
ENDBRANCH  21  23
ENDBRANCH   1  21
BRANCH   7  25
HETATM   25  C15 UNL     1      23.939   4.342  50.601  1.00  0.00    -0.063 C 
HETATM   26  C16 UNL     1      23.717   5.453  51.256  1.00  0.00     0.188 C 
HETATM   27  S1  UNL     1      24.856   6.626  50.463  1.00  0.00    -0.232 SA
HETATM   28  C17 UNL     1      24.983   5.666  48.895  1.00  0.00     0.060 C 
HETATM   29  C18 UNL     1      24.912   4.278  49.528  1.00  0.00     0.044 C 
ENDBRANCH   7  25
TORSDOF 6
ENDMDL
MODEL 6
REMARK VINA RESULT:      -7.4      4.286      7.669
REMARK  6 active torsions:
REMARK  status: ('A' for Active; 'I' for Inactive)
REMARK    1  A    between atoms: C2_2  and  N1_3 
REMARK    2  A    between atoms: N1_3  and  C3_4 
REMARK    3  A    between atoms: C4_6  and  N3_7 
REMARK    4  A    between atoms: C5_8  and  N4_9 
REMARK    5  A    between atoms: N4_9  and  C6_10 
REMARK    6  A    between atoms: C14_20  and  C15_21 
ROOT
HETATM    1  C3  UNL     1      26.370  -0.391  53.334  1.00  0.00     0.131 A 
HETATM    2  N2  UNL     1      25.938  -1.235  54.168  1.00  0.00    -0.231 NA
HETATM    3  C4  UNL     1      24.582  -1.369  54.622  1.00  0.00     0.391 A 
HETATM    4  C5  UNL     1      23.632  -0.404  54.045  1.00  0.00     0.065 A 
HETATM    5  C12 UNL     1      24.062   0.486  53.175  1.00  0.00     0.044 A 
HETATM    6  C13 UNL     1      25.437   0.586  52.737  1.00  0.00     0.011 A 
HETATM    7  C14 UNL     1      25.840   1.441  51.875  1.00  0.00     0.019 C 
ENDROOT
BRANCH   4   8
HETATM    8  N4  UNL     1      22.320  -0.598  54.549  1.00  0.00    -0.354 N 
HETATM    9  H10 UNL     1      22.369  -0.684  55.603  1.00  0.00     0.166 HD
BRANCH   8  10
HETATM   10  C6  UNL     1      21.006  -0.702  54.009  1.00  0.00     0.071 A 
HETATM   11  C7  UNL     1      20.307  -1.873  54.182  1.00  0.00     0.034 A 
HETATM   12  C8  UNL     1      19.020  -1.976  53.653  1.00  0.00     0.026 A 
HETATM   13  C9  UNL     1      18.466  -0.896  52.963  1.00  0.00     0.037 A 
HETATM   14 CL1  UNL     1      16.850  -1.023  52.299  1.00  0.00    -0.084 Cl
HETATM   15  C10 UNL     1      19.159   0.260  52.794  1.00  0.00     0.068 A 
HETATM   16  C11 UNL     1      20.442   0.362  53.321  1.00  0.00     0.144 A 
HETATM   17  F1  UNL     1      21.130   1.515  53.151  1.00  0.00    -0.204 F 
ENDBRANCH   8  10
ENDBRANCH   4   8
BRANCH   3  18
HETATM   18  N3  UNL     1      24.494  -1.239  56.067  1.00  0.00     0.109 N 
HETATM   19  H8  UNL     1      24.983  -0.342  56.360  1.00  0.00     0.316 HD
HETATM   20  H9  UNL     1      25.033  -2.017  56.499  1.00  0.00     0.316 HD
ENDBRANCH   3  18
BRANCH   1  21
HETATM   21  N1  UNL     1      27.762  -0.387  52.985  1.00  0.00    -0.375 N 
HETATM   22  H6  UNL     1      27.901  -0.407  51.927  1.00  0.00     0.161 HD
BRANCH  21  23
HETATM   23  C2  UNL     1      28.768  -0.353  54.055  1.00  0.00     0.116 C 
HETATM   24  C1  UNL     1      30.152  -0.268  53.431  1.00  0.00     0.026 C 
ENDBRANCH  21  23
ENDBRANCH   1  21
BRANCH   7  25
HETATM   25  C15 UNL     1      25.500   2.529  51.016  1.00  0.00    -0.063 C 
HETATM   26  C16 UNL     1      26.719   2.798  50.623  1.00  0.00     0.188 C 
HETATM   27  S1  UNL     1      26.481   4.199  49.492  1.00  0.00    -0.232 SA
HETATM   28  C17 UNL     1      24.865   4.703  50.222  1.00  0.00     0.060 C 
HETATM   29  C18 UNL     1      24.365   3.294  50.537  1.00  0.00     0.044 C 
ENDBRANCH   7  25
TORSDOF 6
ENDMDL
MODEL 7
REMARK VINA RESULT:      -7.2      4.419      7.249
REMARK  6 active torsions:
REMARK  status: ('A' for Active; 'I' for Inactive)
REMARK    1  A    between atoms: C2_2  and  N1_3 
REMARK    2  A    between atoms: N1_3  and  C3_4 
REMARK    3  A    between atoms: C4_6  and  N3_7 
REMARK    4  A    between atoms: C5_8  and  N4_9 
REMARK    5  A    between atoms: N4_9  and  C6_10 
REMARK    6  A    between atoms: C14_20  and  C15_21 
ROOT
HETATM    1  C3  UNL     1      24.951  -0.085  53.256  1.00  0.00     0.131 A 
HETATM    2  N2  UNL     1      24.195  -0.883  53.879  1.00  0.00    -0.231 NA
HETATM    3  C4  UNL     1      22.759  -0.875  53.875  1.00  0.00     0.391 A 
HETATM    4  C5  UNL     1      22.143   0.187  53.063  1.00  0.00     0.065 A 
HETATM    5  C12 UNL     1      22.913   1.030  52.408  1.00  0.00     0.044 A 
HETATM    6  C13 UNL     1      24.358   0.986  52.432  1.00  0.00     0.011 A 
HETATM    7  C14 UNL     1      25.097   1.798  51.774  1.00  0.00     0.019 C 
ENDROOT
BRANCH   4   8
HETATM    8  N4  UNL     1      20.726   0.130  53.118  1.00  0.00    -0.354 N 
HETATM    9  H10 UNL     1      20.426   0.079  54.132  1.00  0.00     0.166 HD
BRANCH   8  10
HETATM   10  C6  UNL     1      19.651   0.125  52.184  1.00  0.00     0.071 A 
HETATM   11  C7  UNL     1      19.799   0.800  50.995  1.00  0.00     0.034 A 
HETATM   12  C8  UNL     1      18.747   0.795  50.079  1.00  0.00     0.026 A 
HETATM   13  C9  UNL     1      17.569   0.110  50.382  1.00  0.00     0.037 A 
HETATM   14 CL1  UNL     1      16.245   0.102  49.233  1.00  0.00    -0.084 Cl
HETATM   15  C10 UNL     1      17.425  -0.557  51.556  1.00  0.00     0.068 A 
HETATM   16  C11 UNL     1      18.474  -0.551  52.469  1.00  0.00     0.144 A 
HETATM   17  F1  UNL     1      18.328  -1.216  53.639  1.00  0.00    -0.204 F 
ENDBRANCH   8  10
ENDBRANCH   4   8
BRANCH   3  18
HETATM   18  N3  UNL     1      22.228  -0.743  55.221  1.00  0.00     0.109 N 
HETATM   19  H8  UNL     1      21.186  -0.952  55.200  1.00  0.00     0.316 HD
HETATM   20  H9  UNL     1      22.318   0.252  55.512  1.00  0.00     0.316 HD
ENDBRANCH   3  18
BRANCH   1  21
HETATM   21  N1  UNL     1      26.375  -0.226  53.366  1.00  0.00    -0.375 N 
HETATM   22  H6  UNL     1      26.805  -0.585  52.458  1.00  0.00     0.161 HD
BRANCH  21  23
HETATM   23  C2  UNL     1      27.033   0.120  54.633  1.00  0.00     0.116 C 
HETATM   24  C1  UNL     1      28.529   0.252  54.395  1.00  0.00     0.026 C 
ENDBRANCH  21  23
ENDBRANCH   1  21
BRANCH   7  25
HETATM   25  C15 UNL     1      25.158   2.919  50.893  1.00  0.00    -0.063 C 
HETATM   26  C16 UNL     1      26.419   2.789  50.569  1.00  0.00     0.188 C 
HETATM   27  S1  UNL     1      26.688   4.171  49.420  1.00  0.00    -0.232 SA
HETATM   28  C17 UNL     1      25.272   5.165  50.056  1.00  0.00     0.060 C 
HETATM   29  C18 UNL     1      24.343   3.988  50.348  1.00  0.00     0.044 C 
ENDBRANCH   7  25
TORSDOF 6
ENDMDL
MODEL 8
REMARK VINA RESULT:      -7.2      3.281      4.857
REMARK  6 active torsions:
REMARK  status: ('A' for Active; 'I' for Inactive)
REMARK    1  A    between atoms: C2_2  and  N1_3 
REMARK    2  A    between atoms: N1_3  and  C3_4 
REMARK    3  A    between atoms: C4_6  and  N3_7 
REMARK    4  A    between atoms: C5_8  and  N4_9 
REMARK    5  A    between atoms: N4_9  and  C6_10 
REMARK    6  A    between atoms: C14_20  and  C15_21 
ROOT
HETATM    1  C3  UNL     1      26.154   1.116  51.818  1.00  0.00     0.131 A 
HETATM    2  N2  UNL     1      26.878   1.964  51.223  1.00  0.00    -0.231 NA
HETATM    3  C4  UNL     1      26.464   3.251  50.741  1.00  0.00     0.391 A 
HETATM    4  C5  UNL     1      25.046   3.577  50.971  1.00  0.00     0.065 A 
HETATM    5  C12 UNL     1      24.274   2.706  51.587  1.00  0.00     0.044 A 
HETATM    6  C13 UNL     1      24.731   1.420  52.064  1.00  0.00     0.011 A 
HETATM    7  C14 UNL     1      23.977   0.591  52.681  1.00  0.00     0.019 C 
ENDROOT
BRANCH   4   8
HETATM    8  N4  UNL     1      24.715   4.859  50.460  1.00  0.00    -0.354 N 
HETATM    9  H10 UNL     1      25.611   5.393  50.274  1.00  0.00     0.166 HD
BRANCH   8  10
HETATM   10  C6  UNL     1      23.525   5.576  50.150  1.00  0.00     0.071 A 
HETATM   11  C7  UNL     1      23.106   6.570  51.002  1.00  0.00     0.034 A 
HETATM   12  C8  UNL     1      21.940   7.273  50.699  1.00  0.00     0.026 A 
HETATM   13  C9  UNL     1      21.223   6.960  49.543  1.00  0.00     0.037 A 
HETATM   14 CL1  UNL     1      19.758   7.842  49.159  1.00  0.00    -0.084 Cl
HETATM   15  C10 UNL     1      21.640   5.979  48.702  1.00  0.00     0.068 A 
HETATM   16  C11 UNL     1      22.802   5.277  49.005  1.00  0.00     0.144 A 
HETATM   17  F1  UNL     1      23.215   4.300  48.165  1.00  0.00    -0.204 F 
ENDBRANCH   8  10
ENDBRANCH   4   8
BRANCH   3  18
HETATM   18  N3  UNL     1      26.704   3.383  49.314  1.00  0.00     0.109 N 
HETATM   19  H8  UNL     1      26.497   2.452  48.846  1.00  0.00     0.316 HD
HETATM   20  H9  UNL     1      27.718   3.562  49.168  1.00  0.00     0.316 HD
ENDBRANCH   3  18
BRANCH   1  21
HETATM   21  N1  UNL     1      26.724  -0.133  52.237  1.00  0.00    -0.375 N 
HETATM   22  H6  UNL     1      26.263  -0.959  51.744  1.00  0.00     0.161 HD
BRANCH  21  23
HETATM   23  C2  UNL     1      27.808  -0.128  53.229  1.00  0.00     0.116 C 
HETATM   24  C1  UNL     1      27.234   0.243  54.587  1.00  0.00     0.026 C 
ENDBRANCH  21  23
ENDBRANCH   1  21
BRANCH   7  25
HETATM   25  C15 UNL     1      22.673   0.301  53.184  1.00  0.00    -0.063 C 
HETATM   26  C16 UNL     1      22.969  -0.860  53.711  1.00  0.00     0.188 C 
HETATM   27  S1  UNL     1      21.385  -1.400  54.419  1.00  0.00    -0.232 SA
HETATM   28  C17 UNL     1      20.363  -0.334  53.317  1.00  0.00     0.060 C 
HETATM   29  C18 UNL     1      21.332   0.845  53.260  1.00  0.00     0.044 C 
ENDBRANCH   7  25
TORSDOF 6
ENDMDL
MODEL 9
REMARK VINA RESULT:      -7.2      3.577      6.469
REMARK  6 active torsions:
REMARK  status: ('A' for Active; 'I' for Inactive)
REMARK    1  A    between atoms: C2_2  and  N1_3 
REMARK    2  A    between atoms: N1_3  and  C3_4 
REMARK    3  A    between atoms: C4_6  and  N3_7 
REMARK    4  A    between atoms: C5_8  and  N4_9 
REMARK    5  A    between atoms: N4_9  and  C6_10 
REMARK    6  A    between atoms: C14_20  and  C15_21 
ROOT
HETATM    1  C3  UNL     1      25.988   4.178  49.627  1.00  0.00     0.131 A 
HETATM    2  N2  UNL     1      25.071   4.879  49.113  1.00  0.00    -0.231 NA
HETATM    3  C4  UNL     1      23.661   4.739  49.341  1.00  0.00     0.391 A 
HETATM    4  C5  UNL     1      23.282   3.654  50.261  1.00  0.00     0.065 A 
HETATM    5  C12 UNL     1      24.222   2.910  50.806  1.00  0.00     0.044 A 
HETATM    6  C13 UNL     1      25.635   3.087  50.556  1.00  0.00     0.011 A 
HETATM    7  C14 UNL     1      26.541   2.371  51.108  1.00  0.00     0.019 C 
ENDROOT
BRANCH   4   8
HETATM    8  N4  UNL     1      21.875   3.577  50.426  1.00  0.00    -0.354 N 
HETATM    9  H10 UNL     1      21.457   4.533  50.245  1.00  0.00     0.166 HD
BRANCH   8  10
HETATM   10  C6  UNL     1      20.924   2.572  50.763  1.00  0.00     0.071 A 
HETATM   11  C7  UNL     1      20.607   2.373  52.086  1.00  0.00     0.034 A 
HETATM   12  C8  UNL     1      19.675   1.389  52.417  1.00  0.00     0.026 A 
HETATM   13  C9  UNL     1      19.082   0.628  51.407  1.00  0.00     0.037 A 
HETATM   14 CL1  UNL     1      17.911  -0.608  51.821  1.00  0.00    -0.084 Cl
HETATM   15  C10 UNL     1      19.396   0.828  50.101  1.00  0.00     0.068 A 
HETATM   16  C11 UNL     1      20.326   1.809  49.772  1.00  0.00     0.144 A 
HETATM   17  F1  UNL     1      20.636   2.005  48.470  1.00  0.00    -0.204 F 
ENDBRANCH   8  10
ENDBRANCH   4   8
BRANCH   3  18
HETATM   18  N3  UNL     1      22.946   4.509  48.096  1.00  0.00     0.109 N 
HETATM   19  H8  UNL     1      21.966   4.912  48.186  1.00  0.00     0.316 HD
HETATM   20  H9  UNL     1      22.827   3.483  47.972  1.00  0.00     0.316 HD
ENDBRANCH   3  18
BRANCH   1  21
HETATM   21  N1  UNL     1      27.358   4.447  49.293  1.00  0.00    -0.375 N 
HETATM   22  H6  UNL     1      28.016   3.732  49.735  1.00  0.00     0.161 HD
BRANCH  21  23
HETATM   23  C2  UNL     1      27.673   5.596  48.435  1.00  0.00     0.116 C 
HETATM   24  C1  UNL     1      29.177   5.653  48.215  1.00  0.00     0.026 C 
ENDBRANCH  21  23
ENDBRANCH   1  21
BRANCH   7  25
HETATM   25  C15 UNL     1      26.845   1.293  51.992  1.00  0.00    -0.063 C 
HETATM   26  C16 UNL     1      27.550   1.990  52.846  1.00  0.00     0.188 C 
HETATM   27  S1  UNL     1      28.038   0.750  54.079  1.00  0.00    -0.232 SA
HETATM   28  C17 UNL     1      27.829  -0.681  52.937  1.00  0.00     0.060 C 
HETATM   29  C18 UNL     1      26.625  -0.128  52.177  1.00  0.00     0.044 C 
ENDBRANCH   7  25
TORSDOF 6
ENDMDL
