MODEL 1
REMARK VINA RESULT:      -7.6      0.000      0.000
REMARK  8 active torsions:
REMARK  status: ('A' for Active; 'I' for Inactive)
REMARK    1  A    between atoms: C2_2  and  C3_3 
REMARK    2  A    between atoms: C2_2  and  C4_5 
REMARK    3  A    between atoms: C3_3  and  N1_4 
REMARK    4  A    between atoms: C5_6  and  N2_7 
REMARK    5  A    between atoms: N2_7  and  C6_8 
REMARK    6  A    between atoms: C9_11  and  O1_12 
REMARK    7  A    between atoms: O1_12  and  C10_13 
REMARK    8  A    between atoms: C10_13  and  C11_14 
ROOT
HETATM    1  C6  UNL     1      25.800   1.067  52.490  1.00  0.00     0.033 A 
HETATM    2  C7  UNL     1      26.662   1.468  51.507  1.00  0.00     0.032 A 
HETATM    3  C8  UNL     1      26.494   2.670  50.817  1.00  0.00     0.041 A 
HETATM    4  C9  UNL     1      25.432   3.498  51.118  1.00  0.00     0.091 A 
HETATM    5  C17 UNL     1      24.559   3.107  52.103  1.00  0.00     0.069 A 
HETATM    6 CL1  UNL     1      23.179   4.080  52.566  1.00  0.00    -0.081 Cl
HETATM    7  C18 UNL     1      24.727   1.915  52.786  1.00  0.00     0.056 A 
ENDROOT
BRANCH   1   8
HETATM    8  N2  UNL     1      25.969  -0.159  53.197  1.00  0.00    -0.366 N 
HETATM    9  H7  UNL     1      26.055  -1.027  52.645  1.00  0.00     0.165 HD
BRANCH   8  10
HETATM   10  C5  UNL     1      26.011  -0.133  54.621  1.00  0.00     0.089 C 
HETATM   11  C4  UNL     1      27.200  -0.058  55.191  1.00  0.00     0.034 C 
BRANCH  11  12
HETATM   12  C2  UNL     1      28.428  -0.006  54.371  1.00  0.00     0.003 C 
HETATM   13  C1  UNL     1      29.133  -1.023  53.512  1.00  0.00     0.059 C 
BRANCH  12  14
HETATM   14  C3  UNL     1      29.059   1.158  54.373  1.00  0.00    -0.018 C 
BRANCH  14  15
HETATM   15  N1  UNL     1      29.523   2.349  54.465  1.00  0.00    -0.258 NA
HETATM   16  H4  UNL     1      30.322   2.456  55.160  1.00  0.00     0.197 HD
ENDBRANCH  14  15
ENDBRANCH  12  14
ENDBRANCH  11  12
ENDBRANCH   8  10
ENDBRANCH   1   8
BRANCH   4  17
HETATM   17  O1  UNL     1      25.176   4.715  50.489  1.00  0.00    -0.345 OA
BRANCH  17  18
HETATM   18  C10 UNL     1      25.403   4.796  49.115  1.00  0.00     0.214 C 
BRANCH  18  19
HETATM   19  C11 UNL     1      26.626   5.544  48.743  1.00  0.00    -0.031 A 
HETATM   20  C12 UNL     1      26.519   6.923  48.621  1.00  0.00     0.009 A 
HETATM   21  C13 UNL     1      27.602   7.683  48.282  1.00  0.00     0.004 A 
HETATM   22  C14 UNL     1      28.831   7.062  48.056  1.00  0.00     0.042 A 
HETATM   23  C15 UNL     1      28.960   5.685  48.175  1.00  0.00     0.117 A 
HETATM   24  F1  UNL     1      30.147   5.074  47.958  1.00  0.00    -0.206 F 
HETATM   25  C16 UNL     1      27.842   4.923  48.521  1.00  0.00     0.051 A 
ENDBRANCH  18  19
ENDBRANCH  17  18
ENDBRANCH   4  17
TORSDOF 8
ENDMDL
MODEL 2
REMARK VINA RESULT:      -7.5      5.540      8.294
REMARK  8 active torsions:
REMARK  status: ('A' for Active; 'I' for Inactive)
REMARK    1  A    between atoms: C2_2  and  C3_3 
REMARK    2  A    between atoms: C2_2  and  C4_5 
REMARK    3  A    between atoms: C3_3  and  N1_4 
REMARK    4  A    between atoms: C5_6  and  N2_7 
REMARK    5  A    between atoms: N2_7  and  C6_8 
REMARK    6  A    between atoms: C9_11  and  O1_12 
REMARK    7  A    between atoms: O1_12  and  C10_13 
REMARK    8  A    between atoms: C10_13  and  C11_14 
ROOT
HETATM    1  C6  UNL     1      20.799   0.559  52.909  1.00  0.00     0.033 A 
HETATM    2  C7  UNL     1      21.251  -0.644  53.378  1.00  0.00     0.032 A 
HETATM    3  C8  UNL     1      22.596  -0.861  53.688  1.00  0.00     0.041 A 
HETATM    4  C9  UNL     1      23.516   0.154  53.526  1.00  0.00     0.091 A 
HETATM    5  C17 UNL     1      23.074   1.367  53.056  1.00  0.00     0.069 A 
HETATM    6 CL1  UNL     1      24.154   2.723  52.813  1.00  0.00    -0.081 Cl
HETATM    7  C18 UNL     1      21.741   1.580  52.750  1.00  0.00     0.056 A 
ENDROOT
BRANCH   1   8
HETATM    8  N2  UNL     1      19.427   0.784  52.592  1.00  0.00    -0.366 N 
HETATM    9  H7  UNL     1      18.829   1.214  53.314  1.00  0.00     0.165 HD
BRANCH   8  10
HETATM   10  C5  UNL     1      18.950   0.408  51.303  1.00  0.00     0.089 C 
HETATM   11  C4  UNL     1      17.980  -0.488  51.253  1.00  0.00     0.034 C 
BRANCH  11  12
HETATM   12  C2  UNL     1      17.425  -1.070  52.493  1.00  0.00     0.003 C 
HETATM   13  C1  UNL     1      17.925  -2.124  53.445  1.00  0.00     0.059 C 
BRANCH  12  14
HETATM   14  C3  UNL     1      16.252  -0.584  52.868  1.00  0.00    -0.018 C 
BRANCH  14  15
HETATM   15  N1  UNL     1      15.193   0.051  53.210  1.00  0.00    -0.258 NA
HETATM   16  H4  UNL     1      14.339  -0.567  53.358  1.00  0.00     0.197 HD
ENDBRANCH  14  15
ENDBRANCH  12  14
ENDBRANCH  11  12
ENDBRANCH   8  10
ENDBRANCH   1   8
BRANCH   4  17
HETATM   17  O1  UNL     1      24.877   0.039  53.805  1.00  0.00    -0.345 OA
BRANCH  17  18
HETATM   18  C10 UNL     1      25.674  -0.639  52.882  1.00  0.00     0.214 C 
BRANCH  18  19
HETATM   19  C11 UNL     1      27.121  -0.616  53.197  1.00  0.00    -0.031 A 
HETATM   20  C12 UNL     1      27.846  -1.774  52.952  1.00  0.00     0.009 A 
HETATM   21  C13 UNL     1      29.186  -1.832  53.215  1.00  0.00     0.004 A 
HETATM   22  C14 UNL     1      29.830  -0.710  53.736  1.00  0.00     0.042 A 
HETATM   23  C15 UNL     1      29.124   0.459  53.987  1.00  0.00     0.117 A 
HETATM   24  F1  UNL     1      29.740   1.552  54.491  1.00  0.00    -0.206 F 
HETATM   25  C16 UNL     1      27.755   0.500  53.713  1.00  0.00     0.051 A 
ENDBRANCH  18  19
ENDBRANCH  17  18
ENDBRANCH   4  17
TORSDOF 8
ENDMDL
MODEL 3
REMARK VINA RESULT:      -7.4      3.355      7.363
REMARK  8 active torsions:
REMARK  status: ('A' for Active; 'I' for Inactive)
REMARK    1  A    between atoms: C2_2  and  C3_3 
REMARK    2  A    between atoms: C2_2  and  C4_5 
REMARK    3  A    between atoms: C3_3  and  N1_4 
REMARK    4  A    between atoms: C5_6  and  N2_7 
REMARK    5  A    between atoms: N2_7  and  C6_8 
REMARK    6  A    between atoms: C9_11  and  O1_12 
REMARK    7  A    between atoms: O1_12  and  C10_13 
REMARK    8  A    between atoms: C10_13  and  C11_14 
ROOT
HETATM    1  C6  UNL     1      25.891   4.804  49.707  1.00  0.00     0.033 A 
HETATM    2  C7  UNL     1      26.719   3.720  49.612  1.00  0.00     0.032 A 
HETATM    3  C8  UNL     1      26.508   2.557  50.357  1.00  0.00     0.041 A 
HETATM    4  C9  UNL     1      25.438   2.475  51.223  1.00  0.00     0.091 A 
HETATM    5  C17 UNL     1      24.599   3.558  51.328  1.00  0.00     0.069 A 
HETATM    6 CL1  UNL     1      23.211   3.562  52.395  1.00  0.00    -0.081 Cl
HETATM    7  C18 UNL     1      24.809   4.708  50.589  1.00  0.00     0.056 A 
ENDROOT
BRANCH   1   8
HETATM    8  N2  UNL     1      26.103   5.992  48.948  1.00  0.00    -0.366 N 
HETATM    9  H7  UNL     1      25.306   6.637  48.827  1.00  0.00     0.165 HD
BRANCH   8  10
HETATM   10  C5  UNL     1      27.394   6.234  48.396  1.00  0.00     0.089 C 
HETATM   11  C4  UNL     1      27.790   7.492  48.307  1.00  0.00     0.034 C 
BRANCH  11  12
HETATM   12  C2  UNL     1      26.916   8.592  48.765  1.00  0.00     0.003 C 
HETATM   13  C1  UNL     1      25.764   9.322  48.126  1.00  0.00     0.059 C 
BRANCH  12  14
HETATM   14  C3  UNL     1      27.175   9.049  49.981  1.00  0.00    -0.018 C 
BRANCH  14  15
HETATM   15  N1  UNL     1      27.602   9.474  51.112  1.00  0.00    -0.258 NA
HETATM   16  H4  UNL     1      27.741   8.713  51.842  1.00  0.00     0.197 HD
ENDBRANCH  14  15
ENDBRANCH  12  14
ENDBRANCH  11  12
ENDBRANCH   8  10
ENDBRANCH   1   8
BRANCH   4  17
HETATM   17  O1  UNL     1      25.142   1.364  52.010  1.00  0.00    -0.345 OA
BRANCH  17  18
HETATM   18  C10 UNL     1      25.746   1.276  53.264  1.00  0.00     0.214 C 
BRANCH  18  19
HETATM   19  C11 UNL     1      26.977   0.453  53.290  1.00  0.00    -0.031 A 
HETATM   20  C12 UNL     1      28.167   1.094  53.610  1.00  0.00     0.009 A 
HETATM   21  C13 UNL     1      29.345   0.403  53.655  1.00  0.00     0.004 A 
HETATM   22  C14 UNL     1      29.349  -0.964  53.376  1.00  0.00     0.042 A 
HETATM   23  C15 UNL     1      28.170  -1.623  53.055  1.00  0.00     0.117 A 
HETATM   24  F1  UNL     1      28.164  -2.948  52.782  1.00  0.00    -0.206 F 
HETATM   25  C16 UNL     1      26.975  -0.902  53.012  1.00  0.00     0.051 A 
ENDBRANCH  18  19
ENDBRANCH  17  18
ENDBRANCH   4  17
TORSDOF 8
ENDMDL
MODEL 4
REMARK VINA RESULT:      -7.3      5.316      7.724
REMARK  8 active torsions:
REMARK  status: ('A' for Active; 'I' for Inactive)
REMARK    1  A    between atoms: C2_2  and  C3_3 
REMARK    2  A    between atoms: C2_2  and  C4_5 
REMARK    3  A    between atoms: C3_3  and  N1_4 
REMARK    4  A    between atoms: C5_6  and  N2_7 
REMARK    5  A    between atoms: N2_7  and  C6_8 
REMARK    6  A    between atoms: C9_11  and  O1_12 
REMARK    7  A    between atoms: O1_12  and  C10_13 
REMARK    8  A    between atoms: C10_13  and  C11_14 
ROOT
HETATM    1  C6  UNL     1      25.111   0.031  53.063  1.00  0.00     0.033 A 
HETATM    2  C7  UNL     1      23.996  -0.573  53.575  1.00  0.00     0.032 A 
HETATM    3  C8  UNL     1      22.710  -0.258  53.128  1.00  0.00     0.041 A 
HETATM    4  C9  UNL     1      22.533   0.689  52.141  1.00  0.00     0.091 A 
HETATM    5  C17 UNL     1      23.646   1.303  51.620  1.00  0.00     0.069 A 
HETATM    6 CL1  UNL     1      23.537   2.519  50.364  1.00  0.00    -0.081 Cl
HETATM    7  C18 UNL     1      24.918   0.990  52.062  1.00  0.00     0.056 A 
ENDROOT
BRANCH   1   8
HETATM    8  N2  UNL     1      26.424  -0.288  53.515  1.00  0.00    -0.366 N 
HETATM    9  H7  UNL     1      27.094  -0.665  52.827  1.00  0.00     0.165 HD
BRANCH   8  10
HETATM   10  C5  UNL     1      26.750  -0.074  54.886  1.00  0.00     0.089 C 
HETATM   11  C4  UNL     1      27.991   0.284  55.166  1.00  0.00     0.034 C 
BRANCH  11  12
HETATM   12  C2  UNL     1      28.989   0.451  54.089  1.00  0.00     0.003 C 
HETATM   13  C1  UNL     1      29.981  -0.487  53.454  1.00  0.00     0.059 C 
BRANCH  12  14
HETATM   14  C3  UNL     1      29.045   1.662  53.555  1.00  0.00    -0.018 C 
BRANCH  14  15
HETATM   15  N1  UNL     1      28.952   2.870  53.140  1.00  0.00    -0.258 NA
HETATM   16  H4  UNL     1      29.858   3.273  52.753  1.00  0.00     0.197 HD
ENDBRANCH  14  15
ENDBRANCH  12  14
ENDBRANCH  11  12
ENDBRANCH   8  10
ENDBRANCH   1   8
BRANCH   4  17
HETATM   17  O1  UNL     1      21.296   1.075  51.629  1.00  0.00    -0.345 OA
BRANCH  17  18
HETATM   18  C10 UNL     1      20.259   1.301  52.536  1.00  0.00     0.214 C 
BRANCH  18  19
HETATM   19  C11 UNL     1      19.174   0.295  52.483  1.00  0.00    -0.031 A 
HETATM   20  C12 UNL     1      18.236   0.420  51.466  1.00  0.00     0.009 A 
HETATM   21  C13 UNL     1      17.206  -0.469  51.349  1.00  0.00     0.004 A 
HETATM   22  C14 UNL     1      17.097  -1.515  52.265  1.00  0.00     0.042 A 
HETATM   23  C15 UNL     1      18.025  -1.660  53.288  1.00  0.00     0.117 A 
HETATM   24  F1  UNL     1      17.928  -2.671  54.181  1.00  0.00    -0.206 F 
HETATM   25  C16 UNL     1      19.072  -0.741  53.393  1.00  0.00     0.051 A 
ENDBRANCH  18  19
ENDBRANCH  17  18
ENDBRANCH   4  17
TORSDOF 8
ENDMDL
MODEL 5
REMARK VINA RESULT:      -7.3      3.393      7.535
REMARK  8 active torsions:
REMARK  status: ('A' for Active; 'I' for Inactive)
REMARK    1  A    between atoms: C2_2  and  C3_3 
REMARK    2  A    between atoms: C2_2  and  C4_5 
REMARK    3  A    between atoms: C3_3  and  N1_4 
REMARK    4  A    between atoms: C5_6  and  N2_7 
REMARK    5  A    between atoms: N2_7  and  C6_8 
REMARK    6  A    between atoms: C9_11  and  O1_12 
REMARK    7  A    between atoms: O1_12  and  C10_13 
REMARK    8  A    between atoms: C10_13  and  C11_14 
ROOT
HETATM    1  C6  UNL     1      26.981   5.869  48.673  1.00  0.00     0.033 A 
HETATM    2  C7  UNL     1      27.237   4.538  48.858  1.00  0.00     0.032 A 
HETATM    3  C8  UNL     1      26.477   3.750  49.726  1.00  0.00     0.041 A 
HETATM    4  C9  UNL     1      25.430   4.308  50.430  1.00  0.00     0.091 A 
HETATM    5  C17 UNL     1      25.163   5.644  50.252  1.00  0.00     0.069 A 
HETATM    6 CL1  UNL     1      23.858   6.453  51.094  1.00  0.00    -0.081 Cl
HETATM    7  C18 UNL     1      25.916   6.423  49.392  1.00  0.00     0.056 A 
ENDROOT
BRANCH   1   8
HETATM    8  N2  UNL     1      27.754   6.676  47.788  1.00  0.00    -0.366 N 
HETATM    9  H7  UNL     1      27.277   7.095  46.975  1.00  0.00     0.165 HD
BRANCH   8  10
HETATM   10  C5  UNL     1      29.139   6.866  48.064  1.00  0.00     0.089 C 
HETATM   11  C4  UNL     1      29.516   8.064  48.477  1.00  0.00     0.034 C 
BRANCH  11  12
HETATM   12  C2  UNL     1      28.529   9.152  48.638  1.00  0.00     0.003 C 
HETATM   13  C1  UNL     1      27.868  10.091  47.664  1.00  0.00     0.059 C 
BRANCH  12  14
HETATM   14  C3  UNL     1      28.125   9.367  49.881  1.00  0.00    -0.018 C 
BRANCH  14  15
HETATM   15  N1  UNL     1      27.574   9.505  51.030  1.00  0.00    -0.258 NA
HETATM   16  H4  UNL     1      26.733   8.875  51.192  1.00  0.00     0.197 HD
ENDBRANCH  14  15
ENDBRANCH  12  14
ENDBRANCH  11  12
ENDBRANCH   8  10
ENDBRANCH   1   8
BRANCH   4  17
HETATM   17  O1  UNL     1      24.614   3.610  51.318  1.00  0.00    -0.345 OA
BRANCH  17  18
HETATM   18  C10 UNL     1      24.243   2.309  50.975  1.00  0.00     0.214 C 
BRANCH  18  19
HETATM   19  C11 UNL     1      24.756   1.268  51.895  1.00  0.00    -0.031 A 
HETATM   20  C12 UNL     1      23.848   0.683  52.767  1.00  0.00     0.009 A 
HETATM   21  C13 UNL     1      24.243  -0.286  53.646  1.00  0.00     0.004 A 
HETATM   22  C14 UNL     1      25.578  -0.690  53.663  1.00  0.00     0.042 A 
HETATM   23  C15 UNL     1      26.502  -0.119  52.799  1.00  0.00     0.117 A 
HETATM   24  F1  UNL     1      27.799  -0.505  52.809  1.00  0.00    -0.206 F 
HETATM   25  C16 UNL     1      26.081   0.871  51.908  1.00  0.00     0.051 A 
ENDBRANCH  18  19
ENDBRANCH  17  18
ENDBRANCH   4  17
TORSDOF 8
ENDMDL
MODEL 6
REMARK VINA RESULT:      -7.2      3.614      4.661
REMARK  8 active torsions:
REMARK  status: ('A' for Active; 'I' for Inactive)
REMARK    1  A    between atoms: C2_2  and  C3_3 
REMARK    2  A    between atoms: C2_2  and  C4_5 
REMARK    3  A    between atoms: C3_3  and  N1_4 
REMARK    4  A    between atoms: C5_6  and  N2_7 
REMARK    5  A    between atoms: N2_7  and  C6_8 
REMARK    6  A    between atoms: C9_11  and  O1_12 
REMARK    7  A    between atoms: O1_12  and  C10_13 
REMARK    8  A    between atoms: C10_13  and  C11_14 
ROOT
HETATM    1  C6  UNL     1      25.832   1.219  52.685  1.00  0.00     0.033 A 
HETATM    2  C7  UNL     1      24.794   1.890  53.271  1.00  0.00     0.032 A 
HETATM    3  C8  UNL     1      24.234   3.035  52.700  1.00  0.00     0.041 A 
HETATM    4  C9  UNL     1      24.726   3.525  51.508  1.00  0.00     0.091 A 
HETATM    5  C17 UNL     1      25.769   2.860  50.910  1.00  0.00     0.069 A 
HETATM    6 CL1  UNL     1      26.471   3.394  49.397  1.00  0.00    -0.081 Cl
HETATM    7  C18 UNL     1      26.322   1.726  51.477  1.00  0.00     0.056 A 
ENDROOT
BRANCH   1   8
HETATM    8  N2  UNL     1      26.406   0.050  53.266  1.00  0.00    -0.366 N 
HETATM    9  H7  UNL     1      26.651  -0.730  52.637  1.00  0.00     0.165 HD
BRANCH   8  10
HETATM   10  C5  UNL     1      26.612   0.012  54.675  1.00  0.00     0.089 C 
HETATM   11  C4  UNL     1      27.859   0.082  55.107  1.00  0.00     0.034 C 
BRANCH  11  12
HETATM   12  C2  UNL     1      28.983   0.193  54.154  1.00  0.00     0.003 C 
HETATM   13  C1  UNL     1      29.914  -0.820  53.542  1.00  0.00     0.059 C 
BRANCH  12  14
HETATM   14  C3  UNL     1      29.248   1.421  53.736  1.00  0.00    -0.018 C 
BRANCH  14  15
HETATM   15  N1  UNL     1      29.345   2.655  53.405  1.00  0.00    -0.258 NA
HETATM   16  H4  UNL     1      29.872   2.827  52.497  1.00  0.00     0.197 HD
ENDBRANCH  14  15
ENDBRANCH  12  14
ENDBRANCH  11  12
ENDBRANCH   8  10
ENDBRANCH   1   8
BRANCH   4  17
HETATM   17  O1  UNL     1      24.240   4.658  50.858  1.00  0.00    -0.345 OA
BRANCH  17  18
HETATM   18  C10 UNL     1      22.885   4.685  50.526  1.00  0.00     0.214 C 
BRANCH  18  19
HETATM   19  C11 UNL     1      22.417   3.491  49.785  1.00  0.00    -0.031 A 
HETATM   20  C12 UNL     1      22.872   3.326  48.484  1.00  0.00     0.009 A 
HETATM   21  C13 UNL     1      22.487   2.250  47.736  1.00  0.00     0.004 A 
HETATM   22  C14 UNL     1      21.623   1.306  48.291  1.00  0.00     0.042 A 
HETATM   23  C15 UNL     1      21.156   1.450  49.591  1.00  0.00     0.117 A 
HETATM   24  F1  UNL     1      20.318   0.540  50.137  1.00  0.00    -0.206 F 
HETATM   25  C16 UNL     1      21.561   2.557  50.341  1.00  0.00     0.051 A 
ENDBRANCH  18  19
ENDBRANCH  17  18
ENDBRANCH   4  17
TORSDOF 8
ENDMDL
MODEL 7
REMARK VINA RESULT:      -7.1      3.621      7.667
REMARK  8 active torsions:
REMARK  status: ('A' for Active; 'I' for Inactive)
REMARK    1  A    between atoms: C2_2  and  C3_3 
REMARK    2  A    between atoms: C2_2  and  C4_5 
REMARK    3  A    between atoms: C3_3  and  N1_4 
REMARK    4  A    between atoms: C5_6  and  N2_7 
REMARK    5  A    between atoms: N2_7  and  C6_8 
REMARK    6  A    between atoms: C9_11  and  O1_12 
REMARK    7  A    between atoms: O1_12  and  C10_13 
REMARK    8  A    between atoms: C10_13  and  C11_14 
ROOT
HETATM    1  C6  UNL     1      25.504   5.866  48.656  1.00  0.00     0.033 A 
HETATM    2  C7  UNL     1      26.806   5.456  48.738  1.00  0.00     0.032 A 
HETATM    3  C8  UNL     1      27.169   4.261  49.364  1.00  0.00     0.041 A 
HETATM    4  C9  UNL     1      26.203   3.452  49.924  1.00  0.00     0.091 A 
HETATM    5  C17 UNL     1      24.892   3.853  49.848  1.00  0.00     0.069 A 
HETATM    6 CL1  UNL     1      23.585   2.904  50.525  1.00  0.00    -0.081 Cl
HETATM    7  C18 UNL     1      24.533   5.037  49.228  1.00  0.00     0.056 A 
ENDROOT
BRANCH   1   8
HETATM    8  N2  UNL     1      25.129   7.085  48.018  1.00  0.00    -0.366 N 
HETATM    9  H7  UNL     1      25.505   7.271  47.075  1.00  0.00     0.165 HD
BRANCH   8  10
HETATM   10  C5  UNL     1      24.261   7.982  48.704  1.00  0.00     0.089 C 
HETATM   11  C4  UNL     1      24.781   9.115  49.142  1.00  0.00     0.034 C 
BRANCH  11  12
HETATM   12  C2  UNL     1      26.210   9.423  48.922  1.00  0.00     0.003 C 
HETATM   13  C1  UNL     1      27.002   9.797  47.696  1.00  0.00     0.059 C 
BRANCH  12  14
HETATM   14  C3  UNL     1      26.972   9.367  50.003  1.00  0.00    -0.018 C 
BRANCH  14  15
HETATM   15  N1  UNL     1      27.619   9.461  51.105  1.00  0.00    -0.258 NA
HETATM   16  H4  UNL     1      27.005   9.581  51.965  1.00  0.00     0.197 HD
ENDBRANCH  14  15
ENDBRANCH  12  14
ENDBRANCH  11  12
ENDBRANCH   8  10
ENDBRANCH   1   8
BRANCH   4  17
HETATM   17  O1  UNL     1      26.461   2.244  50.570  1.00  0.00    -0.345 OA
BRANCH  17  18
HETATM   18  C10 UNL     1      26.703   2.281  51.944  1.00  0.00     0.214 C 
BRANCH  18  19
HETATM   19  C11 UNL     1      27.365   1.068  52.477  1.00  0.00    -0.031 A 
HETATM   20  C12 UNL     1      28.521   1.249  53.226  1.00  0.00     0.009 A 
HETATM   21  C13 UNL     1      29.189   0.181  53.754  1.00  0.00     0.004 A 
HETATM   22  C14 UNL     1      28.701  -1.108  53.534  1.00  0.00     0.042 A 
HETATM   23  C15 UNL     1      27.548  -1.311  52.789  1.00  0.00     0.117 A 
HETATM   24  F1  UNL     1      27.068  -2.556  52.571  1.00  0.00    -0.206 F 
HETATM   25  C16 UNL     1      26.877  -0.207  52.257  1.00  0.00     0.051 A 
ENDBRANCH  18  19
ENDBRANCH  17  18
ENDBRANCH   4  17
TORSDOF 8
ENDMDL
MODEL 8
REMARK VINA RESULT:      -7.1      5.913      8.102
REMARK  8 active torsions:
REMARK  status: ('A' for Active; 'I' for Inactive)
REMARK    1  A    between atoms: C2_2  and  C3_3 
REMARK    2  A    between atoms: C2_2  and  C4_5 
REMARK    3  A    between atoms: C3_3  and  N1_4 
REMARK    4  A    between atoms: C5_6  and  N2_7 
REMARK    5  A    between atoms: N2_7  and  C6_8 
REMARK    6  A    between atoms: C9_11  and  O1_12 
REMARK    7  A    between atoms: O1_12  and  C10_13 
REMARK    8  A    between atoms: C10_13  and  C11_14 
ROOT
HETATM    1  C6  UNL     1      24.283  -0.137  53.712  1.00  0.00     0.033 A 
HETATM    2  C7  UNL     1      24.001   1.010  53.022  1.00  0.00     0.032 A 
HETATM    3  C8  UNL     1      22.693   1.378  52.700  1.00  0.00     0.041 A 
HETATM    4  C9  UNL     1      21.635   0.578  53.077  1.00  0.00     0.091 A 
HETATM    5  C17 UNL     1      21.906  -0.577  53.770  1.00  0.00     0.069 A 
HETATM    6 CL1  UNL     1      20.640  -1.666  54.297  1.00  0.00    -0.081 Cl
HETATM    7  C18 UNL     1      23.202  -0.941  54.089  1.00  0.00     0.056 A 
ENDROOT
BRANCH   1   8
HETATM    8  N2  UNL     1      25.617  -0.517  54.042  1.00  0.00    -0.366 N 
HETATM    9  H7  UNL     1      25.974  -0.262  54.976  1.00  0.00     0.165 HD
BRANCH   8  10
HETATM   10  C5  UNL     1      26.389  -1.226  53.078  1.00  0.00     0.089 C 
HETATM   11  C4  UNL     1      27.572  -0.727  52.761  1.00  0.00     0.034 C 
BRANCH  11  12
HETATM   12  C2  UNL     1      28.058   0.518  53.392  1.00  0.00     0.003 C 
HETATM   13  C1  UNL     1      28.867   0.792  54.633  1.00  0.00     0.059 C 
BRANCH  12  14
HETATM   14  C3  UNL     1      27.731   1.635  52.761  1.00  0.00    -0.018 C 
BRANCH  14  15
HETATM   15  N1  UNL     1      27.593   2.736  52.119  1.00  0.00    -0.258 NA
HETATM   16  H4  UNL     1      27.888   3.601  52.664  1.00  0.00     0.197 HD
ENDBRANCH  14  15
ENDBRANCH  12  14
ENDBRANCH  11  12
ENDBRANCH   8  10
ENDBRANCH   1   8
BRANCH   4  17
HETATM   17  O1  UNL     1      20.297   0.856  52.804  1.00  0.00    -0.345 OA
BRANCH  17  18
HETATM   18  C10 UNL     1      19.874   0.773  51.477  1.00  0.00     0.214 C 
BRANCH  18  19
HETATM   19  C11 UNL     1      18.532   0.171  51.302  1.00  0.00    -0.031 A 
HETATM   20  C12 UNL     1      17.999  -0.524  52.380  1.00  0.00     0.009 A 
HETATM   21  C13 UNL     1      16.766  -1.107  52.297  1.00  0.00     0.004 A 
HETATM   22  C14 UNL     1      16.037  -1.001  51.113  1.00  0.00     0.042 A 
HETATM   23  C15 UNL     1      16.551  -0.310  50.024  1.00  0.00     0.117 A 
HETATM   24  F1  UNL     1      15.851  -0.203  48.872  1.00  0.00    -0.206 F 
HETATM   25  C16 UNL     1      17.813   0.279  50.126  1.00  0.00     0.051 A 
ENDBRANCH  18  19
ENDBRANCH  17  18
ENDBRANCH   4  17
TORSDOF 8
ENDMDL
MODEL 9
REMARK VINA RESULT:      -7.0      2.204      2.468
REMARK  8 active torsions:
REMARK  status: ('A' for Active; 'I' for Inactive)
REMARK    1  A    between atoms: C2_2  and  C3_3 
REMARK    2  A    between atoms: C2_2  and  C4_5 
REMARK    3  A    between atoms: C3_3  and  N1_4 
REMARK    4  A    between atoms: C5_6  and  N2_7 
REMARK    5  A    between atoms: N2_7  and  C6_8 
REMARK    6  A    between atoms: C9_11  and  O1_12 
REMARK    7  A    between atoms: O1_12  and  C10_13 
REMARK    8  A    between atoms: C10_13  and  C11_14 
ROOT
HETATM    1  C6  UNL     1      25.693   1.060  52.064  1.00  0.00     0.033 A 
HETATM    2  C7  UNL     1      24.359   1.339  52.185  1.00  0.00     0.032 A 
HETATM    3  C8  UNL     1      23.747   2.363  51.458  1.00  0.00     0.041 A 
HETATM    4  C9  UNL     1      24.489   3.131  50.585  1.00  0.00     0.091 A 
HETATM    5  C17 UNL     1      25.829   2.861  50.456  1.00  0.00     0.069 A 
HETATM    6 CL1  UNL     1      26.864   3.774  49.378  1.00  0.00    -0.081 Cl
HETATM    7  C18 UNL     1      26.434   1.847  51.176  1.00  0.00     0.056 A 
ENDROOT
BRANCH   1   8
HETATM    8  N2  UNL     1      26.322   0.016  52.804  1.00  0.00    -0.366 N 
HETATM    9  H7  UNL     1      26.780  -0.742  52.276  1.00  0.00     0.165 HD
BRANCH   8  10
HETATM   10  C5  UNL     1      26.289   0.067  54.228  1.00  0.00     0.089 C 
HETATM   11  C4  UNL     1      27.438   0.250  54.855  1.00  0.00     0.034 C 
BRANCH  11  12
HETATM   12  C2  UNL     1      28.697   0.393  54.095  1.00  0.00     0.003 C 
HETATM   13  C1  UNL     1      29.722  -0.598  53.609  1.00  0.00     0.059 C 
BRANCH  12  14
HETATM   14  C3  UNL     1      29.016   1.634  53.760  1.00  0.00    -0.018 C 
BRANCH  14  15
HETATM   15  N1  UNL     1      29.231   2.804  53.282  1.00  0.00    -0.258 NA
HETATM   16  H4  UNL     1      28.353   3.389  53.142  1.00  0.00     0.197 HD
ENDBRANCH  14  15
ENDBRANCH  12  14
ENDBRANCH  11  12
ENDBRANCH   8  10
ENDBRANCH   1   8
BRANCH   4  17
HETATM   17  O1  UNL     1      23.973   4.174  49.817  1.00  0.00    -0.345 OA
BRANCH  17  18
HETATM   18  C10 UNL     1      23.911   5.440  50.399  1.00  0.00     0.214 C 
BRANCH  18  19
HETATM   19  C11 UNL     1      24.744   6.462  49.723  1.00  0.00    -0.031 A 
HETATM   20  C12 UNL     1      25.507   7.298  50.527  1.00  0.00     0.009 A 
HETATM   21  C13 UNL     1      26.302   8.264  49.979  1.00  0.00     0.004 A 
HETATM   22  C14 UNL     1      26.344   8.411  48.592  1.00  0.00     0.042 A 
HETATM   23  C15 UNL     1      25.589   7.585  47.770  1.00  0.00     0.117 A 
HETATM   24  F1  UNL     1      25.624   7.720  46.425  1.00  0.00    -0.206 F 
HETATM   25  C16 UNL     1      24.782   6.602  48.348  1.00  0.00     0.051 A 
ENDBRANCH  18  19
ENDBRANCH  17  18
ENDBRANCH   4  17
TORSDOF 8
ENDMDL
