MODEL 1
REMARK VINA RESULT:      -7.0      0.000      0.000
REMARK  7 active torsions:
REMARK  status: ('A' for Active; 'I' for Inactive)
REMARK    1  A    between atoms: O1_2  and  C2_3 
REMARK    2  A    between atoms: C7_8  and  O2_9 
REMARK    3  A    between atoms: C11_16  and  N3_17 
REMARK    4  A    between atoms: N3_17  and  C12_18 
REMARK    5  A    between atoms: C12_18  and  C13_19 
REMARK    6  A    between atoms: C13_19  and  C14_20 
REMARK    7  A    between atoms: C14_20  and  S1_21 
ROOT
HETATM    1  C2  UNL     1      26.117   1.409  53.824  1.00  0.00     0.102 A 
HETATM    2  C3  UNL     1      25.480   2.618  53.555  1.00  0.00     0.051 A 
HETATM    3  C4  UNL     1      24.176   2.718  53.070  1.00  0.00     0.007 A 
HETATM    4  C5  UNL     1      23.504   1.541  52.854  1.00  0.00     0.087 A 
HETATM    5  C6  UNL     1      24.149   0.356  53.125  1.00  0.00     0.077 A 
HETATM    6  C7  UNL     1      25.446   0.223  53.609  1.00  0.00     0.104 A 
HETATM    7  O3  UNL     1      22.208   1.461  52.376  1.00  0.00    -0.303 OA
HETATM    8  C9  UNL     1      21.796   0.314  51.683  1.00  0.00     0.260 C 
HETATM    9  N1  UNL     1      22.124   0.822  50.520  1.00  0.00    -0.230 NA
HETATM   10  C10 UNL     1      22.679   2.154  50.541  1.00  0.00     0.233 C 
HETATM   11  N2  UNL     1      23.798   2.838  50.426  1.00  0.00    -0.220 NA
HETATM   12  C11 UNL     1      23.732   4.270  50.551  1.00  0.00     0.577 C 
HETATM   13  N4  UNL     1      24.368   4.768  51.732  1.00  0.00     0.142 N 
HETATM   14  C15 UNL     1      23.842   4.146  52.915  1.00  0.00     0.316 C 
HETATM   15  H17 UNL     1      25.393   4.636  51.714  1.00  0.00     0.321 HD
ENDROOT
BRANCH  12  16
HETATM   16  N3  UNL     1      24.327   4.849  49.336  1.00  0.00     0.139 N 
HETATM   17  H12 UNL     1      23.815   5.711  49.084  1.00  0.00     0.321 HD
BRANCH  16  18
HETATM   18  C12 UNL     1      25.677   5.265  49.686  1.00  0.00     0.293 C 
BRANCH  18  19
HETATM   19  C13 UNL     1      26.715   4.382  49.099  1.00  0.00     0.109 C 
BRANCH  19  20
HETATM   20  C14 UNL     1      27.750   5.055  48.618  1.00  0.00    -0.107 C 
BRANCH  20  21
HETATM   21  S1  UNL     1      29.119   5.836  48.191  1.00  0.00    -0.092 SA
HETATM   22 BR1  UNL     1      28.876   7.642  46.910  1.00  0.00    -0.013 Br
HETATM   23  H16 UNL     1      30.241   5.031  48.359  1.00  0.00     0.116 HD
ENDBRANCH  20  21
ENDBRANCH  19  20
ENDBRANCH  18  19
ENDBRANCH  16  18
ENDBRANCH  12  16
BRANCH   1  24
HETATM   24  O1  UNL     1      27.414   1.281  54.308  1.00  0.00    -0.353 OA
HETATM   25  C1  UNL     1      28.428   2.061  53.697  1.00  0.00     0.210 C 
ENDBRANCH   1  24
BRANCH   6  26
HETATM   26  O2  UNL     1      26.041  -0.999  53.862  1.00  0.00    -0.353 OA
HETATM   27  C8  UNL     1      26.743  -1.662  52.852  1.00  0.00     0.210 C 
ENDBRANCH   6  26
TORSDOF 7
ENDMDL
MODEL 2
REMARK VINA RESULT:      -6.8      1.255      1.420
REMARK  7 active torsions:
REMARK  status: ('A' for Active; 'I' for Inactive)
REMARK    1  A    between atoms: O1_2  and  C2_3 
REMARK    2  A    between atoms: C7_8  and  O2_9 
REMARK    3  A    between atoms: C11_16  and  N3_17 
REMARK    4  A    between atoms: N3_17  and  C12_18 
REMARK    5  A    between atoms: C12_18  and  C13_19 
REMARK    6  A    between atoms: C13_19  and  C14_20 
REMARK    7  A    between atoms: C14_20  and  S1_21 
ROOT
HETATM    1  C2  UNL     1      26.869   0.904  53.229  1.00  0.00     0.102 A 
HETATM    2  C3  UNL     1      26.129   2.083  53.172  1.00  0.00     0.051 A 
HETATM    3  C4  UNL     1      24.735   2.128  53.207  1.00  0.00     0.007 A 
HETATM    4  C5  UNL     1      24.079   0.926  53.305  1.00  0.00     0.087 A 
HETATM    5  C6  UNL     1      24.826  -0.228  53.359  1.00  0.00     0.077 A 
HETATM    6  C7  UNL     1      26.213  -0.307  53.327  1.00  0.00     0.104 A 
HETATM    7  O3  UNL     1      22.702   0.793  53.351  1.00  0.00    -0.303 OA
HETATM    8  C9  UNL     1      22.108  -0.397  52.907  1.00  0.00     0.260 C 
HETATM    9  N1  UNL     1      21.957   0.059  51.687  1.00  0.00    -0.230 NA
HETATM   10  C10 UNL     1      22.427   1.402  51.447  1.00  0.00     0.233 C 
HETATM   11  N2  UNL     1      23.393   2.104  50.895  1.00  0.00    -0.220 NA
HETATM   12  C11 UNL     1      23.320   3.540  50.980  1.00  0.00     0.577 C 
HETATM   13  N4  UNL     1      24.331   4.111  51.817  1.00  0.00     0.142 N 
HETATM   14  C15 UNL     1      24.310   3.539  53.133  1.00  0.00     0.316 C 
HETATM   15  H17 UNL     1      25.280   4.002  51.421  1.00  0.00     0.321 HD
ENDROOT
BRANCH  12  16
HETATM   16  N3  UNL     1      23.395   4.070  49.610  1.00  0.00     0.139 N 
HETATM   17  H12 UNL     1      22.485   3.932  49.142  1.00  0.00     0.321 HD
BRANCH  16  18
HETATM   18  C12 UNL     1      23.582   5.509  49.725  1.00  0.00     0.293 C 
BRANCH  18  19
HETATM   19  C13 UNL     1      24.574   6.033  48.754  1.00  0.00     0.109 C 
BRANCH  19  20
HETATM   20  C14 UNL     1      25.775   5.493  48.905  1.00  0.00    -0.107 C 
BRANCH  20  21
HETATM   21  S1  UNL     1      27.207   4.709  48.940  1.00  0.00    -0.092 SA
HETATM   22 BR1  UNL     1      28.977   5.837  48.193  1.00  0.00    -0.013 Br
HETATM   23  H16 UNL     1      27.036   3.334  49.053  1.00  0.00     0.116 HD
ENDBRANCH  20  21
ENDBRANCH  19  20
ENDBRANCH  18  19
ENDBRANCH  16  18
ENDBRANCH  12  16
BRANCH   1  24
HETATM   24  O1  UNL     1      28.256   0.830  53.196  1.00  0.00    -0.353 OA
HETATM   25  C1  UNL     1      28.983   1.607  54.133  1.00  0.00     0.210 C 
ENDBRANCH   1  24
BRANCH   6  26
HETATM   26  O2  UNL     1      26.909  -1.500  53.386  1.00  0.00    -0.353 OA
HETATM   27  C8  UNL     1      26.940  -2.351  52.278  1.00  0.00     0.210 C 
ENDBRANCH   6  26
TORSDOF 7
ENDMDL
MODEL 3
REMARK VINA RESULT:      -6.3      2.357      4.405
REMARK  7 active torsions:
REMARK  status: ('A' for Active; 'I' for Inactive)
REMARK    1  A    between atoms: O1_2  and  C2_3 
REMARK    2  A    between atoms: C7_8  and  O2_9 
REMARK    3  A    between atoms: C11_16  and  N3_17 
REMARK    4  A    between atoms: N3_17  and  C12_18 
REMARK    5  A    between atoms: C12_18  and  C13_19 
REMARK    6  A    between atoms: C13_19  and  C14_20 
REMARK    7  A    between atoms: C14_20  and  S1_21 
ROOT
HETATM    1  C2  UNL     1      20.879   0.519  52.452  1.00  0.00     0.102 A 
HETATM    2  C3  UNL     1      21.496   1.390  51.557  1.00  0.00     0.051 A 
HETATM    3  C4  UNL     1      22.879   1.523  51.430  1.00  0.00     0.007 A 
HETATM    4  C5  UNL     1      23.654   0.738  52.248  1.00  0.00     0.087 A 
HETATM    5  C6  UNL     1      23.028  -0.115  53.126  1.00  0.00     0.077 A 
HETATM    6  C7  UNL     1      21.654  -0.271  53.277  1.00  0.00     0.104 A 
HETATM    7  O3  UNL     1      25.038   0.747  52.251  1.00  0.00    -0.303 OA
HETATM    8  C9  UNL     1      25.729   0.376  53.413  1.00  0.00     0.260 C 
HETATM    9  N1  UNL     1      25.786   1.610  53.850  1.00  0.00    -0.230 NA
HETATM   10  C10 UNL     1      25.177   2.612  53.008  1.00  0.00     0.233 C 
HETATM   11  N2  UNL     1      24.125   3.393  52.880  1.00  0.00    -0.220 NA
HETATM   12  C11 UNL     1      24.059   4.257  51.730  1.00  0.00     0.577 C 
HETATM   13  N4  UNL     1      23.030   3.892  50.804  1.00  0.00     0.142 N 
HETATM   14  C15 UNL     1      23.160   2.525  50.385  1.00  0.00     0.316 C 
HETATM   15  H17 UNL     1      22.082   4.034  51.191  1.00  0.00     0.321 HD
ENDROOT
BRANCH  12  16
HETATM   16  N3  UNL     1      23.878   5.632  52.219  1.00  0.00     0.139 N 
HETATM   17  H12 UNL     1      24.802   6.087  52.306  1.00  0.00     0.321 HD
BRANCH  16  18
HETATM   18  C12 UNL     1      23.162   6.358  51.180  1.00  0.00     0.293 C 
BRANCH  18  19
HETATM   19  C13 UNL     1      23.905   7.552  50.706  1.00  0.00     0.109 C 
BRANCH  19  20
HETATM   20  C14 UNL     1      24.988   7.239  50.009  1.00  0.00    -0.107 C 
BRANCH  20  21
HETATM   21  S1  UNL     1      26.227   6.691  49.097  1.00  0.00    -0.092 SA
HETATM   22 BR1  UNL     1      26.666   4.511  49.224  1.00  0.00    -0.013 Br
HETATM   23  H16 UNL     1      27.064   7.726  48.695  1.00  0.00     0.116 HD
ENDBRANCH  20  21
ENDBRANCH  19  20
ENDBRANCH  18  19
ENDBRANCH  16  18
ENDBRANCH  12  16
BRANCH   1  24
HETATM   24  O1  UNL     1      19.506   0.367  52.599  1.00  0.00    -0.353 OA
HETATM   25  C1  UNL     1      18.755   0.001  51.454  1.00  0.00     0.210 C 
ENDBRANCH   1  24
BRANCH   6  26
HETATM   26  O2  UNL     1      21.083  -1.148  54.180  1.00  0.00    -0.353 OA
HETATM   27  C8  UNL     1      21.892  -1.938  55.001  1.00  0.00     0.210 C 
ENDBRANCH   6  26
TORSDOF 7
ENDMDL
MODEL 4
REMARK VINA RESULT:      -6.2      2.610      3.946
REMARK  7 active torsions:
REMARK  status: ('A' for Active; 'I' for Inactive)
REMARK    1  A    between atoms: O1_2  and  C2_3 
REMARK    2  A    between atoms: C7_8  and  O2_9 
REMARK    3  A    between atoms: C11_16  and  N3_17 
REMARK    4  A    between atoms: N3_17  and  C12_18 
REMARK    5  A    between atoms: C12_18  and  C13_19 
REMARK    6  A    between atoms: C13_19  and  C14_20 
REMARK    7  A    between atoms: C14_20  and  S1_21 
ROOT
HETATM    1  C2  UNL     1      26.130   1.663  53.695  1.00  0.00     0.102 A 
HETATM    2  C3  UNL     1      24.890   1.732  53.063  1.00  0.00     0.051 A 
HETATM    3  C4  UNL     1      24.709   2.175  51.753  1.00  0.00     0.007 A 
HETATM    4  C5  UNL     1      25.836   2.559  51.068  1.00  0.00     0.087 A 
HETATM    5  C6  UNL     1      27.051   2.485  51.708  1.00  0.00     0.077 A 
HETATM    6  C7  UNL     1      27.265   2.048  53.010  1.00  0.00     0.104 A 
HETATM    7  O3  UNL     1      25.833   3.023  49.764  1.00  0.00    -0.303 OA
HETATM    8  C9  UNL     1      26.857   3.878  49.333  1.00  0.00     0.260 C 
HETATM    9  N1  UNL     1      26.177   4.954  49.647  1.00  0.00    -0.230 NA
HETATM   10  C10 UNL     1      24.868   4.736  50.214  1.00  0.00     0.233 C 
HETATM   11  N2  UNL     1      24.181   4.763  51.337  1.00  0.00    -0.220 NA
HETATM   12  C11 UNL     1      22.784   4.417  51.283  1.00  0.00     0.577 C 
HETATM   13  N4  UNL     1      22.479   3.183  51.941  1.00  0.00     0.142 N 
HETATM   14  C15 UNL     1      23.272   2.103  51.428  1.00  0.00     0.316 C 
HETATM   15  H17 UNL     1      22.612   3.238  52.965  1.00  0.00     0.321 HD
ENDROOT
BRANCH  12  16
HETATM   16  N3  UNL     1      22.028   5.537  51.865  1.00  0.00     0.139 N 
HETATM   17  H12 UNL     1      22.690   6.245  52.223  1.00  0.00     0.321 HD
BRANCH  16  18
HETATM   18  C12 UNL     1      21.306   6.170  50.771  1.00  0.00     0.293 C 
BRANCH  18  19
HETATM   19  C13 UNL     1      21.541   7.634  50.707  1.00  0.00     0.109 C 
BRANCH  19  20
HETATM   20  C14 UNL     1      22.632   7.950  50.024  1.00  0.00    -0.107 C 
BRANCH  20  21
HETATM   21  S1  UNL     1      23.857   8.438  49.061  1.00  0.00    -0.092 SA
HETATM   22 BR1  UNL     1      25.860   8.625  50.017  1.00  0.00    -0.013 Br
HETATM   23  H16 UNL     1      23.386   9.042  47.900  1.00  0.00     0.116 HD
ENDBRANCH  20  21
ENDBRANCH  19  20
ENDBRANCH  18  19
ENDBRANCH  16  18
ENDBRANCH  12  16
BRANCH   1  24
HETATM   24  O1  UNL     1      26.339   1.226  54.997  1.00  0.00    -0.353 OA
HETATM   25  C1  UNL     1      26.122  -0.146  55.278  1.00  0.00     0.210 C 
ENDBRANCH   1  24
BRANCH   6  26
HETATM   26  O2  UNL     1      28.514   1.996  53.599  1.00  0.00    -0.353 OA
HETATM   27  C8  UNL     1      29.289   0.837  53.503  1.00  0.00     0.210 C 
ENDBRANCH   6  26
TORSDOF 7
ENDMDL
MODEL 5
REMARK VINA RESULT:      -6.2      3.264      3.445
REMARK  7 active torsions:
REMARK  status: ('A' for Active; 'I' for Inactive)
REMARK    1  A    between atoms: O1_2  and  C2_3 
REMARK    2  A    between atoms: C7_8  and  O2_9 
REMARK    3  A    between atoms: C11_16  and  N3_17 
REMARK    4  A    between atoms: N3_17  and  C12_18 
REMARK    5  A    between atoms: C12_18  and  C13_19 
REMARK    6  A    between atoms: C13_19  and  C14_20 
REMARK    7  A    between atoms: C14_20  and  S1_21 
ROOT
HETATM    1  C2  UNL     1      26.177   1.373  53.771  1.00  0.00     0.102 A 
HETATM    2  C3  UNL     1      25.503   2.568  53.531  1.00  0.00     0.051 A 
HETATM    3  C4  UNL     1      24.171   2.640  53.121  1.00  0.00     0.007 A 
HETATM    4  C5  UNL     1      23.511   1.449  52.952  1.00  0.00     0.087 A 
HETATM    5  C6  UNL     1      24.193   0.279  53.192  1.00  0.00     0.077 A 
HETATM    6  C7  UNL     1      25.517   0.173  53.602  1.00  0.00     0.104 A 
HETATM    7  O3  UNL     1      22.191   1.341  52.550  1.00  0.00    -0.303 OA
HETATM    8  C9  UNL     1      21.762   0.182  51.888  1.00  0.00     0.260 C 
HETATM    9  N1  UNL     1      22.012   0.687  50.705  1.00  0.00    -0.230 NA
HETATM   10  C10 UNL     1      22.543   2.030  50.686  1.00  0.00     0.233 C 
HETATM   11  N2  UNL     1      23.640   2.733  50.502  1.00  0.00    -0.220 NA
HETATM   12  C11 UNL     1      23.553   4.166  50.622  1.00  0.00     0.577 C 
HETATM   13  N4  UNL     1      24.247   4.683  51.762  1.00  0.00     0.142 N 
HETATM   14  C15 UNL     1      23.801   4.061  52.977  1.00  0.00     0.316 C 
HETATM   15  H17 UNL     1      25.272   4.570  51.686  1.00  0.00     0.321 HD
ENDROOT
BRANCH  12  16
HETATM   16  N3  UNL     1      24.067   4.747  49.372  1.00  0.00     0.139 N 
HETATM   17  H12 UNL     1      24.342   3.985  48.731  1.00  0.00     0.321 HD
BRANCH  16  18
HETATM   18  C12 UNL     1      22.950   5.430  48.736  1.00  0.00     0.293 C 
BRANCH  18  19
HETATM   19  C13 UNL     1      22.516   4.766  47.482  1.00  0.00     0.109 C 
BRANCH  19  20
HETATM   20  C14 UNL     1      21.451   3.994  47.652  1.00  0.00    -0.107 C 
BRANCH  20  21
HETATM   21  S1  UNL     1      20.174   2.977  47.679  1.00  0.00    -0.092 SA
HETATM   22 BR1  UNL     1      18.555   3.373  46.201  1.00  0.00    -0.013 Br
HETATM   23  H16 UNL     1      20.108   2.270  48.875  1.00  0.00     0.116 HD
ENDBRANCH  20  21
ENDBRANCH  19  20
ENDBRANCH  18  19
ENDBRANCH  16  18
ENDBRANCH  12  16
BRANCH   1  24
HETATM   24  O1  UNL     1      27.502   1.273  54.179  1.00  0.00    -0.353 OA
HETATM   25  C1  UNL     1      28.432   2.196  53.641  1.00  0.00     0.210 C 
ENDBRANCH   1  24
BRANCH   6  26
HETATM   26  O2  UNL     1      26.149  -1.035  53.828  1.00  0.00    -0.353 OA
HETATM   27  C8  UNL     1      26.792  -1.700  52.780  1.00  0.00     0.210 C 
ENDBRANCH   6  26
TORSDOF 7
ENDMDL
MODEL 6
REMARK VINA RESULT:      -6.0      1.976      2.505
REMARK  7 active torsions:
REMARK  status: ('A' for Active; 'I' for Inactive)
REMARK    1  A    between atoms: O1_2  and  C2_3 
REMARK    2  A    between atoms: C7_8  and  O2_9 
REMARK    3  A    between atoms: C11_16  and  N3_17 
REMARK    4  A    between atoms: N3_17  and  C12_18 
REMARK    5  A    between atoms: C12_18  and  C13_19 
REMARK    6  A    between atoms: C13_19  and  C14_20 
REMARK    7  A    between atoms: C14_20  and  S1_21 
ROOT
HETATM    1  C2  UNL     1      24.126   0.658  53.129  1.00  0.00     0.102 A 
HETATM    2  C3  UNL     1      24.339   2.027  52.981  1.00  0.00     0.051 A 
HETATM    3  C4  UNL     1      23.337   2.937  52.644  1.00  0.00     0.007 A 
HETATM    4  C5  UNL     1      22.077   2.427  52.453  1.00  0.00     0.087 A 
HETATM    5  C6  UNL     1      21.886   1.073  52.601  1.00  0.00     0.077 A 
HETATM    6  C7  UNL     1      22.861   0.141  52.936  1.00  0.00     0.104 A 
HETATM    7  O3  UNL     1      20.972   3.189  52.114  1.00  0.00    -0.303 OA
HETATM    8  C9  UNL     1      19.908   2.594  51.421  1.00  0.00     0.260 C 
HETATM    9  N1  UNL     1      20.406   2.916  50.252  1.00  0.00    -0.230 NA
HETATM   10  C10 UNL     1      21.656   3.638  50.270  1.00  0.00     0.233 C 
HETATM   11  N2  UNL     1      22.951   3.521  50.064  1.00  0.00    -0.220 NA
HETATM   12  C11 UNL     1      23.775   4.686  50.256  1.00  0.00     0.577 C 
HETATM   13  N4  UNL     1      24.652   4.582  51.383  1.00  0.00     0.142 N 
HETATM   14  C15 UNL     1      23.928   4.287  52.587  1.00  0.00     0.316 C 
HETATM   15  H17 UNL     1      25.383   3.863  51.248  1.00  0.00     0.321 HD
ENDROOT
BRANCH  12  16
HETATM   16  N3  UNL     1      24.525   4.909  49.010  1.00  0.00     0.139 N 
HETATM   17  H12 UNL     1      24.401   5.889  48.710  1.00  0.00     0.321 HD
BRANCH  16  18
HETATM   18  C12 UNL     1      25.935   4.758  49.336  1.00  0.00     0.293 C 
BRANCH  18  19
HETATM   19  C13 UNL     1      26.779   5.806  48.711  1.00  0.00     0.109 C 
BRANCH  19  20
HETATM   20  C14 UNL     1      26.569   7.009  49.226  1.00  0.00    -0.107 C 
BRANCH  20  21
HETATM   21  S1  UNL     1      26.507   8.502  49.884  1.00  0.00    -0.092 SA
HETATM   22 BR1  UNL     1      25.997  10.176  48.505  1.00  0.00    -0.013 Br
HETATM   23  H16 UNL     1      27.168   8.551  51.106  1.00  0.00     0.116 HD
ENDBRANCH  20  21
ENDBRANCH  19  20
ENDBRANCH  18  19
ENDBRANCH  16  18
ENDBRANCH  12  16
BRANCH   1  24
HETATM   24  O1  UNL     1      25.105  -0.270  53.463  1.00  0.00    -0.353 OA
HETATM   25  C1  UNL     1      26.015   0.072  54.495  1.00  0.00     0.210 C 
ENDBRANCH   1  24
BRANCH   6  26
HETATM   26  O2  UNL     1      22.607  -1.211  53.072  1.00  0.00    -0.353 OA
HETATM   27  C8  UNL     1      21.700  -1.663  54.034  1.00  0.00     0.210 C 
ENDBRANCH   6  26
TORSDOF 7
ENDMDL
MODEL 7
REMARK VINA RESULT:      -5.8      5.506      6.904
REMARK  7 active torsions:
REMARK  status: ('A' for Active; 'I' for Inactive)
REMARK    1  A    between atoms: O1_2  and  C2_3 
REMARK    2  A    between atoms: C7_8  and  O2_9 
REMARK    3  A    between atoms: C11_16  and  N3_17 
REMARK    4  A    between atoms: N3_17  and  C12_18 
REMARK    5  A    between atoms: C12_18  and  C13_19 
REMARK    6  A    between atoms: C13_19  and  C14_20 
REMARK    7  A    between atoms: C14_20  and  S1_21 
ROOT
HETATM    1  C2  UNL     1      23.074  -0.210  53.295  1.00  0.00     0.102 A 
HETATM    2  C3  UNL     1      22.129   0.095  52.318  1.00  0.00     0.051 A 
HETATM    3  C4  UNL     1      22.347   1.005  51.284  1.00  0.00     0.007 A 
HETATM    4  C5  UNL     1      23.573   1.622  51.251  1.00  0.00     0.087 A 
HETATM    5  C6  UNL     1      24.493   1.310  52.224  1.00  0.00     0.077 A 
HETATM    6  C7  UNL     1      24.308   0.408  53.266  1.00  0.00     0.104 A 
HETATM    7  O3  UNL     1      23.953   2.550  50.296  1.00  0.00    -0.303 OA
HETATM    8  C9  UNL     1      24.929   3.506  50.610  1.00  0.00     0.260 C 
HETATM    9  N1  UNL     1      24.036   4.379  51.009  1.00  0.00    -0.230 NA
HETATM   10  C10 UNL     1      22.657   3.960  50.932  1.00  0.00     0.233 C 
HETATM   11  N2  UNL     1      21.631   3.555  51.649  1.00  0.00    -0.220 NA
HETATM   12  C11 UNL     1      20.401   3.255  50.962  1.00  0.00     0.577 C 
HETATM   13  N4  UNL     1      20.068   1.863  50.975  1.00  0.00     0.142 N 
HETATM   14  C15 UNL     1      21.135   1.062  50.445  1.00  0.00     0.316 C 
HETATM   15  H17 UNL     1      19.833   1.522  51.922  1.00  0.00     0.321 HD
ENDROOT
BRANCH  12  16
HETATM   16  N3  UNL     1      19.340   4.067  51.577  1.00  0.00     0.139 N 
HETATM   17  H12 UNL     1      19.215   4.934  51.030  1.00  0.00     0.321 HD
BRANCH  16  18
HETATM   18  C12 UNL     1      18.101   3.315  51.438  1.00  0.00     0.293 C 
BRANCH  18  19
HETATM   19  C13 UNL     1      16.953   4.177  51.063  1.00  0.00     0.109 C 
BRANCH  19  20
HETATM   20  C14 UNL     1      15.965   4.129  51.946  1.00  0.00    -0.107 C 
BRANCH  20  21
HETATM   21  S1  UNL     1      14.888   4.063  53.172  1.00  0.00    -0.092 SA
HETATM   22 BR1  UNL     1      12.740   4.265  52.620  1.00  0.00    -0.013 Br
HETATM   23  H16 UNL     1      15.497   4.292  54.401  1.00  0.00     0.116 HD
ENDBRANCH  20  21
ENDBRANCH  19  20
ENDBRANCH  18  19
ENDBRANCH  16  18
ENDBRANCH  12  16
BRANCH   1  24
HETATM   24  O1  UNL     1      22.883  -1.112  54.335  1.00  0.00    -0.353 OA
HETATM   25  C1  UNL     1      21.599  -1.695  54.478  1.00  0.00     0.210 C 
ENDBRANCH   1  24
BRANCH   6  26
HETATM   26  O2  UNL     1      25.273   0.135  54.217  1.00  0.00    -0.353 OA
HETATM   27  C8  UNL     1      26.415   0.935  54.309  1.00  0.00     0.210 C 
ENDBRANCH   6  26
TORSDOF 7
ENDMDL
MODEL 8
REMARK VINA RESULT:      -5.8      3.410      4.996
REMARK  7 active torsions:
REMARK  status: ('A' for Active; 'I' for Inactive)
REMARK    1  A    between atoms: O1_2  and  C2_3 
REMARK    2  A    between atoms: C7_8  and  O2_9 
REMARK    3  A    between atoms: C11_16  and  N3_17 
REMARK    4  A    between atoms: N3_17  and  C12_18 
REMARK    5  A    between atoms: C12_18  and  C13_19 
REMARK    6  A    between atoms: C13_19  and  C14_20 
REMARK    7  A    between atoms: C14_20  and  S1_21 
ROOT
HETATM    1  C2  UNL     1      21.177   0.112  52.529  1.00  0.00     0.102 A 
HETATM    2  C3  UNL     1      21.603   1.000  51.543  1.00  0.00     0.051 A 
HETATM    3  C4  UNL     1      22.928   1.403  51.381  1.00  0.00     0.007 A 
HETATM    4  C5  UNL     1      23.846   0.878  52.256  1.00  0.00     0.087 A 
HETATM    5  C6  UNL     1      23.408   0.004  53.223  1.00  0.00     0.077 A 
HETATM    6  C7  UNL     1      22.096  -0.417  53.411  1.00  0.00     0.104 A 
HETATM    7  O3  UNL     1      25.199   1.173  52.235  1.00  0.00    -0.303 OA
HETATM    8  C9  UNL     1      25.948   1.067  53.416  1.00  0.00     0.260 C 
HETATM    9  N1  UNL     1      25.746   2.323  53.731  1.00  0.00    -0.230 NA
HETATM   10  C10 UNL     1      24.946   3.091  52.807  1.00  0.00     0.233 C 
HETATM   11  N2  UNL     1      23.755   3.621  52.624  1.00  0.00    -0.220 NA
HETATM   12  C11 UNL     1      23.515   4.337  51.397  1.00  0.00     0.577 C 
HETATM   13  N4  UNL     1      22.587   3.680  50.528  1.00  0.00     0.142 N 
HETATM   14  C15 UNL     1      22.999   2.335  50.239  1.00  0.00     0.316 C 
HETATM   15  H17 UNL     1      21.629   3.659  50.916  1.00  0.00     0.321 HD
ENDROOT
BRANCH  12  16
HETATM   16  N3  UNL     1      23.051   5.687  51.756  1.00  0.00     0.139 N 
HETATM   17  H12 UNL     1      22.936   5.746  52.780  1.00  0.00     0.321 HD
BRANCH  16  18
HETATM   18  C12 UNL     1      24.127   6.606  51.412  1.00  0.00     0.293 C 
BRANCH  18  19
HETATM   19  C13 UNL     1      23.750   7.541  50.324  1.00  0.00     0.109 C 
BRANCH  19  20
HETATM   20  C14 UNL     1      22.444   7.761  50.264  1.00  0.00    -0.107 C 
BRANCH  20  21
HETATM   21  S1  UNL     1      20.836   7.920  50.029  1.00  0.00    -0.092 SA
HETATM   22 BR1  UNL     1      20.126   9.911  49.327  1.00  0.00    -0.013 Br
HETATM   23  H16 UNL     1      20.122   6.921  50.681  1.00  0.00     0.116 HD
ENDBRANCH  20  21
ENDBRANCH  19  20
ENDBRANCH  18  19
ENDBRANCH  16  18
ENDBRANCH  12  16
BRANCH   1  24
HETATM   24  O1  UNL     1      19.865  -0.306  52.713  1.00  0.00    -0.353 OA
HETATM   25  C1  UNL     1      18.869   0.250  51.871  1.00  0.00     0.210 C 
ENDBRANCH   1  24
BRANCH   6  26
HETATM   26  O2  UNL     1      21.716  -1.301  54.404  1.00  0.00    -0.353 OA
HETATM   27  C8  UNL     1      22.624  -1.673  55.400  1.00  0.00     0.210 C 
ENDBRANCH   6  26
TORSDOF 7
ENDMDL
MODEL 9
REMARK VINA RESULT:      -5.7      2.816      3.912
REMARK  7 active torsions:
REMARK  status: ('A' for Active; 'I' for Inactive)
REMARK    1  A    between atoms: O1_2  and  C2_3 
REMARK    2  A    between atoms: C7_8  and  O2_9 
REMARK    3  A    between atoms: C11_16  and  N3_17 
REMARK    4  A    between atoms: N3_17  and  C12_18 
REMARK    5  A    between atoms: C12_18  and  C13_19 
REMARK    6  A    between atoms: C13_19  and  C14_20 
REMARK    7  A    between atoms: C14_20  and  S1_21 
ROOT
HETATM    1  C2  UNL     1      25.524   2.573  51.576  1.00  0.00     0.102 A 
HETATM    2  C3  UNL     1      24.229   3.081  51.504  1.00  0.00     0.051 A 
HETATM    3  C4  UNL     1      23.139   2.527  52.175  1.00  0.00     0.007 A 
HETATM    4  C5  UNL     1      23.385   1.416  52.944  1.00  0.00     0.087 A 
HETATM    5  C6  UNL     1      24.669   0.928  53.002  1.00  0.00     0.077 A 
HETATM    6  C7  UNL     1      25.776   1.456  52.346  1.00  0.00     0.104 A 
HETATM    7  O3  UNL     1      22.418   0.744  53.672  1.00  0.00    -0.303 OA
HETATM    8  C9  UNL     1      22.592  -0.617  53.961  1.00  0.00     0.260 C 
HETATM    9  N1  UNL     1      21.948  -0.993  52.884  1.00  0.00    -0.230 NA
HETATM   10  C10 UNL     1      21.444   0.064  52.041  1.00  0.00     0.233 C 
HETATM   11  N2  UNL     1      21.646   0.705  50.909  1.00  0.00    -0.220 NA
HETATM   12  C11 UNL     1      20.737   1.766  50.561  1.00  0.00     0.577 C 
HETATM   13  N4  UNL     1      21.339   3.064  50.595  1.00  0.00     0.142 N 
HETATM   14  C15 UNL     1      21.941   3.332  51.870  1.00  0.00     0.316 C 
HETATM   15  H17 UNL     1      22.052   3.188  49.856  1.00  0.00     0.321 HD
ENDROOT
BRANCH  12  16
HETATM   16  N3  UNL     1      20.190   1.462  49.230  1.00  0.00     0.139 N 
HETATM   17  H12 UNL     1      19.343   2.032  49.072  1.00  0.00     0.321 HD
BRANCH  16  18
HETATM   18  C12 UNL     1      21.173   1.916  48.257  1.00  0.00     0.293 C 
BRANCH  18  19
HETATM   19  C13 UNL     1      20.606   2.880  47.282  1.00  0.00     0.109 C 
BRANCH  19  20
HETATM   20  C14 UNL     1      21.287   4.016  47.226  1.00  0.00    -0.107 C 
BRANCH  20  21
HETATM   21  S1  UNL     1      22.225   5.334  47.006  1.00  0.00    -0.092 SA
HETATM   22 BR1  UNL     1      23.647   5.828  48.647  1.00  0.00    -0.013 Br
HETATM   23  H16 UNL     1      21.712   6.167  46.017  1.00  0.00     0.116 HD
ENDBRANCH  20  21
ENDBRANCH  19  20
ENDBRANCH  18  19
ENDBRANCH  16  18
ENDBRANCH  12  16
BRANCH   1  24
HETATM   24  O1  UNL     1      26.627   3.105  50.918  1.00  0.00    -0.353 OA
HETATM   25  C1  UNL     1      26.496   3.399  49.538  1.00  0.00     0.210 C 
ENDBRANCH   1  24
BRANCH   6  26
HETATM   26  O2  UNL     1      27.045   0.919  52.444  1.00  0.00    -0.353 OA
HETATM   27  C8  UNL     1      27.217  -0.463  52.563  1.00  0.00     0.210 C 
ENDBRANCH   6  26
TORSDOF 7
ENDMDL
