MODEL 1
REMARK VINA RESULT:      -8.5      0.000      0.000
REMARK  8 active torsions:
REMARK  status: ('A' for Active; 'I' for Inactive)
REMARK    1  A    between atoms: C2_3  and  C3_4 
REMARK    2  A    between atoms: C6_8  and  N3_9 
REMARK    3  A    between atoms: N3_9  and  C7_10 
REMARK    4  A    between atoms: C14_19  and  O1_20 
REMARK    5  A    between atoms: O1_20  and  C15_21 
REMARK    6  A    between atoms: C15_21  and  C16_22 
REMARK    7  A    between atoms: C16_22  and  C17_23 
REMARK    8  A    between atoms: C20_28  and  O3_29 
ROOT
HETATM    1  C3  UNL     1      21.785   2.230  52.539  1.00  0.00     0.134 A 
HETATM    2  C4  UNL     1      21.144   3.541  52.282  1.00  0.00     0.043 A 
HETATM    3  N2  UNL     1      19.861   3.458  52.211  1.00  0.00    -0.304 NA
HETATM    4  C5  UNL     1      21.850   4.815  52.121  1.00  0.00     0.057 A 
HETATM    5  C6  UNL     1      23.174   4.795  52.211  1.00  0.00     0.036 A 
HETATM    6  C13 UNL     1      23.909   3.568  52.462  1.00  0.00     0.062 A 
HETATM    7  C14 UNL     1      23.279   2.410  52.609  1.00  0.00     0.063 A 
HETATM    8  H6  UNL     1      19.283   4.297  52.035  1.00  0.00     0.186 HD
ENDROOT
BRANCH   7   9
HETATM    9  O1  UNL     1      23.965   1.243  52.846  1.00  0.00    -0.354 OA
BRANCH   9  10
HETATM   10  C15 UNL     1      24.955   0.801  51.933  1.00  0.00     0.177 C 
BRANCH  10  11
HETATM   11  C16 UNL     1      26.221   0.398  52.657  1.00  0.00     0.058 C 
BRANCH  11  12
HETATM   12  C17 UNL     1      26.600   1.372  53.729  1.00  0.00     0.139 C 
HETATM   13  N4  UNL     1      26.996   0.731  54.943  1.00  0.00    -0.391 N 
HETATM   14  C18 UNL     1      28.370   0.300  54.968  1.00  0.00     0.292 C 
HETATM   15  H18 UNL     1      26.318   0.086  55.357  1.00  0.00     0.156 HD
HETATM   16  O2  UNL     1      29.144   1.509  54.925  1.00  0.00    -0.342 OA
HETATM   17  C19 UNL     1      28.975   2.262  53.746  1.00  0.00     0.170 C 
HETATM   18  C20 UNL     1      27.746   2.165  53.213  1.00  0.00     0.087 C 
BRANCH  18  19
HETATM   19  O3  UNL     1      27.487   2.886  52.029  1.00  0.00    -0.361 OA
HETATM   20  H22 UNL     1      27.845   3.824  51.923  1.00  0.00     0.217 HD
ENDBRANCH  18  19
ENDBRANCH  11  12
ENDBRANCH  10  11
ENDBRANCH   9  10
ENDBRANCH   7   9
BRANCH   1  21
HETATM   21  C2  UNL     1      21.386   1.325  51.447  1.00  0.00     0.263 C 
HETATM   22  N1  UNL     1      20.563   0.345  51.464  1.00  0.00    -0.427 NA
HETATM   23  C1  UNL     1      19.829  -0.088  52.601  1.00  0.00     0.131 C 
ENDBRANCH   1  21
BRANCH   5  24
HETATM   24  N3  UNL     1      23.877   6.024  52.057  1.00  0.00    -0.356 N 
HETATM   25  H8  UNL     1      24.074   6.655  52.866  1.00  0.00     0.166 HD
BRANCH  24  26
HETATM   26  C7  UNL     1      24.318   6.396  50.775  1.00  0.00     0.034 A 
HETATM   27  C8  UNL     1      23.600   7.252  49.978  1.00  0.00     0.032 A 
HETATM   28  C9  UNL     1      24.021   7.627  48.715  1.00  0.00     0.046 A 
HETATM   29  C10 UNL     1      25.222   7.133  48.200  1.00  0.00     0.138 A 
HETATM   30  F1  UNL     1      25.611   7.515  46.961  1.00  0.00    -0.204 F 
HETATM   31  C11 UNL     1      25.958   6.263  49.002  1.00  0.00     0.074 A 
HETATM   32 CL1  UNL     1      27.459   5.643  48.358  1.00  0.00    -0.081 Cl
HETATM   33  C12 UNL     1      25.505   5.914  50.250  1.00  0.00     0.056 A 
ENDBRANCH  24  26
ENDBRANCH   5  24
TORSDOF 8
ENDMDL
MODEL 2
REMARK VINA RESULT:      -8.2      2.090      2.609
REMARK  8 active torsions:
REMARK  status: ('A' for Active; 'I' for Inactive)
REMARK    1  A    between atoms: C2_3  and  C3_4 
REMARK    2  A    between atoms: C6_8  and  N3_9 
REMARK    3  A    between atoms: N3_9  and  C7_10 
REMARK    4  A    between atoms: C14_19  and  O1_20 
REMARK    5  A    between atoms: O1_20  and  C15_21 
REMARK    6  A    between atoms: C15_21  and  C16_22 
REMARK    7  A    between atoms: C16_22  and  C17_23 
REMARK    8  A    between atoms: C20_28  and  O3_29 
ROOT
HETATM    1  C3  UNL     1      22.688   1.008  52.774  1.00  0.00     0.134 A 
HETATM    2  C4  UNL     1      21.752   1.435  51.708  1.00  0.00     0.043 A 
HETATM    3  N2  UNL     1      20.564   0.968  51.877  1.00  0.00    -0.304 NA
HETATM    4  C5  UNL     1      22.094   2.292  50.569  1.00  0.00     0.057 A 
HETATM    5  C6  UNL     1      23.347   2.721  50.484  1.00  0.00     0.036 A 
HETATM    6  C13 UNL     1      24.351   2.367  51.471  1.00  0.00     0.062 A 
HETATM    7  C14 UNL     1      24.051   1.592  52.505  1.00  0.00     0.063 A 
HETATM    8  H6  UNL     1      19.806   1.185  51.209  1.00  0.00     0.186 HD
ENDROOT
BRANCH   7   9
HETATM    9  O1  UNL     1      24.993   1.251  53.445  1.00  0.00    -0.354 OA
BRANCH   9  10
HETATM   10  C15 UNL     1      26.229   1.942  53.499  1.00  0.00     0.177 C 
BRANCH  10  11
HETATM   11  C16 UNL     1      27.361   1.073  52.997  1.00  0.00     0.058 C 
BRANCH  11  12
HETATM   12  C17 UNL     1      27.676  -0.051  53.935  1.00  0.00     0.139 C 
HETATM   13  N4  UNL     1      26.761  -1.142  53.816  1.00  0.00    -0.391 N 
HETATM   14  C18 UNL     1      27.066  -2.060  52.749  1.00  0.00     0.292 C 
HETATM   15  H18 UNL     1      25.771  -0.920  53.944  1.00  0.00     0.156 HD
HETATM   16  O2  UNL     1      28.313  -2.669  53.121  1.00  0.00    -0.342 OA
HETATM   17  C19 UNL     1      29.393  -1.768  53.205  1.00  0.00     0.170 C 
HETATM   18  C20 UNL     1      29.040  -0.533  53.596  1.00  0.00     0.087 C 
BRANCH  18  19
HETATM   19  O3  UNL     1      30.059   0.435  53.707  1.00  0.00    -0.361 OA
HETATM   20  H22 UNL     1      30.978   0.165  54.025  1.00  0.00     0.217 HD
ENDBRANCH  18  19
ENDBRANCH  11  12
ENDBRANCH  10  11
ENDBRANCH   9  10
ENDBRANCH   7   9
BRANCH   1  21
HETATM   21  C2  UNL     1      22.708  -0.466  52.777  1.00  0.00     0.263 C 
HETATM   22  N1  UNL     1      22.239  -1.282  53.642  1.00  0.00    -0.427 NA
HETATM   23  C1  UNL     1      21.568  -0.911  54.839  1.00  0.00     0.131 C 
ENDBRANCH   1  21
BRANCH   5  24
HETATM   24  N3  UNL     1      23.697   3.555  49.384  1.00  0.00    -0.356 N 
HETATM   25  H8  UNL     1      23.448   3.308  48.399  1.00  0.00     0.166 HD
BRANCH  24  26
HETATM   26  C7  UNL     1      24.400   4.748  49.633  1.00  0.00     0.034 A 
HETATM   27  C8  UNL     1      23.937   5.695  50.510  1.00  0.00     0.032 A 
HETATM   28  C9  UNL     1      24.616   6.872  50.766  1.00  0.00     0.046 A 
HETATM   29  C10 UNL     1      25.826   7.138  50.122  1.00  0.00     0.138 A 
HETATM   30  F1  UNL     1      26.472   8.298  50.390  1.00  0.00    -0.204 F 
HETATM   31  C11 UNL     1      26.306   6.181  49.229  1.00  0.00     0.074 A 
HETATM   32 CL1  UNL     1      27.820   6.512  48.422  1.00  0.00    -0.081 Cl
HETATM   33  C12 UNL     1      25.600   5.025  49.002  1.00  0.00     0.056 A 
ENDBRANCH  24  26
ENDBRANCH   5  24
TORSDOF 8
ENDMDL
MODEL 3
REMARK VINA RESULT:      -8.2      3.569      5.146
REMARK  8 active torsions:
REMARK  status: ('A' for Active; 'I' for Inactive)
REMARK    1  A    between atoms: C2_3  and  C3_4 
REMARK    2  A    between atoms: C6_8  and  N3_9 
REMARK    3  A    between atoms: N3_9  and  C7_10 
REMARK    4  A    between atoms: C14_19  and  O1_20 
REMARK    5  A    between atoms: O1_20  and  C15_21 
REMARK    6  A    between atoms: C15_21  and  C16_22 
REMARK    7  A    between atoms: C16_22  and  C17_23 
REMARK    8  A    between atoms: C20_28  and  O3_29 
ROOT
HETATM    1  C3  UNL     1      25.229   5.503  50.421  1.00  0.00     0.134 A 
HETATM    2  C4  UNL     1      25.650   6.891  50.123  1.00  0.00     0.043 A 
HETATM    3  N2  UNL     1      24.959   7.766  50.767  1.00  0.00    -0.304 NA
HETATM    4  C5  UNL     1      26.727   7.275  49.207  1.00  0.00     0.057 A 
HETATM    5  C6  UNL     1      27.380   6.298  48.591  1.00  0.00     0.036 A 
HETATM    6  C13 UNL     1      27.055   4.900  48.805  1.00  0.00     0.062 A 
HETATM    7  C14 UNL     1      26.081   4.542  49.633  1.00  0.00     0.063 A 
HETATM    8  H6  UNL     1      25.143   8.777  50.657  1.00  0.00     0.186 HD
ENDROOT
BRANCH   7   9
HETATM    9  O1  UNL     1      25.765   3.222  49.843  1.00  0.00    -0.354 OA
BRANCH   9  10
HETATM   10  C15 UNL     1      25.597   2.731  51.161  1.00  0.00     0.177 C 
BRANCH  10  11
HETATM   11  C16 UNL     1      26.852   2.039  51.647  1.00  0.00     0.058 C 
BRANCH  11  12
HETATM   12  C17 UNL     1      26.926   1.976  53.141  1.00  0.00     0.139 C 
HETATM   13  N4  UNL     1      26.223   0.856  53.682  1.00  0.00    -0.391 N 
HETATM   14  C18 UNL     1      26.970  -0.374  53.679  1.00  0.00     0.292 C 
HETATM   15  H18 UNL     1      25.233   0.779  53.433  1.00  0.00     0.156 HD
HETATM   16  O2  UNL     1      28.060  -0.155  54.588  1.00  0.00    -0.342 OA
HETATM   17  C19 UNL     1      28.950   0.863  54.189  1.00  0.00     0.170 C 
HETATM   18  C20 UNL     1      28.363   1.856  53.502  1.00  0.00     0.087 C 
BRANCH  18  19
HETATM   19  O3  UNL     1      29.178   2.919  53.062  1.00  0.00    -0.361 OA
HETATM   20  H22 UNL     1      29.617   3.529  53.737  1.00  0.00     0.217 HD
ENDBRANCH  18  19
ENDBRANCH  11  12
ENDBRANCH  10  11
ENDBRANCH   9  10
ENDBRANCH   7   9
BRANCH   1  21
HETATM   21  C2  UNL     1      23.801   5.392  50.071  1.00  0.00     0.263 C 
HETATM   22  N1  UNL     1      22.798   5.141  50.823  1.00  0.00    -0.427 NA
HETATM   23  C1  UNL     1      22.863   4.906  52.223  1.00  0.00     0.131 C 
ENDBRANCH   1  21
BRANCH   5  24
HETATM   24  N3  UNL     1      28.431   6.652  47.696  1.00  0.00    -0.356 N 
HETATM   25  H8  UNL     1      28.242   7.056  46.751  1.00  0.00     0.166 HD
BRANCH  24  26
HETATM   26  C7  UNL     1      29.763   6.452  48.101  1.00  0.00     0.034 A 
HETATM   27  C8  UNL     1      30.455   7.395  48.818  1.00  0.00     0.032 A 
HETATM   28  C9  UNL     1      31.764   7.213  49.223  1.00  0.00     0.046 A 
HETATM   29  C10 UNL     1      32.439   6.032  48.905  1.00  0.00     0.138 A 
HETATM   30  F1  UNL     1      33.721   5.878  49.313  1.00  0.00    -0.204 F 
HETATM   31  C11 UNL     1      31.745   5.067  48.176  1.00  0.00     0.074 A 
HETATM   32 CL1  UNL     1      32.588   3.590  47.778  1.00  0.00    -0.081 Cl
HETATM   33  C12 UNL     1      30.445   5.288  47.793  1.00  0.00     0.056 A 
ENDBRANCH  24  26
ENDBRANCH   5  24
TORSDOF 8
ENDMDL
MODEL 4
REMARK VINA RESULT:      -8.1      3.841      6.882
REMARK  8 active torsions:
REMARK  status: ('A' for Active; 'I' for Inactive)
REMARK    1  A    between atoms: C2_3  and  C3_4 
REMARK    2  A    between atoms: C6_8  and  N3_9 
REMARK    3  A    between atoms: N3_9  and  C7_10 
REMARK    4  A    between atoms: C14_19  and  O1_20 
REMARK    5  A    between atoms: O1_20  and  C15_21 
REMARK    6  A    between atoms: C15_21  and  C16_22 
REMARK    7  A    between atoms: C16_22  and  C17_23 
REMARK    8  A    between atoms: C20_28  and  O3_29 
ROOT
HETATM    1  C3  UNL     1      23.334   2.468  50.353  1.00  0.00     0.134 A 
HETATM    2  C4  UNL     1      22.902   1.809  51.607  1.00  0.00     0.043 A 
HETATM    3  N2  UNL     1      21.679   1.409  51.559  1.00  0.00    -0.304 NA
HETATM    4  C5  UNL     1      23.737   1.612  52.795  1.00  0.00     0.057 A 
HETATM    5  C6  UNL     1      24.984   2.061  52.745  1.00  0.00     0.036 A 
HETATM    6  C13 UNL     1      25.518   2.723  51.568  1.00  0.00     0.062 A 
HETATM    7  C14 UNL     1      24.769   2.906  50.487  1.00  0.00     0.063 A 
HETATM    8  H6  UNL     1      21.243   0.930  52.365  1.00  0.00     0.186 HD
ENDROOT
BRANCH   7   9
HETATM    9  O1  UNL     1      25.264   3.531  49.368  1.00  0.00    -0.354 OA
BRANCH   9  10
HETATM   10  C15 UNL     1      26.576   4.065  49.371  1.00  0.00     0.177 C 
BRANCH  10  11
HETATM   11  C16 UNL     1      26.566   5.535  49.010  1.00  0.00     0.058 C 
BRANCH  11  12
HETATM   12  C17 UNL     1      25.614   6.323  49.854  1.00  0.00     0.139 C 
HETATM   13  N4  UNL     1      26.260   7.364  50.590  1.00  0.00    -0.391 N 
HETATM   14  C18 UNL     1      26.472   8.577  49.845  1.00  0.00     0.292 C 
HETATM   15  H18 UNL     1      27.028   7.075  51.202  1.00  0.00     0.156 HD
HETATM   16  O2  UNL     1      25.155   9.086  49.574  1.00  0.00    -0.342 OA
HETATM   17  C19 UNL     1      24.366   8.244  48.766  1.00  0.00     0.170 C 
HETATM   18  C20 UNL     1      24.620   6.937  48.934  1.00  0.00     0.087 C 
BRANCH  18  19
HETATM   19  O3  UNL     1      23.876   6.020  48.164  1.00  0.00    -0.361 OA
HETATM   20  H22 UNL     1      24.340   5.450  47.473  1.00  0.00     0.217 HD
ENDBRANCH  18  19
ENDBRANCH  11  12
ENDBRANCH  10  11
ENDBRANCH   9  10
ENDBRANCH   7   9
BRANCH   1  21
HETATM   21  C2  UNL     1      22.427   3.606  50.119  1.00  0.00     0.263 C 
HETATM   22  N1  UNL     1      21.675   3.852  49.115  1.00  0.00    -0.427 NA
HETATM   23  C1  UNL     1      21.557   3.032  47.959  1.00  0.00     0.131 C 
ENDBRANCH   1  21
BRANCH   5  24
HETATM   24  N3  UNL     1      25.811   1.878  53.891  1.00  0.00    -0.356 N 
HETATM   25  H8  UNL     1      25.584   2.312  54.813  1.00  0.00     0.166 HD
BRANCH  24  26
HETATM   26  C7  UNL     1      26.968   1.087  53.773  1.00  0.00     0.034 A 
HETATM   27  C8  UNL     1      28.219   1.585  54.030  1.00  0.00     0.032 A 
HETATM   28  C9  UNL     1      29.366   0.819  53.919  1.00  0.00     0.046 A 
HETATM   29  C10 UNL     1      29.280  -0.520  53.531  1.00  0.00     0.138 A 
HETATM   30  F1  UNL     1      30.417  -1.248  53.429  1.00  0.00    -0.204 F 
HETATM   31  C11 UNL     1      28.012  -1.036  53.267  1.00  0.00     0.074 A 
HETATM   32 CL1  UNL     1      27.904  -2.710  52.782  1.00  0.00    -0.081 Cl
HETATM   33  C12 UNL     1      26.899  -0.242  53.389  1.00  0.00     0.056 A 
ENDBRANCH  24  26
ENDBRANCH   5  24
TORSDOF 8
ENDMDL
MODEL 5
REMARK VINA RESULT:      -8.0      4.016      6.943
REMARK  8 active torsions:
REMARK  status: ('A' for Active; 'I' for Inactive)
REMARK    1  A    between atoms: C2_3  and  C3_4 
REMARK    2  A    between atoms: C6_8  and  N3_9 
REMARK    3  A    between atoms: N3_9  and  C7_10 
REMARK    4  A    between atoms: C14_19  and  O1_20 
REMARK    5  A    between atoms: O1_20  and  C15_21 
REMARK    6  A    between atoms: C15_21  and  C16_22 
REMARK    7  A    between atoms: C16_22  and  C17_23 
REMARK    8  A    between atoms: C20_28  and  O3_29 
ROOT
HETATM    1  C3  UNL     1      23.171   3.040  48.907  1.00  0.00     0.134 A 
HETATM    2  C4  UNL     1      22.575   1.938  49.698  1.00  0.00     0.043 A 
HETATM    3  N2  UNL     1      21.606   1.356  49.082  1.00  0.00    -0.304 NA
HETATM    4  C5  UNL     1      23.007   1.520  51.034  1.00  0.00     0.057 A 
HETATM    5  C6  UNL     1      24.016   2.184  51.584  1.00  0.00     0.036 A 
HETATM    6  C13 UNL     1      24.677   3.282  50.903  1.00  0.00     0.062 A 
HETATM    7  C14 UNL     1      24.293   3.668  49.692  1.00  0.00     0.063 A 
HETATM    8  H6  UNL     1      21.096   0.567  49.515  1.00  0.00     0.186 HD
ENDROOT
BRANCH   7   9
HETATM    9  O1  UNL     1      24.912   4.706  49.038  1.00  0.00    -0.354 OA
BRANCH   9  10
HETATM   10  C15 UNL     1      26.317   4.864  49.122  1.00  0.00     0.177 C 
BRANCH  10  11
HETATM   11  C16 UNL     1      26.717   6.306  48.896  1.00  0.00     0.058 C 
BRANCH  11  12
HETATM   12  C17 UNL     1      25.881   7.260  49.691  1.00  0.00     0.139 C 
HETATM   13  N4  UNL     1      26.654   8.041  50.605  1.00  0.00    -0.391 N 
HETATM   14  C18 UNL     1      27.273   9.202  50.022  1.00  0.00     0.292 C 
HETATM   15  H18 UNL     1      27.225   7.519  51.276  1.00  0.00     0.156 HD
HETATM   16  O2  UNL     1      26.183  10.058  49.642  1.00  0.00    -0.342 OA
HETATM   17  C19 UNL     1      25.334   9.512  48.659  1.00  0.00     0.170 C 
HETATM   18  C20 UNL     1      25.222   8.175  48.722  1.00  0.00     0.087 C 
BRANCH  18  19
HETATM   19  O3  UNL     1      24.392   7.542  47.775  1.00  0.00    -0.361 OA
HETATM   20  H22 UNL     1      23.462   7.248  48.038  1.00  0.00     0.217 HD
ENDBRANCH  18  19
ENDBRANCH  11  12
ENDBRANCH  10  11
ENDBRANCH   9  10
ENDBRANCH   7   9
BRANCH   1  21
HETATM   21  C2  UNL     1      22.094   4.002  48.614  1.00  0.00     0.263 C 
HETATM   22  N1  UNL     1      21.517   4.262  47.502  1.00  0.00    -0.427 NA
HETATM   23  C1  UNL     1      21.816   3.639  46.260  1.00  0.00     0.131 C 
ENDBRANCH   1  21
BRANCH   5  24
HETATM   24  N3  UNL     1      24.449   1.792  52.883  1.00  0.00    -0.356 N 
HETATM   25  H8  UNL     1      23.877   1.977  53.738  1.00  0.00     0.166 HD
BRANCH  24  26
HETATM   26  C7  UNL     1      25.686   1.136  53.016  1.00  0.00     0.034 A 
HETATM   27  C8  UNL     1      25.874  -0.155  52.591  1.00  0.00     0.032 A 
HETATM   28  C9  UNL     1      27.083  -0.814  52.715  1.00  0.00     0.046 A 
HETATM   29  C10 UNL     1      28.179  -0.167  53.292  1.00  0.00     0.138 A 
HETATM   30  F1  UNL     1      29.353  -0.834  53.402  1.00  0.00    -0.204 F 
HETATM   31  C11 UNL     1      27.998   1.145  53.727  1.00  0.00     0.074 A 
HETATM   32 CL1  UNL     1      29.367   1.955  54.449  1.00  0.00    -0.081 Cl
HETATM   33  C12 UNL     1      26.780   1.763  53.586  1.00  0.00     0.056 A 
ENDBRANCH  24  26
ENDBRANCH   5  24
TORSDOF 8
ENDMDL
MODEL 6
REMARK VINA RESULT:      -7.8      3.459      6.474
REMARK  8 active torsions:
REMARK  status: ('A' for Active; 'I' for Inactive)
REMARK    1  A    between atoms: C2_3  and  C3_4 
REMARK    2  A    between atoms: C6_8  and  N3_9 
REMARK    3  A    between atoms: N3_9  and  C7_10 
REMARK    4  A    between atoms: C14_19  and  O1_20 
REMARK    5  A    between atoms: O1_20  and  C15_21 
REMARK    6  A    between atoms: C15_21  and  C16_22 
REMARK    7  A    between atoms: C16_22  and  C17_23 
REMARK    8  A    between atoms: C20_28  and  O3_29 
ROOT
HETATM    1  C3  UNL     1      22.044   1.754  50.447  1.00  0.00     0.134 A 
HETATM    2  C4  UNL     1      21.621   0.676  51.372  1.00  0.00     0.043 A 
HETATM    3  N2  UNL     1      20.464   0.196  51.074  1.00  0.00    -0.304 NA
HETATM    4  C5  UNL     1      22.399   0.179  52.509  1.00  0.00     0.057 A 
HETATM    5  C6  UNL     1      23.581   0.739  52.733  1.00  0.00     0.036 A 
HETATM    6  C13 UNL     1      24.098   1.804  51.893  1.00  0.00     0.062 A 
HETATM    7  C14 UNL     1      23.402   2.262  50.860  1.00  0.00     0.063 A 
HETATM    8  H6  UNL     1      20.043  -0.564  51.635  1.00  0.00     0.186 HD
ENDROOT
BRANCH   7   9
HETATM    9  O1  UNL     1      23.882   3.269  50.058  1.00  0.00    -0.354 OA
BRANCH   9  10
HETATM   10  C15 UNL     1      25.220   3.235  49.596  1.00  0.00     0.177 C 
BRANCH  10  11
HETATM   11  C16 UNL     1      25.953   4.509  49.958  1.00  0.00     0.058 C 
BRANCH  11  12
HETATM   12  C17 UNL     1      25.415   5.703  49.233  1.00  0.00     0.139 C 
HETATM   13  N4  UNL     1      24.102   6.066  49.665  1.00  0.00    -0.391 N 
HETATM   14  C18 UNL     1      24.071   6.880  50.852  1.00  0.00     0.292 C 
HETATM   15  H18 UNL     1      23.387   5.336  49.604  1.00  0.00     0.156 HD
HETATM   16  O2  UNL     1      24.686   8.121  50.473  1.00  0.00    -0.342 OA
HETATM   17  C19 UNL     1      26.039   8.004  50.096  1.00  0.00     0.170 C 
HETATM   18  C20 UNL     1      26.338   6.834  49.509  1.00  0.00     0.087 C 
BRANCH  18  19
HETATM   19  O3  UNL     1      27.671   6.630  49.098  1.00  0.00    -0.361 OA
HETATM   20  H22 UNL     1      28.297   6.083  49.672  1.00  0.00     0.217 HD
ENDBRANCH  18  19
ENDBRANCH  11  12
ENDBRANCH  10  11
ENDBRANCH   9  10
ENDBRANCH   7   9
BRANCH   1  21
HETATM   21  C2  UNL     1      21.017   2.810  50.505  1.00  0.00     0.263 C 
HETATM   22  N1  UNL     1      20.176   3.173  49.613  1.00  0.00    -0.427 NA
HETATM   23  C1  UNL     1      20.057   2.600  48.317  1.00  0.00     0.131 C 
ENDBRANCH   1  21
BRANCH   5  24
HETATM   24  N3  UNL     1      24.351   0.268  53.835  1.00  0.00    -0.356 N 
HETATM   25  H8  UNL     1      23.942   0.158  54.790  1.00  0.00     0.166 HD
BRANCH  24  26
HETATM   26  C7  UNL     1      25.702  -0.059  53.627  1.00  0.00     0.034 A 
HETATM   27  C8  UNL     1      26.081  -1.185  52.941  1.00  0.00     0.032 A 
HETATM   28  C9  UNL     1      27.406  -1.520  52.729  1.00  0.00     0.046 A 
HETATM   29  C10 UNL     1      28.425  -0.700  53.219  1.00  0.00     0.138 A 
HETATM   30  F1  UNL     1      29.714  -1.050  52.998  1.00  0.00    -0.204 F 
HETATM   31  C11 UNL     1      28.050   0.447  53.917  1.00  0.00     0.074 A 
HETATM   32 CL1  UNL     1      29.323   1.474  54.531  1.00  0.00    -0.081 Cl
HETATM   33  C12 UNL     1      26.723   0.744  54.107  1.00  0.00     0.056 A 
ENDBRANCH  24  26
ENDBRANCH   5  24
TORSDOF 8
ENDMDL
MODEL 7
REMARK VINA RESULT:      -7.6      4.957      7.687
REMARK  8 active torsions:
REMARK  status: ('A' for Active; 'I' for Inactive)
REMARK    1  A    between atoms: C2_3  and  C3_4 
REMARK    2  A    between atoms: C6_8  and  N3_9 
REMARK    3  A    between atoms: N3_9  and  C7_10 
REMARK    4  A    between atoms: C14_19  and  O1_20 
REMARK    5  A    between atoms: O1_20  and  C15_21 
REMARK    6  A    between atoms: C15_21  and  C16_22 
REMARK    7  A    between atoms: C16_22  and  C17_23 
REMARK    8  A    between atoms: C20_28  and  O3_29 
ROOT
HETATM    1  C3  UNL     1      21.557   1.232  50.790  1.00  0.00     0.134 A 
HETATM    2  C4  UNL     1      20.146   0.808  50.641  1.00  0.00     0.043 A 
HETATM    3  N2  UNL     1      19.666   1.087  49.479  1.00  0.00    -0.304 NA
HETATM    4  C5  UNL     1      19.345   0.142  51.671  1.00  0.00     0.057 A 
HETATM    5  C6  UNL     1      19.930  -0.103  52.836  1.00  0.00     0.036 A 
HETATM    6  C13 UNL     1      21.310   0.268  53.097  1.00  0.00     0.062 A 
HETATM    7  C14 UNL     1      22.044   0.871  52.170  1.00  0.00     0.063 A 
HETATM    8  H6  UNL     1      18.691   0.848  49.234  1.00  0.00     0.186 HD
ENDROOT
BRANCH   7   9
HETATM    9  O1  UNL     1      23.350   1.226  52.406  1.00  0.00    -0.354 OA
BRANCH   9  10
HETATM   10  C15 UNL     1      24.253   0.289  52.963  1.00  0.00     0.177 C 
BRANCH  10  11
HETATM   11  C16 UNL     1      25.686   0.661  52.650  1.00  0.00     0.058 C 
BRANCH  11  12
HETATM   12  C17 UNL     1      26.278   1.570  53.682  1.00  0.00     0.139 C 
HETATM   13  N4  UNL     1      26.585   0.893  54.902  1.00  0.00    -0.391 N 
HETATM   14  C18 UNL     1      27.852   0.209  54.901  1.00  0.00     0.292 C 
HETATM   15  H18 UNL     1      25.811   0.398  55.353  1.00  0.00     0.156 HD
HETATM   16  O2  UNL     1      28.840   1.248  54.801  1.00  0.00    -0.342 OA
HETATM   17  C19 UNL     1      28.777   1.993  53.607  1.00  0.00     0.170 C 
HETATM   18  C20 UNL     1      27.536   2.119  53.111  1.00  0.00     0.087 C 
BRANCH  18  19
HETATM   19  O3  UNL     1      27.379   2.849  51.916  1.00  0.00    -0.361 OA
HETATM   20  H22 UNL     1      26.466   2.930  51.491  1.00  0.00     0.217 HD
ENDBRANCH  18  19
ENDBRANCH  11  12
ENDBRANCH  10  11
ENDBRANCH   9  10
ENDBRANCH   7   9
BRANCH   1  21
HETATM   21  C2  UNL     1      21.608   2.684  50.547  1.00  0.00     0.263 C 
HETATM   22  N1  UNL     1      22.110   3.325  49.561  1.00  0.00    -0.427 NA
HETATM   23  C1  UNL     1      22.755   2.732  48.442  1.00  0.00     0.131 C 
ENDBRANCH   1  21
BRANCH   5  24
HETATM   24  N3  UNL     1      19.167  -0.750  53.850  1.00  0.00    -0.356 N 
HETATM   25  H8  UNL     1      19.395  -0.649  54.865  1.00  0.00     0.166 HD
BRANCH  24  26
HETATM   26  C7  UNL     1      18.072  -1.546  53.470  1.00  0.00     0.034 A 
HETATM   27  C8  UNL     1      18.022  -2.891  53.738  1.00  0.00     0.032 A 
HETATM   28  C9  UNL     1      16.953  -3.687  53.371  1.00  0.00     0.046 A 
HETATM   29  C10 UNL     1      15.863  -3.131  52.698  1.00  0.00     0.138 A 
HETATM   30  F1  UNL     1      14.828  -3.932  52.349  1.00  0.00    -0.204 F 
HETATM   31  C11 UNL     1      15.903  -1.766  52.420  1.00  0.00     0.074 A 
HETATM   32 CL1  UNL     1      14.541  -1.069  51.578  1.00  0.00    -0.081 Cl
HETATM   33  C12 UNL     1      16.985  -1.010  52.802  1.00  0.00     0.056 A 
ENDBRANCH  24  26
ENDBRANCH   5  24
TORSDOF 8
ENDMDL
MODEL 8
REMARK VINA RESULT:      -7.6      1.390      1.642
REMARK  8 active torsions:
REMARK  status: ('A' for Active; 'I' for Inactive)
REMARK    1  A    between atoms: C2_3  and  C3_4 
REMARK    2  A    between atoms: C6_8  and  N3_9 
REMARK    3  A    between atoms: N3_9  and  C7_10 
REMARK    4  A    between atoms: C14_19  and  O1_20 
REMARK    5  A    between atoms: O1_20  and  C15_21 
REMARK    6  A    between atoms: C15_21  and  C16_22 
REMARK    7  A    between atoms: C16_22  and  C17_23 
REMARK    8  A    between atoms: C20_28  and  O3_29 
ROOT
HETATM    1  C3  UNL     1      22.073   2.773  52.256  1.00  0.00     0.134 A 
HETATM    2  C4  UNL     1      21.457   4.066  51.877  1.00  0.00     0.043 A 
HETATM    3  N2  UNL     1      20.190   3.966  51.665  1.00  0.00    -0.304 NA
HETATM    4  C5  UNL     1      22.167   5.341  51.747  1.00  0.00     0.057 A 
HETATM    5  C6  UNL     1      23.472   5.340  51.987  1.00  0.00     0.036 A 
HETATM    6  C13 UNL     1      24.183   4.132  52.366  1.00  0.00     0.062 A 
HETATM    7  C14 UNL     1      23.549   2.973  52.486  1.00  0.00     0.063 A 
HETATM    8  H6  UNL     1      19.629   4.791  51.393  1.00  0.00     0.186 HD
ENDROOT
BRANCH   7   9
HETATM    9  O1  UNL     1      24.212   1.824  52.844  1.00  0.00    -0.354 OA
BRANCH   9  10
HETATM   10  C15 UNL     1      25.127   1.221  51.946  1.00  0.00     0.177 C 
BRANCH  10  11
HETATM   11  C16 UNL     1      26.529   1.750  52.160  1.00  0.00     0.058 C 
BRANCH  11  12
HETATM   12  C17 UNL     1      26.889   1.839  53.611  1.00  0.00     0.139 C 
HETATM   13  N4  UNL     1      26.366   0.752  54.377  1.00  0.00    -0.391 N 
HETATM   14  C18 UNL     1      27.168  -0.443  54.338  1.00  0.00     0.292 C 
HETATM   15  H18 UNL     1      25.353   0.612  54.332  1.00  0.00     0.156 HD
HETATM   16  O2  UNL     1      28.397  -0.092  54.995  1.00  0.00    -0.342 OA
HETATM   17  C19 UNL     1      29.135   0.914  54.340  1.00  0.00     0.170 C 
HETATM   18  C20 UNL     1      28.373   1.811  53.694  1.00  0.00     0.087 C 
BRANCH  18  19
HETATM   19  O3  UNL     1      29.027   2.856  53.011  1.00  0.00    -0.361 OA
HETATM   20  H22 UNL     1      29.116   2.821  52.005  1.00  0.00     0.217 HD
ENDBRANCH  18  19
ENDBRANCH  11  12
ENDBRANCH  10  11
ENDBRANCH   9  10
ENDBRANCH   7   9
BRANCH   1  21
HETATM   21  C2  UNL     1      21.807   1.823  51.161  1.00  0.00     0.263 C 
HETATM   22  N1  UNL     1      21.205   0.695  51.194  1.00  0.00    -0.427 NA
HETATM   23  C1  UNL     1      20.641   0.101  52.356  1.00  0.00     0.131 C 
ENDBRANCH   1  21
BRANCH   5  24
HETATM   24  N3  UNL     1      24.179   6.570  51.866  1.00  0.00    -0.356 N 
HETATM   25  H8  UNL     1      24.377   7.180  52.691  1.00  0.00     0.166 HD
BRANCH  24  26
HETATM   26  C7  UNL     1      24.623   6.974  50.594  1.00  0.00     0.034 A 
HETATM   27  C8  UNL     1      25.564   6.264  49.892  1.00  0.00     0.032 A 
HETATM   28  C9  UNL     1      26.011   6.649  48.641  1.00  0.00     0.046 A 
HETATM   29  C10 UNL     1      25.503   7.802  48.039  1.00  0.00     0.138 A 
HETATM   30  F1  UNL     1      25.957   8.158  46.814  1.00  0.00    -0.204 F 
HETATM   31  C11 UNL     1      24.546   8.531  48.744  1.00  0.00     0.074 A 
HETATM   32 CL1  UNL     1      23.911   9.974  47.992  1.00  0.00    -0.081 Cl
HETATM   33  C12 UNL     1      24.130   8.115  49.985  1.00  0.00     0.056 A 
ENDBRANCH  24  26
ENDBRANCH   5  24
TORSDOF 8
ENDMDL
MODEL 9
REMARK VINA RESULT:      -7.5      1.762      2.108
REMARK  8 active torsions:
REMARK  status: ('A' for Active; 'I' for Inactive)
REMARK    1  A    between atoms: C2_3  and  C3_4 
REMARK    2  A    between atoms: C6_8  and  N3_9 
REMARK    3  A    between atoms: N3_9  and  C7_10 
REMARK    4  A    between atoms: C14_19  and  O1_20 
REMARK    5  A    between atoms: O1_20  and  C15_21 
REMARK    6  A    between atoms: C15_21  and  C16_22 
REMARK    7  A    between atoms: C16_22  and  C17_23 
REMARK    8  A    between atoms: C20_28  and  O3_29 
ROOT
HETATM    1  C3  UNL     1      21.895   1.345  52.963  1.00  0.00     0.134 A 
HETATM    2  C4  UNL     1      20.959   2.174  52.168  1.00  0.00     0.043 A 
HETATM    3  N2  UNL     1      19.725   1.907  52.422  1.00  0.00    -0.304 NA
HETATM    4  C5  UNL     1      21.347   3.196  51.192  1.00  0.00     0.057 A 
HETATM    5  C6  UNL     1      22.645   3.397  51.002  1.00  0.00     0.036 A 
HETATM    6  C13 UNL     1      23.654   2.643  51.725  1.00  0.00     0.062 A 
HETATM    7  C14 UNL     1      23.313   1.716  52.610  1.00  0.00     0.063 A 
HETATM    8  H6  UNL     1      18.962   2.410  51.940  1.00  0.00     0.186 HD
ENDROOT
BRANCH   7   9
HETATM    9  O1  UNL     1      24.259   0.997  53.299  1.00  0.00    -0.354 OA
BRANCH   9  10
HETATM   10  C15 UNL     1      24.884  -0.122  52.695  1.00  0.00     0.177 C 
BRANCH  10  11
HETATM   11  C16 UNL     1      26.391  -0.015  52.779  1.00  0.00     0.058 C 
BRANCH  11  12
HETATM   12  C17 UNL     1      26.843   0.707  54.010  1.00  0.00     0.139 C 
HETATM   13  N4  UNL     1      27.737  -0.071  54.809  1.00  0.00    -0.391 N 
HETATM   14  C18 UNL     1      29.111  -0.026  54.382  1.00  0.00     0.292 C 
HETATM   15  H18 UNL     1      27.393  -0.986  55.113  1.00  0.00     0.156 HD
HETATM   16  O2  UNL     1      29.525   1.334  54.590  1.00  0.00    -0.342 OA
HETATM   17  C19 UNL     1      28.825   2.277  53.812  1.00  0.00     0.170 C 
HETATM   18  C20 UNL     1      27.551   1.935  53.561  1.00  0.00     0.087 C 
BRANCH  18  19
HETATM   19  O3  UNL     1      26.775   2.821  52.788  1.00  0.00    -0.361 OA
HETATM   20  H22 UNL     1      26.103   3.425  53.239  1.00  0.00     0.217 HD
ENDBRANCH  18  19
ENDBRANCH  11  12
ENDBRANCH  10  11
ENDBRANCH   9  10
ENDBRANCH   7   9
BRANCH   1  21
HETATM   21  C2  UNL     1      21.600  -0.066  52.657  1.00  0.00     0.263 C 
HETATM   22  N1  UNL     1      21.500  -1.065  53.450  1.00  0.00    -0.427 NA
HETATM   23  C1  UNL     1      21.663  -1.009  54.861  1.00  0.00     0.131 C 
ENDBRANCH   1  21
BRANCH   5  24
HETATM   24  N3  UNL     1      23.041   4.386  50.057  1.00  0.00    -0.356 N 
HETATM   25  H8  UNL     1      22.359   5.060  49.641  1.00  0.00     0.166 HD
BRANCH  24  26
HETATM   26  C7  UNL     1      24.392   4.457  49.675  1.00  0.00     0.034 A 
HETATM   27  C8  UNL     1      25.197   3.347  49.638  1.00  0.00     0.032 A 
HETATM   28  C9  UNL     1      26.527   3.401  49.265  1.00  0.00     0.046 A 
HETATM   29  C10 UNL     1      27.106   4.620  48.904  1.00  0.00     0.138 A 
HETATM   30  F1  UNL     1      28.411   4.646  48.543  1.00  0.00    -0.204 F 
HETATM   31  C11 UNL     1      26.297   5.754  48.939  1.00  0.00     0.074 A 
HETATM   32 CL1  UNL     1      27.020   7.279  48.489  1.00  0.00    -0.081 Cl
HETATM   33  C12 UNL     1      24.980   5.658  49.316  1.00  0.00     0.056 A 
ENDBRANCH  24  26
ENDBRANCH   5  24
TORSDOF 8
ENDMDL
