MODEL 1
REMARK VINA RESULT:      -7.3      0.000      0.000
REMARK  2 active torsions:
REMARK  status: ('A' for Active; 'I' for Inactive)
REMARK    1  A    between atoms: C10_12  and  N2_13 
REMARK    2  A    between atoms: N2_13  and  C11_14 
ROOT
HETATM    1  C1  UNL     1      20.401   1.618  50.851  1.00  0.00     0.150 C 
HETATM    2  N1  UNL     1      21.723   1.971  51.407  1.00  0.00    -0.383 N 
HETATM    3  C2  UNL     1      22.926   1.611  52.196  1.00  0.00     0.157 C 
HETATM    4  C3  UNL     1      23.785   2.845  52.037  1.00  0.00     0.064 C 
HETATM    5  C4  UNL     1      24.533   2.888  53.403  1.00  0.00     0.044 C 
HETATM    6  C5  UNL     1      22.761   3.948  52.206  1.00  0.00     0.034 C 
HETATM    7  C6  UNL     1      22.290   3.291  51.123  1.00  0.00     0.028 C 
HETATM    8  C7  UNL     1      22.309   3.720  49.653  1.00  0.00     0.028 C 
HETATM    9  C8  UNL     1      23.516   3.973  49.061  1.00  0.00     0.011 C 
HETATM   10  C9  UNL     1      24.582   3.074  49.670  1.00  0.00     0.172 C 
HETATM   11  S1  UNL     1      26.221   3.821  49.594  1.00  0.00    -0.094 SA
HETATM   12  C10 UNL     1      25.997   2.623  50.988  1.00  0.00     0.248 C 
HETATM   13  N3  UNL     1      24.660   3.068  51.054  1.00  0.00    -0.354 N 
ENDROOT
BRANCH  12  14
HETATM   14  N2  UNL     1      26.981   2.950  51.960  1.00  0.00    -0.360 N 
HETATM   15  H14 UNL     1      27.433   3.792  52.372  1.00  0.00     0.162 HD
BRANCH  14  16
HETATM   16  C11 UNL     1      27.555   1.782  52.587  1.00  0.00     0.030 A 
HETATM   17  C12 UNL     1      28.586   1.807  53.515  1.00  0.00     0.029 A 
HETATM   18  C13 UNL     1      29.169   0.753  54.154  1.00  0.00     0.002 A 
HETATM   19  C14 UNL     1      28.677  -0.495  53.842  1.00  0.00     0.000 A 
HETATM   20  C15 UNL     1      27.659  -0.644  52.938  1.00  0.00     0.002 A 
HETATM   21  C16 UNL     1      27.139   0.468  52.350  1.00  0.00     0.029 A 
ENDBRANCH  14  16
ENDBRANCH  12  14
TORSDOF 2
ENDMDL
MODEL 2
REMARK VINA RESULT:      -7.1      2.598      4.693
REMARK  2 active torsions:
REMARK  status: ('A' for Active; 'I' for Inactive)
REMARK    1  A    between atoms: C10_12  and  N2_13 
REMARK    2  A    between atoms: N2_13  and  C11_14 
ROOT
HETATM    1  C1  UNL     1      20.246   2.927  52.680  1.00  0.00     0.150 C 
HETATM    2  N1  UNL     1      21.355   2.967  51.706  1.00  0.00    -0.383 N 
HETATM    3  C2  UNL     1      22.160   3.702  50.700  1.00  0.00     0.157 C 
HETATM    4  C3  UNL     1      23.216   2.681  50.338  1.00  0.00     0.064 C 
HETATM    5  C4  UNL     1      23.476   3.014  48.839  1.00  0.00     0.044 C 
HETATM    6  C5  UNL     1      22.389   1.417  50.239  1.00  0.00     0.034 C 
HETATM    7  C6  UNL     1      22.193   1.779  51.526  1.00  0.00     0.028 C 
HETATM    8  C7  UNL     1      22.760   1.148  52.802  1.00  0.00     0.028 C 
HETATM    9  C8  UNL     1      24.117   1.085  52.953  1.00  0.00     0.011 C 
HETATM   10  C9  UNL     1      24.764   2.280  52.270  1.00  0.00     0.172 C 
HETATM   11  S1  UNL     1      26.439   1.917  51.710  1.00  0.00    -0.094 SA
HETATM   12  C10 UNL     1      25.580   3.231  50.729  1.00  0.00     0.248 C 
HETATM   13  N3  UNL     1      24.386   2.513  50.957  1.00  0.00    -0.354 N 
ENDROOT
BRANCH  12  14
HETATM   14  N2  UNL     1      26.234   3.283  49.468  1.00  0.00    -0.360 N 
HETATM   15  H14 UNL     1      26.499   2.645  48.691  1.00  0.00     0.162 HD
BRANCH  14  16
HETATM   16  C11 UNL     1      26.689   4.612  49.132  1.00  0.00     0.030 A 
HETATM   17  C12 UNL     1      27.918   4.906  48.554  1.00  0.00     0.029 A 
HETATM   18  C13 UNL     1      28.409   6.127  48.200  1.00  0.00     0.002 A 
HETATM   19  C14 UNL     1      27.590   7.207  48.444  1.00  0.00     0.000 A 
HETATM   20  C15 UNL     1      26.355   7.040  49.011  1.00  0.00     0.002 A 
HETATM   21  C16 UNL     1      25.948   5.780  49.332  1.00  0.00     0.029 A 
ENDBRANCH  14  16
ENDBRANCH  12  14
TORSDOF 2
ENDMDL
MODEL 3
REMARK VINA RESULT:      -6.9      1.877      2.832
REMARK  2 active torsions:
REMARK  status: ('A' for Active; 'I' for Inactive)
REMARK    1  A    between atoms: C10_12  and  N2_13 
REMARK    2  A    between atoms: N2_13  and  C11_14 
ROOT
HETATM    1  C1  UNL     1      21.778   6.099  51.134  1.00  0.00     0.150 C 
HETATM    2  N1  UNL     1      22.791   5.031  51.026  1.00  0.00    -0.383 N 
HETATM    3  C2  UNL     1      24.200   4.577  51.125  1.00  0.00     0.157 C 
HETATM    4  C3  UNL     1      24.073   3.098  50.837  1.00  0.00     0.064 C 
HETATM    5  C4  UNL     1      25.422   2.801  50.116  1.00  0.00     0.044 C 
HETATM    6  C5  UNL     1      23.094   3.101  49.682  1.00  0.00     0.034 C 
HETATM    7  C6  UNL     1      22.368   3.676  50.666  1.00  0.00     0.028 C 
HETATM    8  C7  UNL     1      21.206   3.090  51.473  1.00  0.00     0.028 C 
HETATM    9  C8  UNL     1      21.422   1.953  52.202  1.00  0.00     0.011 C 
HETATM   10  C9  UNL     1      22.861   1.930  52.696  1.00  0.00     0.172 C 
HETATM   11  S1  UNL     1      23.471   0.249  52.928  1.00  0.00    -0.094 SA
HETATM   12  C10 UNL     1      24.792   1.489  52.551  1.00  0.00     0.248 C 
HETATM   13  N3  UNL     1      23.841   2.142  51.739  1.00  0.00    -0.354 N 
ENDROOT
BRANCH  12  14
HETATM   14  N2  UNL     1      25.894   0.757  52.033  1.00  0.00    -0.360 N 
HETATM   15  H14 UNL     1      26.117   0.127  51.235  1.00  0.00     0.162 HD
BRANCH  14  16
HETATM   16  C11 UNL     1      27.086   0.902  52.836  1.00  0.00     0.030 A 
HETATM   17  C12 UNL     1      27.735   2.104  53.081  1.00  0.00     0.029 A 
HETATM   18  C13 UNL     1      28.852   2.319  53.833  1.00  0.00     0.002 A 
HETATM   19  C14 UNL     1      29.410   1.208  54.424  1.00  0.00     0.000 A 
HETATM   20  C15 UNL     1      28.857  -0.033  54.253  1.00  0.00     0.002 A 
HETATM   21  C16 UNL     1      27.740  -0.151  53.484  1.00  0.00     0.029 A 
ENDBRANCH  14  16
ENDBRANCH  12  14
TORSDOF 2
ENDMDL
MODEL 4
REMARK VINA RESULT:      -6.8      2.529      6.230
REMARK  2 active torsions:
REMARK  status: ('A' for Active; 'I' for Inactive)
REMARK    1  A    between atoms: C10_12  and  N2_13 
REMARK    2  A    between atoms: N2_13  and  C11_14 
ROOT
HETATM    1  C1  UNL     1      28.443  -1.058  53.316  1.00  0.00     0.150 C 
HETATM    2  N1  UNL     1      27.381  -0.089  52.976  1.00  0.00    -0.383 N 
HETATM    3  C2  UNL     1      26.683   0.760  51.981  1.00  0.00     0.157 C 
HETATM    4  C3  UNL     1      25.559   1.347  52.804  1.00  0.00     0.064 C 
HETATM    5  C4  UNL     1      25.389   2.750  52.149  1.00  0.00     0.044 C 
HETATM    6  C5  UNL     1      26.277   1.688  54.092  1.00  0.00     0.034 C 
HETATM    7  C6  UNL     1      26.452   0.350  54.020  1.00  0.00     0.028 C 
HETATM    8  C7  UNL     1      25.783  -0.755  54.843  1.00  0.00     0.028 C 
HETATM    9  C8  UNL     1      24.420  -0.861  54.811  1.00  0.00     0.011 C 
HETATM   10  C9  UNL     1      23.906  -0.426  53.446  1.00  0.00     0.172 C 
HETATM   11  S1  UNL     1      22.230   0.232  53.532  1.00  0.00    -0.094 SA
HETATM   12  C10 UNL     1      23.237   0.902  52.130  1.00  0.00     0.248 C 
HETATM   13  N3  UNL     1      24.355   0.802  52.986  1.00  0.00    -0.354 N 
ENDROOT
BRANCH  12  14
HETATM   14  N2  UNL     1      22.641   2.137  51.761  1.00  0.00    -0.360 N 
HETATM   15  H14 UNL     1      22.263   2.996  52.212  1.00  0.00     0.162 HD
BRANCH  14  16
HETATM   16  C11 UNL     1      22.491   2.279  50.331  1.00  0.00     0.030 A 
HETATM   17  C12 UNL     1      22.934   3.369  49.593  1.00  0.00     0.029 A 
HETATM   18  C13 UNL     1      22.839   3.567  48.248  1.00  0.00     0.002 A 
HETATM   19  C14 UNL     1      22.228   2.565  47.527  1.00  0.00     0.000 A 
HETATM   20  C15 UNL     1      21.750   1.443  48.148  1.00  0.00     0.002 A 
HETATM   21  C16 UNL     1      21.890   1.332  49.498  1.00  0.00     0.029 A 
ENDBRANCH  14  16
ENDBRANCH  12  14
TORSDOF 2
ENDMDL
MODEL 5
REMARK VINA RESULT:      -6.7      2.813      4.297
REMARK  2 active torsions:
REMARK  status: ('A' for Active; 'I' for Inactive)
REMARK    1  A    between atoms: C10_12  and  N2_13 
REMARK    2  A    between atoms: N2_13  and  C11_14 
ROOT
HETATM    1  C1  UNL     1      23.444   6.590  47.494  1.00  0.00     0.150 C 
HETATM    2  N1  UNL     1      23.507   5.903  48.799  1.00  0.00    -0.383 N 
HETATM    3  C2  UNL     1      22.869   5.073  49.850  1.00  0.00     0.157 C 
HETATM    4  C3  UNL     1      24.002   4.889  50.835  1.00  0.00     0.064 C 
HETATM    5  C4  UNL     1      23.236   4.828  52.189  1.00  0.00     0.044 C 
HETATM    6  C5  UNL     1      24.595   6.281  50.872  1.00  0.00     0.034 C 
HETATM    7  C6  UNL     1      24.751   5.946  49.572  1.00  0.00     0.028 C 
HETATM    8  C7  UNL     1      26.031   5.567  48.821  1.00  0.00     0.028 C 
HETATM    9  C8  UNL     1      26.751   4.490  49.258  1.00  0.00     0.011 C 
HETATM   10  C9  UNL     1      25.809   3.453  49.853  1.00  0.00     0.172 C 
HETATM   11  S1  UNL     1      26.616   2.452  51.116  1.00  0.00    -0.094 SA
HETATM   12  C10 UNL     1      24.784   2.612  51.332  1.00  0.00     0.248 C 
HETATM   13  N3  UNL     1      24.914   3.915  50.805  1.00  0.00    -0.354 N 
ENDROOT
BRANCH  12  14
HETATM   14  N2  UNL     1      24.516   2.343  52.701  1.00  0.00    -0.360 N 
HETATM   15  H14 UNL     1      24.805   2.680  53.642  1.00  0.00     0.162 HD
BRANCH  14  16
HETATM   16  C11 UNL     1      23.557   1.278  52.882  1.00  0.00     0.030 A 
HETATM   17  C12 UNL     1      23.738   0.183  53.717  1.00  0.00     0.029 A 
HETATM   18  C13 UNL     1      22.878  -0.850  53.946  1.00  0.00     0.002 A 
HETATM   19  C14 UNL     1      21.682  -0.808  53.267  1.00  0.00     0.000 A 
HETATM   20  C15 UNL     1      21.392   0.223  52.413  1.00  0.00     0.002 A 
HETATM   21  C16 UNL     1      22.313   1.212  52.248  1.00  0.00     0.029 A 
ENDBRANCH  14  16
ENDBRANCH  12  14
TORSDOF 2
ENDMDL
MODEL 6
REMARK VINA RESULT:      -6.6      2.113      2.788
REMARK  2 active torsions:
REMARK  status: ('A' for Active; 'I' for Inactive)
REMARK    1  A    between atoms: C10_12  and  N2_13 
REMARK    2  A    between atoms: N2_13  and  C11_14 
ROOT
HETATM    1  C1  UNL     1      20.485   6.383  49.324  1.00  0.00     0.150 C 
HETATM    2  N1  UNL     1      21.530   5.817  50.201  1.00  0.00    -0.383 N 
HETATM    3  C2  UNL     1      21.960   4.827  51.218  1.00  0.00     0.157 C 
HETATM    4  C3  UNL     1      23.430   5.149  51.367  1.00  0.00     0.064 C 
HETATM    5  C4  UNL     1      23.676   4.817  52.868  1.00  0.00     0.044 C 
HETATM    6  C5  UNL     1      23.405   6.663  51.381  1.00  0.00     0.034 C 
HETATM    7  C6  UNL     1      22.879   6.386  50.168  1.00  0.00     0.028 C 
HETATM    8  C7  UNL     1      23.515   6.545  48.783  1.00  0.00     0.028 C 
HETATM    9  C8  UNL     1      24.672   5.869  48.513  1.00  0.00     0.011 C 
HETATM   10  C9  UNL     1      24.687   4.554  49.279  1.00  0.00     0.172 C 
HETATM   11  S1  UNL     1      26.363   4.004  49.651  1.00  0.00    -0.094 SA
HETATM   12  C10 UNL     1      25.085   3.406  50.850  1.00  0.00     0.248 C 
HETATM   13  N3  UNL     1      24.422   4.634  50.637  1.00  0.00    -0.354 N 
ENDROOT
BRANCH  12  14
HETATM   14  N2  UNL     1      25.778   3.088  52.049  1.00  0.00    -0.360 N 
HETATM   15  H14 UNL     1      26.332   3.564  52.790  1.00  0.00     0.162 HD
BRANCH  14  16
HETATM   16  C11 UNL     1      25.724   1.680  52.366  1.00  0.00     0.030 A 
HETATM   17  C12 UNL     1      26.679   0.745  51.989  1.00  0.00     0.029 A 
HETATM   18  C13 UNL     1      26.701  -0.591  52.259  1.00  0.00     0.002 A 
HETATM   19  C14 UNL     1      25.647  -1.079  52.998  1.00  0.00     0.000 A 
HETATM   20  C15 UNL     1      24.644  -0.251  53.426  1.00  0.00     0.002 A 
HETATM   21  C16 UNL     1      24.707   1.071  53.108  1.00  0.00     0.029 A 
ENDBRANCH  14  16
ENDBRANCH  12  14
TORSDOF 2
ENDMDL
MODEL 7
REMARK VINA RESULT:      -6.6      3.200      5.447
REMARK  2 active torsions:
REMARK  status: ('A' for Active; 'I' for Inactive)
REMARK    1  A    between atoms: C10_12  and  N2_13 
REMARK    2  A    between atoms: N2_13  and  C11_14 
ROOT
HETATM    1  C1  UNL     1      25.869   8.433  46.604  1.00  0.00     0.150 C 
HETATM    2  N1  UNL     1      25.458   7.765  47.855  1.00  0.00    -0.383 N 
HETATM    3  C2  UNL     1      24.393   7.249  48.750  1.00  0.00     0.157 C 
HETATM    4  C3  UNL     1      25.199   6.619  49.864  1.00  0.00     0.064 C 
HETATM    5  C4  UNL     1      24.275   6.857  51.095  1.00  0.00     0.044 C 
HETATM    6  C5  UNL     1      26.279   7.659  50.077  1.00  0.00     0.034 C 
HETATM    7  C6  UNL     1      26.485   7.302  48.791  1.00  0.00     0.028 C 
HETATM    8  C7  UNL     1      27.611   6.451  48.196  1.00  0.00     0.028 C 
HETATM    9  C8  UNL     1      27.775   5.172  48.650  1.00  0.00     0.011 C 
HETATM   10  C9  UNL     1      26.423   4.591  49.040  1.00  0.00     0.172 C 
HETATM   11  S1  UNL     1      26.569   3.339  50.328  1.00  0.00    -0.094 SA
HETATM   12  C10 UNL     1      24.938   4.215  50.304  1.00  0.00     0.248 C 
HETATM   13  N3  UNL     1      25.648   5.363  49.891  1.00  0.00    -0.354 N 
ENDROOT
BRANCH  12  14
HETATM   14  N2  UNL     1      24.382   4.063  51.602  1.00  0.00    -0.360 N 
HETATM   15  H14 UNL     1      24.361   4.562  52.515  1.00  0.00     0.162 HD
BRANCH  14  16
HETATM   16  C11 UNL     1      23.603   2.853  51.736  1.00  0.00     0.030 A 
HETATM   17  C12 UNL     1      23.583   2.045  52.865  1.00  0.00     0.029 A 
HETATM   18  C13 UNL     1      22.869   0.902  53.068  1.00  0.00     0.002 A 
HETATM   19  C14 UNL     1      22.068   0.492  52.025  1.00  0.00     0.000 A 
HETATM   20  C15 UNL     1      22.007   1.209  50.861  1.00  0.00     0.002 A 
HETATM   21  C16 UNL     1      22.756   2.340  50.749  1.00  0.00     0.029 A 
ENDBRANCH  14  16
ENDBRANCH  12  14
TORSDOF 2
ENDMDL
MODEL 8
REMARK VINA RESULT:      -6.5      2.637      4.232
REMARK  2 active torsions:
REMARK  status: ('A' for Active; 'I' for Inactive)
REMARK    1  A    between atoms: C10_12  and  N2_13 
REMARK    2  A    between atoms: N2_13  and  C11_14 
ROOT
HETATM    1  C1  UNL     1      25.154   8.377  50.094  1.00  0.00     0.150 C 
HETATM    2  N1  UNL     1      24.864   6.930  50.042  1.00  0.00    -0.383 N 
HETATM    3  C2  UNL     1      25.302   5.522  50.204  1.00  0.00     0.157 C 
HETATM    4  C3  UNL     1      24.022   4.763  49.932  1.00  0.00     0.064 C 
HETATM    5  C4  UNL     1      24.562   3.461  49.270  1.00  0.00     0.044 C 
HETATM    6  C5  UNL     1      23.474   5.517  48.739  1.00  0.00     0.034 C 
HETATM    7  C6  UNL     1      23.516   6.482  49.684  1.00  0.00     0.028 C 
HETATM    8  C7  UNL     1      22.359   7.128  50.453  1.00  0.00     0.028 C 
HETATM    9  C8  UNL     1      21.546   6.327  51.206  1.00  0.00     0.011 C 
HETATM   10  C9  UNL     1      22.348   5.158  51.758  1.00  0.00     0.172 C 
HETATM   11  S1  UNL     1      21.321   3.704  52.038  1.00  0.00    -0.094 SA
HETATM   12  C10 UNL     1      23.100   3.321  51.697  1.00  0.00     0.248 C 
HETATM   13  N3  UNL     1      23.096   4.440  50.838  1.00  0.00    -0.354 N 
ENDROOT
BRANCH  12  14
HETATM   14  N2  UNL     1      23.140   1.978  51.234  1.00  0.00    -0.360 N 
HETATM   15  H14 UNL     1      22.744   1.396  50.467  1.00  0.00     0.162 HD
BRANCH  14  16
HETATM   16  C11 UNL     1      23.970   1.130  52.058  1.00  0.00     0.030 A 
HETATM   17  C12 UNL     1      25.351   1.036  51.958  1.00  0.00     0.029 A 
HETATM   18  C13 UNL     1      26.197   0.270  52.704  1.00  0.00     0.002 A 
HETATM   19  C14 UNL     1      25.614  -0.510  53.677  1.00  0.00     0.000 A 
HETATM   20  C15 UNL     1      24.259  -0.501  53.867  1.00  0.00     0.002 A 
HETATM   21  C16 UNL     1      23.492   0.297  53.074  1.00  0.00     0.029 A 
ENDBRANCH  14  16
ENDBRANCH  12  14
TORSDOF 2
ENDMDL
MODEL 9
REMARK VINA RESULT:      -6.4      2.978      4.699
REMARK  2 active torsions:
REMARK  status: ('A' for Active; 'I' for Inactive)
REMARK    1  A    between atoms: C10_12  and  N2_13 
REMARK    2  A    between atoms: N2_13  and  C11_14 
ROOT
HETATM    1  C1  UNL     1      23.896   7.711  50.736  1.00  0.00     0.150 C 
HETATM    2  N1  UNL     1      24.040   6.260  50.967  1.00  0.00    -0.383 N 
HETATM    3  C2  UNL     1      24.023   5.093  51.883  1.00  0.00     0.157 C 
HETATM    4  C3  UNL     1      24.257   3.943  50.929  1.00  0.00     0.064 C 
HETATM    5  C4  UNL     1      25.059   2.950  51.822  1.00  0.00     0.044 C 
HETATM    6  C5  UNL     1      25.342   4.509  50.037  1.00  0.00     0.034 C 
HETATM    7  C6  UNL     1      24.329   5.379  49.832  1.00  0.00     0.028 C 
HETATM    8  C7  UNL     1      23.426   5.536  48.605  1.00  0.00     0.028 C 
HETATM    9  C8  UNL     1      22.679   4.464  48.201  1.00  0.00     0.011 C 
HETATM   10  C9  UNL     1      22.284   3.631  49.412  1.00  0.00     0.172 C 
HETATM   11  S1  UNL     1      22.042   1.895  48.991  1.00  0.00    -0.094 SA
HETATM   12  C10 UNL     1      22.547   2.186  50.748  1.00  0.00     0.248 C 
HETATM   13  N3  UNL     1      23.312   3.270  50.268  1.00  0.00    -0.354 N 
ENDROOT
BRANCH  12  14
HETATM   14  N2  UNL     1      23.116   0.969  51.209  1.00  0.00    -0.360 N 
HETATM   15  H14 UNL     1      23.861   0.294  50.939  1.00  0.00     0.162 HD
BRANCH  14  16
HETATM   16  C11 UNL     1      22.493   0.485  52.419  1.00  0.00     0.030 A 
HETATM   17  C12 UNL     1      21.284   0.945  52.926  1.00  0.00     0.029 A 
HETATM   18  C13 UNL     1      20.632   0.531  54.050  1.00  0.00     0.002 A 
HETATM   19  C14 UNL     1      21.245  -0.466  54.776  1.00  0.00     0.000 A 
HETATM   20  C15 UNL     1      22.441  -0.997  54.374  1.00  0.00     0.002 A 
HETATM   21  C16 UNL     1      23.018  -0.520  53.236  1.00  0.00     0.029 A 
ENDBRANCH  14  16
ENDBRANCH  12  14
TORSDOF 2
ENDMDL
