MODEL 1
REMARK VINA RESULT:      -8.6      0.000      0.000
REMARK  5 active torsions:
REMARK  status: ('A' for Active; 'I' for Inactive)
REMARK    1  A    between atoms: C2_2  and  C3_3 
REMARK    2  A    between atoms: N1_12  and  C12_13 
REMARK    3  A    between atoms: C12_13  and  S1_14 
REMARK    4  A    between atoms: S1_14  and  C13_15 
REMARK    5  A    between atoms: C18_20  and  N2_21 
ROOT
HETATM    1  C3  UNL     1      27.626   0.135  53.457  1.00  0.00    -0.009 A 
HETATM    2  C4  UNL     1      26.817   0.761  54.750  1.00  0.00     0.042 C 
HETATM    3  C5  UNL     1      25.854  -0.145  55.307  1.00  0.00    -0.018 C 
HETATM    4  C6  UNL     1      24.660  -0.604  54.823  1.00  0.00    -0.058 C 
HETATM    5  C7  UNL     1      23.947  -1.582  55.714  1.00  0.00     0.048 C 
HETATM    6  C8  UNL     1      23.970  -0.175  53.567  1.00  0.00    -0.034 C 
HETATM    7  C9  UNL     1      22.651  -0.901  53.427  1.00  0.00     0.050 C 
HETATM    8  C10 UNL     1      24.038   0.671  52.553  1.00  0.00     0.010 C 
HETATM    9  C11 UNL     1      23.099   0.776  51.391  1.00  0.00     0.068 C 
HETATM   10  N1  UNL     1      24.900   1.766  52.200  1.00  0.00    -0.374 N 
HETATM   11  C20 UNL     1      26.250   1.442  51.652  1.00  0.00     0.135 C 
HETATM   12  C21 UNL     1      27.107   0.744  52.743  1.00  0.00     0.002 A 
HETATM   13  C22 UNL     1      27.127  -0.684  52.982  1.00  0.00     0.020 A 
HETATM   14  C23 UNL     1      26.410  -1.809  52.332  1.00  0.00     0.008 A 
HETATM   15  C24 UNL     1      26.564  -0.466  52.311  1.00  0.00    -0.009 A 
ENDROOT
BRANCH  10  16
HETATM   16  C12 UNL     1      24.222   3.037  52.536  1.00  0.00     0.201 C 
BRANCH  16  17
HETATM   17  S1  UNL     1      24.560   4.256  51.222  1.00  0.00    -0.120 SA
BRANCH  17  18
HETATM   18  C13 UNL     1      24.206   3.502  49.617  1.00  0.00     0.071 C 
HETATM   19  C14 UNL     1      23.068   3.380  48.900  1.00  0.00     0.018 C 
HETATM   20  C15 UNL     1      22.376   2.896  47.681  1.00  0.00     0.084 C 
HETATM   21  N3  UNL     1      21.990   4.013  49.680  1.00  0.00    -0.355 N 
HETATM   22  C16 UNL     1      21.564   1.683  48.047  1.00  0.00    -0.021 C 
HETATM   23  C17 UNL     1      20.759   2.057  49.040  1.00  0.00     0.025 C 
HETATM   24  C18 UNL     1      20.666   3.411  49.674  1.00  0.00     0.342 C 
HETATM   25  C19 UNL     1      21.955   5.211  50.539  1.00  0.00     0.152 C 
BRANCH  24  26
HETATM   26  N2  UNL     1      19.695   4.169  48.928  1.00  0.00     0.105 N 
HETATM   27  H25 UNL     1      19.705   5.179  49.118  1.00  0.00     0.315 HD
HETATM   28  H26 UNL     1      18.794   3.683  49.037  1.00  0.00     0.315 HD
ENDBRANCH  24  26
ENDBRANCH  17  18
ENDBRANCH  16  17
ENDBRANCH  10  16
BRANCH   1  29
HETATM   29  C2  UNL     1      29.008   0.006  53.404  1.00  0.00    -0.047 C 
HETATM   30  C1  UNL     1      30.343  -0.534  53.507  1.00  0.00     0.032 C 
ENDBRANCH   1  29
TORSDOF 5
ENDMDL
MODEL 2
REMARK VINA RESULT:      -8.1      1.583      2.568
REMARK  5 active torsions:
REMARK  status: ('A' for Active; 'I' for Inactive)
REMARK    1  A    between atoms: C2_2  and  C3_3 
REMARK    2  A    between atoms: N1_12  and  C12_13 
REMARK    3  A    between atoms: C12_13  and  S1_14 
REMARK    4  A    between atoms: S1_14  and  C13_15 
REMARK    5  A    between atoms: C18_20  and  N2_21 
ROOT
HETATM    1  C3  UNL     1      27.513   0.147  53.567  1.00  0.00    -0.009 A 
HETATM    2  C4  UNL     1      26.657   0.646  54.885  1.00  0.00     0.042 C 
HETATM    3  C5  UNL     1      25.655  -0.294  55.298  1.00  0.00    -0.018 C 
HETATM    4  C6  UNL     1      24.477  -0.671  54.715  1.00  0.00    -0.058 C 
HETATM    5  C7  UNL     1      23.708  -1.725  55.463  1.00  0.00     0.048 C 
HETATM    6  C8  UNL     1      23.851  -0.094  53.486  1.00  0.00    -0.034 C 
HETATM    7  C9  UNL     1      22.528  -0.770  53.210  1.00  0.00     0.050 C 
HETATM    8  C10 UNL     1      23.979   0.856  52.574  1.00  0.00     0.010 C 
HETATM    9  C11 UNL     1      23.095   1.108  51.392  1.00  0.00     0.068 C 
HETATM   10  N1  UNL     1      24.875   1.964  52.381  1.00  0.00    -0.374 N 
HETATM   11  C20 UNL     1      26.243   1.673  51.859  1.00  0.00     0.135 C 
HETATM   12  C21 UNL     1      27.038   0.841  52.902  1.00  0.00     0.002 A 
HETATM   13  C22 UNL     1      27.022  -0.604  52.984  1.00  0.00     0.020 A 
HETATM   14  C23 UNL     1      26.316  -1.637  52.185  1.00  0.00     0.008 A 
HETATM   15  C24 UNL     1      26.494  -0.303  52.317  1.00  0.00    -0.009 A 
ENDROOT
BRANCH  10  16
HETATM   16  C12 UNL     1      24.204   3.206  52.825  1.00  0.00     0.201 C 
BRANCH  16  17
HETATM   17  S1  UNL     1      24.186   4.398  51.444  1.00  0.00    -0.120 SA
BRANCH  17  18
HETATM   18  C13 UNL     1      22.574   5.214  51.395  1.00  0.00     0.071 C 
HETATM   19  C14 UNL     1      21.958   5.958  50.451  1.00  0.00     0.018 C 
HETATM   20  C15 UNL     1      20.779   6.745  50.017  1.00  0.00     0.084 C 
HETATM   21  N3  UNL     1      22.876   6.052  49.302  1.00  0.00    -0.355 N 
HETATM   22  C16 UNL     1      21.135   8.205  50.079  1.00  0.00    -0.021 C 
HETATM   23  C17 UNL     1      22.222   8.358  49.324  1.00  0.00     0.025 C 
HETATM   24  C18 UNL     1      22.953   7.299  48.558  1.00  0.00     0.342 C 
HETATM   25  C19 UNL     1      23.815   5.088  48.697  1.00  0.00     0.152 C 
BRANCH  24  26
HETATM   26  N2  UNL     1      22.353   7.224  47.250  1.00  0.00     0.105 N 
HETATM   27  H25 UNL     1      22.636   6.405  46.698  1.00  0.00     0.315 HD
HETATM   28  H26 UNL     1      22.480   8.148  46.814  1.00  0.00     0.315 HD
ENDBRANCH  24  26
ENDBRANCH  17  18
ENDBRANCH  16  17
ENDBRANCH  10  16
BRANCH   1  29
HETATM   29  C2  UNL     1      28.894  -0.005  53.559  1.00  0.00    -0.047 C 
HETATM   30  C1  UNL     1      30.212  -0.589  53.474  1.00  0.00     0.032 C 
ENDBRANCH   1  29
TORSDOF 5
ENDMDL
MODEL 3
REMARK VINA RESULT:      -7.9     11.046     12.740
REMARK  5 active torsions:
REMARK  status: ('A' for Active; 'I' for Inactive)
REMARK    1  A    between atoms: C2_2  and  C3_3 
REMARK    2  A    between atoms: N1_12  and  C12_13 
REMARK    3  A    between atoms: C12_13  and  S1_14 
REMARK    4  A    between atoms: S1_14  and  C13_15 
REMARK    5  A    between atoms: C18_20  and  N2_21 
ROOT
HETATM    1  C3  UNL     1      32.953   2.955  46.766  1.00  0.00    -0.009 A 
HETATM    2  C4  UNL     1      34.593   3.130  46.753  1.00  0.00     0.042 C 
HETATM    3  C5  UNL     1      35.084   3.936  47.833  1.00  0.00    -0.018 C 
HETATM    4  C6  UNL     1      34.975   5.277  48.081  1.00  0.00    -0.058 C 
HETATM    5  C7  UNL     1      35.616   5.741  49.358  1.00  0.00     0.048 C 
HETATM    6  C8  UNL     1      34.371   6.314  47.188  1.00  0.00    -0.034 C 
HETATM    7  C9  UNL     1      34.493   7.680  47.824  1.00  0.00     0.050 C 
HETATM    8  C10 UNL     1      33.831   6.506  45.996  1.00  0.00     0.010 C 
HETATM    9  C11 UNL     1      33.278   7.784  45.443  1.00  0.00     0.068 C 
HETATM   10  N1  UNL     1      33.624   5.689  44.832  1.00  0.00    -0.374 N 
HETATM   11  C20 UNL     1      32.507   4.699  44.864  1.00  0.00     0.135 C 
HETATM   12  C21 UNL     1      32.802   3.608  45.929  1.00  0.00     0.002 A 
HETATM   13  C22 UNL     1      32.436   3.705  47.326  1.00  0.00     0.020 A 
HETATM   14  C23 UNL     1      31.741   4.764  48.100  1.00  0.00     0.008 A 
HETATM   15  C24 UNL     1      32.186   4.440  46.865  1.00  0.00    -0.009 A 
ENDROOT
BRANCH  10  16
HETATM   16  C12 UNL     1      34.667   6.006  43.832  1.00  0.00     0.201 C 
BRANCH  16  17
HETATM   17  S1  UNL     1      33.899   6.099  42.180  1.00  0.00    -0.120 SA
BRANCH  17  18
HETATM   18  C13 UNL     1      34.656   4.852  41.110  1.00  0.00     0.071 C 
HETATM   19  C14 UNL     1      34.142   4.014  40.185  1.00  0.00     0.018 C 
HETATM   20  C15 UNL     1      34.351   2.943  39.181  1.00  0.00     0.084 C 
HETATM   21  N3  UNL     1      32.689   4.253  40.138  1.00  0.00    -0.355 N 
HETATM   22  C16 UNL     1      33.848   1.648  39.760  1.00  0.00    -0.021 C 
HETATM   23  C17 UNL     1      32.578   1.858  40.102  1.00  0.00     0.025 C 
HETATM   24  C18 UNL     1      31.793   3.124  39.947  1.00  0.00     0.342 C 
HETATM   25  C19 UNL     1      31.878   5.479  40.258  1.00  0.00     0.152 C 
BRANCH  24  26
HETATM   26  N2  UNL     1      31.180   3.092  38.644  1.00  0.00     0.105 N 
HETATM   27  H25 UNL     1      30.190   3.367  38.632  1.00  0.00     0.315 HD
HETATM   28  H26 UNL     1      31.416   2.179  38.230  1.00  0.00     0.315 HD
ENDBRANCH  24  26
ENDBRANCH  17  18
ENDBRANCH  16  17
ENDBRANCH  10  16
BRANCH   1  29
HETATM   29  C2  UNL     1      32.311   1.724  46.825  1.00  0.00    -0.047 C 
HETATM   30  C1  UNL     1      31.964   0.343  46.589  1.00  0.00     0.032 C 
ENDBRANCH   1  29
TORSDOF 5
ENDMDL
MODEL 4
REMARK VINA RESULT:      -7.7      3.441      6.660
REMARK  5 active torsions:
REMARK  status: ('A' for Active; 'I' for Inactive)
REMARK    1  A    between atoms: C2_2  and  C3_3 
REMARK    2  A    between atoms: N1_12  and  C12_13 
REMARK    3  A    between atoms: C12_13  and  S1_14 
REMARK    4  A    between atoms: S1_14  and  C13_15 
REMARK    5  A    between atoms: C18_20  and  N2_21 
ROOT
HETATM    1  C3  UNL     1      25.469   4.776  49.223  1.00  0.00    -0.009 A 
HETATM    2  C4  UNL     1      24.528   3.430  49.372  1.00  0.00     0.042 C 
HETATM    3  C5  UNL     1      23.477   3.365  48.398  1.00  0.00    -0.018 C 
HETATM    4  C6  UNL     1      22.337   4.106  48.249  1.00  0.00    -0.058 C 
HETATM    5  C7  UNL     1      21.491   3.737  47.062  1.00  0.00     0.048 C 
HETATM    6  C8  UNL     1      21.818   5.162  49.172  1.00  0.00    -0.034 C 
HETATM    7  C9  UNL     1      20.505   5.703  48.656  1.00  0.00     0.050 C 
HETATM    8  C10 UNL     1      22.036   5.759  50.332  1.00  0.00     0.010 C 
HETATM    9  C11 UNL     1      21.249   6.879  50.941  1.00  0.00     0.068 C 
HETATM   10  N1  UNL     1      22.969   5.574  51.410  1.00  0.00    -0.374 N 
HETATM   11  C20 UNL     1      24.365   6.066  51.218  1.00  0.00     0.135 C 
HETATM   12  C21 UNL     1      25.061   5.249  50.095  1.00  0.00     0.002 A 
HETATM   13  C22 UNL     1      25.006   5.578  48.687  1.00  0.00     0.020 A 
HETATM   14  C23 UNL     1      24.339   6.679  47.949  1.00  0.00     0.008 A 
HETATM   15  C24 UNL     1      24.536   6.166  49.184  1.00  0.00    -0.009 A 
ENDROOT
BRANCH  10  16
HETATM   16  C12 UNL     1      22.295   4.844  52.507  1.00  0.00     0.201 C 
BRANCH  16  17
HETATM   17  S1  UNL     1      21.461   3.376  51.819  1.00  0.00    -0.120 SA
BRANCH  17  18
HETATM   18  C13 UNL     1      22.498   1.923  52.107  1.00  0.00     0.071 C 
HETATM   19  C14 UNL     1      22.226   0.692  52.593  1.00  0.00     0.018 C 
HETATM   20  C15 UNL     1      22.699  -0.661  52.970  1.00  0.00     0.084 C 
HETATM   21  N3  UNL     1      20.789   0.658  52.916  1.00  0.00    -0.355 N 
HETATM   22  C16 UNL     1      22.765  -0.740  54.471  1.00  0.00    -0.021 C 
HETATM   23  C17 UNL     1      21.550  -0.424  54.916  1.00  0.00     0.025 C 
HETATM   24  C18 UNL     1      20.347  -0.064  54.098  1.00  0.00     0.342 C 
HETATM   25  C19 UNL     1      19.607   1.247  52.259  1.00  0.00     0.152 C 
BRANCH  24  26
HETATM   26  N2  UNL     1      19.652  -1.288  53.796  1.00  0.00     0.105 N 
HETATM   27  H25 UNL     1      19.704  -2.002  54.533  1.00  0.00     0.315 HD
HETATM   28  H26 UNL     1      19.949  -1.571  52.851  1.00  0.00     0.315 HD
ENDBRANCH  24  26
ENDBRANCH  17  18
ENDBRANCH  16  17
ENDBRANCH  10  16
BRANCH   1  29
HETATM   29  C2  UNL     1      26.843   4.736  49.021  1.00  0.00    -0.047 C 
HETATM   30  C1  UNL     1      28.168   5.022  48.523  1.00  0.00     0.032 C 
ENDBRANCH   1  29
TORSDOF 5
ENDMDL
MODEL 5
REMARK VINA RESULT:      -7.7      2.020      7.270
REMARK  5 active torsions:
REMARK  status: ('A' for Active; 'I' for Inactive)
REMARK    1  A    between atoms: C2_2  and  C3_3 
REMARK    2  A    between atoms: N1_12  and  C12_13 
REMARK    3  A    between atoms: C12_13  and  S1_14 
REMARK    4  A    between atoms: S1_14  and  C13_15 
REMARK    5  A    between atoms: C18_20  and  N2_21 
ROOT
HETATM    1  C3  UNL     1      23.604   5.222  50.618  1.00  0.00    -0.009 A 
HETATM    2  C4  UNL     1      24.514   3.994  49.998  1.00  0.00     0.042 C 
HETATM    3  C5  UNL     1      23.888   3.331  48.890  1.00  0.00    -0.018 C 
HETATM    4  C6  UNL     1      22.795   2.511  48.829  1.00  0.00    -0.058 C 
HETATM    5  C7  UNL     1      22.436   2.032  47.450  1.00  0.00     0.048 C 
HETATM    6  C8  UNL     1      21.994   1.986  49.978  1.00  0.00    -0.034 C 
HETATM    7  C9  UNL     1      20.897   1.078  49.473  1.00  0.00     0.050 C 
HETATM    8  C10 UNL     1      21.927   1.950  51.299  1.00  0.00     0.010 C 
HETATM    9  C11 UNL     1      20.874   1.297  52.139  1.00  0.00     0.068 C 
HETATM   10  N1  UNL     1      22.767   2.412  52.371  1.00  0.00    -0.374 N 
HETATM   11  C20 UNL     1      22.751   3.869  52.692  1.00  0.00     0.135 C 
HETATM   12  C21 UNL     1      23.337   4.677  51.502  1.00  0.00     0.002 A 
HETATM   13  C22 UNL     1      22.563   5.161  50.379  1.00  0.00     0.020 A 
HETATM   14  C23 UNL     1      21.122   5.050  50.043  1.00  0.00     0.008 A 
HETATM   15  C24 UNL     1      22.049   4.708  50.966  1.00  0.00    -0.009 A 
ENDROOT
BRANCH  10  16
HETATM   16  C12 UNL     1      23.539   1.267  52.901  1.00  0.00     0.201 C 
BRANCH  16  17
HETATM   17  S1  UNL     1      25.084   1.098  51.946  1.00  0.00    -0.120 SA
BRANCH  17  18
HETATM   18  C13 UNL     1      26.087  -0.216  52.679  1.00  0.00     0.071 C 
HETATM   19  C14 UNL     1      27.189  -0.192  53.460  1.00  0.00     0.018 C 
HETATM   20  C15 UNL     1      28.235  -0.927  54.210  1.00  0.00     0.084 C 
HETATM   21  N3  UNL     1      27.541   1.223  53.675  1.00  0.00    -0.355 N 
HETATM   22  C16 UNL     1      29.519  -0.851  53.430  1.00  0.00    -0.021 C 
HETATM   23  C17 UNL     1      29.767   0.444  53.243  1.00  0.00     0.025 C 
HETATM   24  C18 UNL     1      28.943   1.605  53.711  1.00  0.00     0.342 C 
HETATM   25  C19 UNL     1      26.722   2.434  53.868  1.00  0.00     0.152 C 
BRANCH  24  26
HETATM   26  N2  UNL     1      29.408   1.957  55.028  1.00  0.00     0.105 N 
HETATM   27  H25 UNL     1      29.092   2.876  55.360  1.00  0.00     0.315 HD
HETATM   28  H26 UNL     1      30.422   1.779  55.041  1.00  0.00     0.315 HD
ENDBRANCH  24  26
ENDBRANCH  17  18
ENDBRANCH  16  17
ENDBRANCH  10  16
BRANCH   1  29
HETATM   29  C2  UNL     1      24.045   6.537  50.706  1.00  0.00    -0.047 C 
HETATM   30  C1  UNL     1      24.063   7.974  50.840  1.00  0.00     0.032 C 
ENDBRANCH   1  29
TORSDOF 5
ENDMDL
MODEL 6
REMARK VINA RESULT:      -7.6      2.244      6.950
REMARK  5 active torsions:
REMARK  status: ('A' for Active; 'I' for Inactive)
REMARK    1  A    between atoms: C2_2  and  C3_3 
REMARK    2  A    between atoms: N1_12  and  C12_13 
REMARK    3  A    between atoms: C12_13  and  S1_14 
REMARK    4  A    between atoms: S1_14  and  C13_15 
REMARK    5  A    between atoms: C18_20  and  N2_21 
ROOT
HETATM    1  C3  UNL     1      25.876   5.417  49.140  1.00  0.00    -0.009 A 
HETATM    2  C4  UNL     1      25.653   3.863  49.643  1.00  0.00     0.042 C 
HETATM    3  C5  UNL     1      24.632   3.172  48.908  1.00  0.00    -0.018 C 
HETATM    4  C6  UNL     1      23.273   3.326  48.888  1.00  0.00    -0.058 C 
HETATM    5  C7  UNL     1      22.544   2.408  47.947  1.00  0.00     0.048 C 
HETATM    6  C8  UNL     1      22.454   4.234  49.749  1.00  0.00    -0.034 C 
HETATM    7  C9  UNL     1      20.986   4.065  49.432  1.00  0.00     0.050 C 
HETATM    8  C10 UNL     1      22.520   5.089  50.756  1.00  0.00     0.010 C 
HETATM    9  C11 UNL     1      21.397   5.879  51.355  1.00  0.00     0.068 C 
HETATM   10  N1  UNL     1      23.558   5.530  51.648  1.00  0.00    -0.374 N 
HETATM   11  C20 UNL     1      24.559   6.506  51.125  1.00  0.00     0.135 C 
HETATM   12  C21 UNL     1      25.406   5.843  50.005  1.00  0.00     0.002 A 
HETATM   13  C22 UNL     1      25.046   5.828  48.603  1.00  0.00     0.020 A 
HETATM   14  C23 UNL     1      23.878   6.379  47.872  1.00  0.00     0.008 A 
HETATM   15  C24 UNL     1      24.427   6.255  49.102  1.00  0.00    -0.009 A 
ENDROOT
BRANCH  10  16
HETATM   16  C12 UNL     1      23.412   4.824  52.940  1.00  0.00     0.201 C 
BRANCH  16  17
HETATM   17  S1  UNL     1      23.780   3.054  52.696  1.00  0.00    -0.120 SA
BRANCH  17  18
HETATM   18  C13 UNL     1      25.572   2.835  52.601  1.00  0.00     0.071 C 
HETATM   19  C14 UNL     1      26.370   1.765  52.804  1.00  0.00     0.018 C 
HETATM   20  C15 UNL     1      27.732   1.181  52.842  1.00  0.00     0.084 C 
HETATM   21  N3  UNL     1      25.500   0.634  53.172  1.00  0.00    -0.355 N 
HETATM   22  C16 UNL     1      28.129   0.995  54.281  1.00  0.00    -0.021 C 
HETATM   23  C17 UNL     1      27.179   0.245  54.837  1.00  0.00     0.025 C 
HETATM   24  C18 UNL     1      25.957  -0.313  54.176  1.00  0.00     0.342 C 
HETATM   25  C19 UNL     1      24.159   0.223  52.717  1.00  0.00     0.152 C 
BRANCH  24  26
HETATM   26  N2  UNL     1      26.312  -1.598  53.631  1.00  0.00     0.105 N 
HETATM   27  H25 UNL     1      27.323  -1.758  53.540  1.00  0.00     0.315 HD
HETATM   28  H26 UNL     1      25.740  -1.729  52.785  1.00  0.00     0.315 HD
ENDBRANCH  24  26
ENDBRANCH  17  18
ENDBRANCH  16  17
ENDBRANCH  10  16
BRANCH   1  29
HETATM   29  C2  UNL     1      27.091   5.910  48.681  1.00  0.00    -0.047 C 
HETATM   30  C1  UNL     1      28.083   6.616  47.905  1.00  0.00     0.032 C 
ENDBRANCH   1  29
TORSDOF 5
ENDMDL
MODEL 7
REMARK VINA RESULT:      -7.6      2.526      7.228
REMARK  5 active torsions:
REMARK  status: ('A' for Active; 'I' for Inactive)
REMARK    1  A    between atoms: C2_2  and  C3_3 
REMARK    2  A    between atoms: N1_12  and  C12_13 
REMARK    3  A    between atoms: C12_13  and  S1_14 
REMARK    4  A    between atoms: S1_14  and  C13_15 
REMARK    5  A    between atoms: C18_20  and  N2_21 
ROOT
HETATM    1  C3  UNL     1      21.981   3.035  50.394  1.00  0.00    -0.009 A 
HETATM    2  C4  UNL     1      21.832   1.565  49.661  1.00  0.00     0.042 C 
HETATM    3  C5  UNL     1      20.480   1.086  49.624  1.00  0.00    -0.018 C 
HETATM    4  C6  UNL     1      19.653   0.639  50.618  1.00  0.00    -0.058 C 
HETATM    5  C7  UNL     1      18.275   0.244  50.167  1.00  0.00     0.048 C 
HETATM    6  C8  UNL     1      20.002   0.428  52.057  1.00  0.00    -0.034 C 
HETATM    7  C9  UNL     1      18.807  -0.117  52.805  1.00  0.00     0.050 C 
HETATM    8  C10 UNL     1      21.000   0.464  52.925  1.00  0.00     0.010 C 
HETATM    9  C11 UNL     1      20.934   0.197  54.397  1.00  0.00     0.068 C 
HETATM   10  N1  UNL     1      22.417   0.684  52.834  1.00  0.00    -0.374 N 
HETATM   11  C20 UNL     1      22.896   2.087  52.658  1.00  0.00     0.135 C 
HETATM   12  C21 UNL     1      22.433   2.631  51.279  1.00  0.00     0.002 A 
HETATM   13  C22 UNL     1      21.166   3.288  51.039  1.00  0.00     0.020 A 
HETATM   14  C23 UNL     1      20.030   3.612  51.937  1.00  0.00     0.008 A 
HETATM   15  C24 UNL     1      21.253   3.037  51.901  1.00  0.00    -0.009 A 
ENDROOT
BRANCH  10  16
HETATM   16  C12 UNL     1      23.109  -0.623  52.886  1.00  0.00     0.201 C 
BRANCH  16  17
HETATM   17  S1  UNL     1      24.554  -0.487  53.991  1.00  0.00    -0.120 SA
BRANCH  17  18
HETATM   18  C13 UNL     1      25.552   0.931  53.480  1.00  0.00     0.071 C 
HETATM   19  C14 UNL     1      26.869   1.067  53.213  1.00  0.00     0.018 C 
HETATM   20  C15 UNL     1      28.005   1.932  52.811  1.00  0.00     0.084 C 
HETATM   21  N3  UNL     1      27.496  -0.250  53.420  1.00  0.00    -0.355 N 
HETATM   22  C16 UNL     1      28.836   2.221  54.031  1.00  0.00    -0.021 C 
HETATM   23  C17 UNL     1      29.181   1.038  54.537  1.00  0.00     0.025 C 
HETATM   24  C18 UNL     1      28.824  -0.316  54.008  1.00  0.00     0.342 C 
HETATM   25  C19 UNL     1      27.035  -1.624  53.149  1.00  0.00     0.152 C 
BRANCH  24  26
HETATM   26  N2  UNL     1      29.849  -0.694  53.069  1.00  0.00     0.105 N 
HETATM   27  H25 UNL     1      30.626  -1.228  53.477  1.00  0.00     0.315 HD
HETATM   28  H26 UNL     1      30.094   0.157  52.542  1.00  0.00     0.315 HD
ENDBRANCH  24  26
ENDBRANCH  17  18
ENDBRANCH  16  17
ENDBRANCH  10  16
BRANCH   1  29
HETATM   29  C2  UNL     1      22.523   4.153  49.772  1.00  0.00    -0.047 C 
HETATM   30  C1  UNL     1      23.240   4.999  48.847  1.00  0.00     0.032 C 
ENDBRANCH   1  29
TORSDOF 5
ENDMDL
MODEL 8
REMARK VINA RESULT:      -7.6      3.484      7.992
REMARK  5 active torsions:
REMARK  status: ('A' for Active; 'I' for Inactive)
REMARK    1  A    between atoms: C2_2  and  C3_3 
REMARK    2  A    between atoms: N1_12  and  C12_13 
REMARK    3  A    between atoms: C12_13  and  S1_14 
REMARK    4  A    between atoms: S1_14  and  C13_15 
REMARK    5  A    between atoms: C18_20  and  N2_21 
ROOT
HETATM    1  C3  UNL     1      22.997   8.060  49.265  1.00  0.00    -0.009 A 
HETATM    2  C4  UNL     1      24.111   8.277  50.463  1.00  0.00     0.042 C 
HETATM    3  C5  UNL     1      25.459   8.333  49.977  1.00  0.00    -0.018 C 
HETATM    4  C6  UNL     1      26.268   7.367  49.444  1.00  0.00    -0.058 C 
HETATM    5  C7  UNL     1      27.631   7.841  49.023  1.00  0.00     0.048 C 
HETATM    6  C8  UNL     1      25.971   5.906  49.321  1.00  0.00    -0.034 C 
HETATM    7  C9  UNL     1      27.152   5.186  48.713  1.00  0.00     0.050 C 
HETATM    8  C10 UNL     1      25.080   4.975  49.619  1.00  0.00     0.010 C 
HETATM    9  C11 UNL     1      25.134   3.520  49.268  1.00  0.00     0.068 C 
HETATM   10  N1  UNL     1      23.856   4.944  50.371  1.00  0.00    -0.374 N 
HETATM   11  C20 UNL     1      22.630   5.509  49.734  1.00  0.00     0.135 C 
HETATM   12  C21 UNL     1      22.801   7.039  49.531  1.00  0.00     0.002 A 
HETATM   13  C22 UNL     1      23.399   7.650  48.362  1.00  0.00     0.020 A 
HETATM   14  C23 UNL     1      23.977   7.070  47.124  1.00  0.00     0.008 A 
HETATM   15  C24 UNL     1      23.393   6.749  48.301  1.00  0.00    -0.009 A 
ENDROOT
BRANCH  10  16
HETATM   16  C12 UNL     1      24.130   4.370  51.708  1.00  0.00     0.201 C 
BRANCH  16  17
HETATM   17  S1  UNL     1      22.707   3.350  52.220  1.00  0.00    -0.120 SA
BRANCH  17  18
HETATM   18  C13 UNL     1      23.243   1.630  52.373  1.00  0.00     0.071 C 
HETATM   19  C14 UNL     1      22.602   0.510  52.771  1.00  0.00     0.018 C 
HETATM   20  C15 UNL     1      22.632  -0.949  53.034  1.00  0.00     0.084 C 
HETATM   21  N3  UNL     1      21.225   0.895  53.125  1.00  0.00    -0.355 N 
HETATM   22  C16 UNL     1      22.668  -1.162  54.523  1.00  0.00    -0.021 C 
HETATM   23  C17 UNL     1      21.610  -0.523  55.018  1.00  0.00     0.025 C 
HETATM   24  C18 UNL     1      20.580   0.254  54.259  1.00  0.00     0.342 C 
HETATM   25  C19 UNL     1      20.284   1.870  52.541  1.00  0.00     0.152 C 
BRANCH  24  26
HETATM   26  N2  UNL     1      19.539  -0.667  53.881  1.00  0.00     0.105 N 
HETATM   27  H25 UNL     1      18.630  -0.229  53.690  1.00  0.00     0.315 HD
HETATM   28  H26 UNL     1      19.554  -1.429  54.574  1.00  0.00     0.315 HD
ENDBRANCH  24  26
ENDBRANCH  17  18
ENDBRANCH  16  17
ENDBRANCH  10  16
BRANCH   1  29
HETATM   29  C2  UNL     1      21.950   8.939  49.020  1.00  0.00    -0.047 C 
HETATM   30  C1  UNL     1      21.107  10.111  49.038  1.00  0.00     0.032 C 
ENDBRANCH   1  29
TORSDOF 5
ENDMDL
MODEL 9
REMARK VINA RESULT:      -7.6      3.136      5.499
REMARK  5 active torsions:
REMARK  status: ('A' for Active; 'I' for Inactive)
REMARK    1  A    between atoms: C2_2  and  C3_3 
REMARK    2  A    between atoms: N1_12  and  C12_13 
REMARK    3  A    between atoms: C12_13  and  S1_14 
REMARK    4  A    between atoms: S1_14  and  C13_15 
REMARK    5  A    between atoms: C18_20  and  N2_21 
ROOT
HETATM    1  C3  UNL     1      22.241   0.346  52.480  1.00  0.00    -0.009 A 
HETATM    2  C4  UNL     1      23.599   1.155  52.012  1.00  0.00     0.042 C 
HETATM    3  C5  UNL     1      23.706   2.462  52.593  1.00  0.00    -0.018 C 
HETATM    4  C6  UNL     1      22.989   3.607  52.378  1.00  0.00    -0.058 C 
HETATM    5  C7  UNL     1      23.401   4.782  53.220  1.00  0.00     0.048 C 
HETATM    6  C8  UNL     1      21.920   3.825  51.354  1.00  0.00    -0.034 C 
HETATM    7  C9  UNL     1      21.414   5.247  51.427  1.00  0.00     0.050 C 
HETATM    8  C10 UNL     1      21.291   3.259  50.338  1.00  0.00     0.010 C 
HETATM    9  C11 UNL     1      20.171   3.834  49.527  1.00  0.00     0.068 C 
HETATM   10  N1  UNL     1      21.434   2.024  49.616  1.00  0.00    -0.374 N 
HETATM   11  C20 UNL     1      20.922   0.777  50.259  1.00  0.00     0.135 C 
HETATM   12  C21 UNL     1      21.754   0.462  51.532  1.00  0.00     0.002 A 
HETATM   13  C22 UNL     1      21.460   0.976  52.852  1.00  0.00     0.020 A 
HETATM   14  C23 UNL     1      20.389   1.873  53.353  1.00  0.00     0.008 A 
HETATM   15  C24 UNL     1      20.869   1.275  52.239  1.00  0.00    -0.009 A 
ENDROOT
BRANCH  10  16
HETATM   16  C12 UNL     1      22.149   2.289  48.348  1.00  0.00     0.201 C 
BRANCH  16  17
HETATM   17  S1  UNL     1      23.641   3.277  48.703  1.00  0.00    -0.120 SA
BRANCH  17  18
HETATM   18  C13 UNL     1      23.368   4.974  48.141  1.00  0.00     0.071 C 
HETATM   19  C14 UNL     1      23.906   6.154  48.517  1.00  0.00     0.018 C 
HETATM   20  C15 UNL     1      23.979   7.627  48.362  1.00  0.00     0.084 C 
HETATM   21  N3  UNL     1      24.871   5.872  49.593  1.00  0.00    -0.355 N 
HETATM   22  C16 UNL     1      23.273   8.262  49.529  1.00  0.00    -0.021 C 
HETATM   23  C17 UNL     1      23.855   7.782  50.626  1.00  0.00     0.025 C 
HETATM   24  C18 UNL     1      24.990   6.806  50.700  1.00  0.00     0.342 C 
HETATM   25  C19 UNL     1      25.813   4.760  49.817  1.00  0.00     0.152 C 
BRANCH  24  26
HETATM   26  N2  UNL     1      26.212   7.568  50.680  1.00  0.00     0.105 N 
HETATM   27  H25 UNL     1      26.502   7.932  51.596  1.00  0.00     0.315 HD
HETATM   28  H26 UNL     1      26.123   8.249  49.914  1.00  0.00     0.315 HD
ENDBRANCH  24  26
ENDBRANCH  17  18
ENDBRANCH  16  17
ENDBRANCH  10  16
BRANCH   1  29
HETATM   29  C2  UNL     1      22.262  -0.889  53.116  1.00  0.00    -0.047 C 
HETATM   30  C1  UNL     1      22.034  -1.947  54.072  1.00  0.00     0.032 C 
ENDBRANCH   1  29
TORSDOF 5
ENDMDL
