MODEL 1
REMARK VINA RESULT:      -8.7      0.000      0.000
REMARK  2 active torsions:
REMARK  status: ('A' for Active; 'I' for Inactive)
REMARK    1  A    between atoms: O1_2  and  C2_3 
REMARK    2  A    between atoms: C6_7  and  C7_8 
ROOT
HETATM    1  C7  UNL     1      24.404   0.442  53.000  1.00  0.00    -0.024 A 
HETATM    2  C8  UNL     1      25.074  -0.757  52.826  1.00  0.00     0.013 A 
HETATM    3  C9  UNL     1      26.430  -0.857  53.068  1.00  0.00     0.015 A 
HETATM    4  C10 UNL     1      27.140   0.245  53.489  1.00  0.00     0.007 A 
HETATM    5  C11 UNL     1      26.474   1.455  53.666  1.00  0.00     0.047 A 
HETATM    6  C12 UNL     1      25.113   1.559  53.425  1.00  0.00     0.042 A 
HETATM    7  N1  UNL     1      27.365   2.481  54.103  1.00  0.00    -0.322 N 
HETATM    8  C13 UNL     1      28.687   1.924  54.222  1.00  0.00     0.258 A 
HETATM    9  O2  UNL     1      29.735   2.521  54.580  1.00  0.00    -0.267 OA
HETATM   10  C14 UNL     1      28.522   0.546  53.838  1.00  0.00     0.055 A 
HETATM   11  C15 UNL     1      29.518  -0.321  53.814  1.00  0.00     0.102 C 
HETATM   12 CL1  UNL     1      29.452  -2.010  53.370  1.00  0.00    -0.096 Cl
HETATM   13  H10 UNL     1      27.115   3.475  54.307  1.00  0.00     0.169 HD
ENDROOT
BRANCH   1  14
HETATM   14  C6  UNL     1      22.967   0.540  52.742  1.00  0.00    -0.023 A 
HETATM   15  C5  UNL     1      22.123   0.187  53.778  1.00  0.00     0.012 A 
HETATM   16  C4  UNL     1      20.759   0.251  53.619  1.00  0.00     0.004 A 
HETATM   17  C3  UNL     1      20.193   0.669  52.415  1.00  0.00     0.037 A 
HETATM   18  C2  UNL     1      21.039   1.021  51.382  1.00  0.00     0.069 A 
HETATM   19  C16 UNL     1      22.420   0.959  51.536  1.00  0.00     0.049 A 
BRANCH  18  20
HETATM   20  O1  UNL     1      20.652   1.456  50.125  1.00  0.00    -0.356 OA
HETATM   21  C1  UNL     1      21.368   1.062  48.962  1.00  0.00     0.210 C 
ENDBRANCH  18  20
ENDBRANCH   1  14
TORSDOF 2
ENDMDL
MODEL 2
REMARK VINA RESULT:      -8.3      3.337      7.209
REMARK  2 active torsions:
REMARK  status: ('A' for Active; 'I' for Inactive)
REMARK    1  A    between atoms: O1_2  and  C2_3 
REMARK    2  A    between atoms: C6_7  and  C7_8 
ROOT
HETATM    1  C7  UNL     1      25.196   0.985  53.274  1.00  0.00    -0.024 A 
HETATM    2  C8  UNL     1      24.635   2.175  52.842  1.00  0.00     0.013 A 
HETATM    3  C9  UNL     1      23.269   2.306  52.693  1.00  0.00     0.015 A 
HETATM    4  C10 UNL     1      22.437   1.245  52.977  1.00  0.00     0.007 A 
HETATM    5  C11 UNL     1      22.993   0.044  53.411  1.00  0.00     0.047 A 
HETATM    6  C12 UNL     1      24.365  -0.091  53.562  1.00  0.00     0.042 A 
HETATM    7  N1  UNL     1      21.986  -0.938  53.655  1.00  0.00    -0.322 N 
HETATM    8  C13 UNL     1      20.700  -0.360  53.368  1.00  0.00     0.258 A 
HETATM    9  O2  UNL     1      19.577  -0.919  53.464  1.00  0.00    -0.267 OA
HETATM   10  C14 UNL     1      21.005   0.984  52.952  1.00  0.00     0.055 A 
HETATM   11  C15 UNL     1      20.079   1.857  52.596  1.00  0.00     0.102 C 
HETATM   12 CL1  UNL     1      20.315   3.508  52.075  1.00  0.00    -0.096 Cl
HETATM   13  H10 UNL     1      22.141  -1.917  53.987  1.00  0.00     0.169 HD
ENDROOT
BRANCH   1  14
HETATM   14  C6  UNL     1      26.645   0.854  53.428  1.00  0.00    -0.023 A 
HETATM   15  C5  UNL     1      27.374   2.027  53.490  1.00  0.00     0.012 A 
HETATM   16  C4  UNL     1      28.740   1.992  53.635  1.00  0.00     0.004 A 
HETATM   17  C3  UNL     1      29.425   0.781  53.722  1.00  0.00     0.037 A 
HETATM   18  C2  UNL     1      28.694  -0.390  53.659  1.00  0.00     0.069 A 
HETATM   19  C16 UNL     1      27.311  -0.363  53.513  1.00  0.00     0.049 A 
BRANCH  18  20
HETATM   20  O1  UNL     1      29.208  -1.675  53.728  1.00  0.00    -0.356 OA
HETATM   21  C1  UNL     1      28.602  -2.744  53.011  1.00  0.00     0.210 C 
ENDBRANCH  18  20
ENDBRANCH   1  14
TORSDOF 2
ENDMDL
MODEL 3
REMARK VINA RESULT:      -8.3      1.903      2.290
REMARK  2 active torsions:
REMARK  status: ('A' for Active; 'I' for Inactive)
REMARK    1  A    between atoms: O1_2  and  C2_3 
REMARK    2  A    between atoms: C6_7  and  C7_8 
ROOT
HETATM    1  C7  UNL     1      23.959   0.402  53.009  1.00  0.00    -0.024 A 
HETATM    2  C8  UNL     1      24.636   1.599  53.163  1.00  0.00     0.013 A 
HETATM    3  C9  UNL     1      26.007   1.626  53.325  1.00  0.00     0.015 A 
HETATM    4  C10 UNL     1      26.726   0.450  53.335  1.00  0.00     0.007 A 
HETATM    5  C11 UNL     1      26.051  -0.758  53.182  1.00  0.00     0.047 A 
HETATM    6  C12 UNL     1      24.675  -0.789  53.018  1.00  0.00     0.042 A 
HETATM    7  N1  UNL     1      26.952  -1.866  53.218  1.00  0.00    -0.322 N 
HETATM    8  C13 UNL     1      28.289  -1.366  53.405  1.00  0.00     0.258 A 
HETATM    9  O2  UNL     1      29.347  -2.040  53.488  1.00  0.00    -0.267 OA
HETATM   10  C14 UNL     1      28.122   0.062  53.475  1.00  0.00     0.055 A 
HETATM   11  C15 UNL     1      29.130   0.899  53.645  1.00  0.00     0.102 C 
HETATM   12 CL1  UNL     1      29.064   2.642  53.745  1.00  0.00    -0.096 Cl
HETATM   13  H10 UNL     1      26.698  -2.875  53.126  1.00  0.00     0.169 HD
ENDROOT
BRANCH   1  14
HETATM   14  C6  UNL     1      22.505   0.382  52.837  1.00  0.00    -0.023 A 
HETATM   15  C5  UNL     1      21.750   0.087  53.956  1.00  0.00     0.012 A 
HETATM   16  C4  UNL     1      20.378   0.049  53.881  1.00  0.00     0.004 A 
HETATM   17  C3  UNL     1      19.714   0.302  52.682  1.00  0.00     0.037 A 
HETATM   18  C2  UNL     1      20.472   0.596  51.565  1.00  0.00     0.069 A 
HETATM   19  C16 UNL     1      21.861   0.638  51.633  1.00  0.00     0.049 A 
BRANCH  18  20
HETATM   20  O1  UNL     1      19.982   0.872  50.299  1.00  0.00    -0.356 OA
HETATM   21  C1  UNL     1      20.864   1.167  49.222  1.00  0.00     0.210 C 
ENDBRANCH  18  20
ENDBRANCH   1  14
TORSDOF 2
ENDMDL
MODEL 4
REMARK VINA RESULT:      -8.3      3.732      7.583
REMARK  2 active torsions:
REMARK  status: ('A' for Active; 'I' for Inactive)
REMARK    1  A    between atoms: O1_2  and  C2_3 
REMARK    2  A    between atoms: C6_7  and  C7_8 
ROOT
HETATM    1  C7  UNL     1      23.197   0.445  52.757  1.00  0.00    -0.024 A 
HETATM    2  C8  UNL     1      22.685   0.985  51.589  1.00  0.00     0.013 A 
HETATM    3  C9  UNL     1      21.347   0.860  51.274  1.00  0.00     0.015 A 
HETATM    4  C10 UNL     1      20.495   0.191  52.126  1.00  0.00     0.007 A 
HETATM    5  C11 UNL     1      21.003  -0.356  53.302  1.00  0.00     0.047 A 
HETATM    6  C12 UNL     1      22.347  -0.232  53.622  1.00  0.00     0.042 A 
HETATM    7  N1  UNL     1      19.982  -1.009  54.056  1.00  0.00    -0.322 N 
HETATM    8  C13 UNL     1      18.736  -0.890  53.345  1.00  0.00     0.258 A 
HETATM    9  O2  UNL     1      17.615  -1.340  53.695  1.00  0.00    -0.267 OA
HETATM   10  C14 UNL     1      19.079  -0.147  52.160  1.00  0.00     0.055 A 
HETATM   11  C15 UNL     1      18.198   0.176  51.231  1.00  0.00     0.102 C 
HETATM   12 CL1  UNL     1      18.482   1.069  49.756  1.00  0.00    -0.096 Cl
HETATM   13  H10 UNL     1      20.103  -1.496  54.973  1.00  0.00     0.169 HD
ENDROOT
BRANCH   1  14
HETATM   14  C6  UNL     1      24.618   0.582  53.083  1.00  0.00    -0.023 A 
HETATM   15  C5  UNL     1      25.079   1.861  53.336  1.00  0.00     0.012 A 
HETATM   16  C4  UNL     1      26.399   2.076  53.650  1.00  0.00     0.004 A 
HETATM   17  C3  UNL     1      27.305   1.019  53.721  1.00  0.00     0.037 A 
HETATM   18  C2  UNL     1      26.841  -0.258  53.468  1.00  0.00     0.069 A 
HETATM   19  C16 UNL     1      25.506  -0.484  53.150  1.00  0.00     0.049 A 
BRANCH  18  20
HETATM   20  O1  UNL     1      27.597  -1.418  53.495  1.00  0.00    -0.356 OA
HETATM   21  C1  UNL     1      29.018  -1.366  53.457  1.00  0.00     0.210 C 
ENDBRANCH  18  20
ENDBRANCH   1  14
TORSDOF 2
ENDMDL
MODEL 5
REMARK VINA RESULT:      -8.2      4.504      6.025
REMARK  2 active torsions:
REMARK  status: ('A' for Active; 'I' for Inactive)
REMARK    1  A    between atoms: O1_2  and  C2_3 
REMARK    2  A    between atoms: C6_7  and  C7_8 
ROOT
HETATM    1  C7  UNL     1      24.952   2.743  51.091  1.00  0.00    -0.024 A 
HETATM    2  C8  UNL     1      23.619   2.373  51.029  1.00  0.00     0.013 A 
HETATM    3  C9  UNL     1      23.115   1.386  51.852  1.00  0.00     0.015 A 
HETATM    4  C10 UNL     1      23.939   0.750  52.754  1.00  0.00     0.007 A 
HETATM    5  C11 UNL     1      25.281   1.115  52.822  1.00  0.00     0.047 A 
HETATM    6  C12 UNL     1      25.791   2.106  51.997  1.00  0.00     0.042 A 
HETATM    7  N1  UNL     1      25.979   0.354  53.808  1.00  0.00    -0.322 N 
HETATM    8  C13 UNL     1      25.054  -0.561  54.423  1.00  0.00     0.258 A 
HETATM    9  O2  UNL     1      25.301  -1.394  55.333  1.00  0.00    -0.267 OA
HETATM   10  C14 UNL     1      23.805  -0.298  53.757  1.00  0.00     0.055 A 
HETATM   11  C15 UNL     1      22.687  -0.942  54.039  1.00  0.00     0.102 C 
HETATM   12 CL1  UNL     1      21.115  -0.719  53.310  1.00  0.00    -0.096 Cl
HETATM   13  H10 UNL     1      26.992   0.435  54.053  1.00  0.00     0.169 HD
ENDROOT
BRANCH   1  14
HETATM   14  C6  UNL     1      25.479   3.791  50.215  1.00  0.00    -0.023 A 
HETATM   15  C5  UNL     1      24.626   4.836  49.912  1.00  0.00     0.012 A 
HETATM   16  C4  UNL     1      25.043   5.861  49.097  1.00  0.00     0.004 A 
HETATM   17  C3  UNL     1      26.327   5.875  48.555  1.00  0.00     0.037 A 
HETATM   18  C2  UNL     1      27.177   4.828  48.859  1.00  0.00     0.069 A 
HETATM   19  C16 UNL     1      26.762   3.787  49.684  1.00  0.00     0.049 A 
BRANCH  18  20
HETATM   20  O1  UNL     1      28.479   4.680  48.411  1.00  0.00    -0.356 OA
HETATM   21  C1  UNL     1      29.286   5.815  48.121  1.00  0.00     0.210 C 
ENDBRANCH  18  20
ENDBRANCH   1  14
TORSDOF 2
ENDMDL
MODEL 6
REMARK VINA RESULT:      -8.0      3.407      7.386
REMARK  2 active torsions:
REMARK  status: ('A' for Active; 'I' for Inactive)
REMARK    1  A    between atoms: O1_2  and  C2_3 
REMARK    2  A    between atoms: C6_7  and  C7_8 
ROOT
HETATM    1  C7  UNL     1      23.375   0.210  53.123  1.00  0.00    -0.024 A 
HETATM    2  C8  UNL     1      22.740  -0.868  53.714  1.00  0.00     0.013 A 
HETATM    3  C9  UNL     1      21.380  -1.059  53.573  1.00  0.00     0.015 A 
HETATM    4  C10 UNL     1      20.630  -0.169  52.834  1.00  0.00     0.007 A 
HETATM    5  C11 UNL     1      21.262   0.918  52.237  1.00  0.00     0.047 A 
HETATM    6  C12 UNL     1      22.628   1.112  52.376  1.00  0.00     0.042 A 
HETATM    7  N1  UNL     1      20.333   1.728  51.516  1.00  0.00    -0.322 N 
HETATM    8  C13 UNL     1      19.022   1.149  51.641  1.00  0.00     0.258 A 
HETATM    9  O2  UNL     1      17.949   1.580  51.145  1.00  0.00    -0.267 OA
HETATM   10  C14 UNL     1      19.231  -0.018  52.458  1.00  0.00     0.055 A 
HETATM   11  C15 UNL     1      18.257  -0.837  52.810  1.00  0.00     0.102 C 
HETATM   12 CL1  UNL     1      18.377  -2.279  53.790  1.00  0.00    -0.096 Cl
HETATM   13  H10 UNL     1      20.553   2.599  50.981  1.00  0.00     0.169 HD
ENDROOT
BRANCH   1  14
HETATM   14  C6  UNL     1      24.818   0.405  53.278  1.00  0.00    -0.023 A 
HETATM   15  C5  UNL     1      25.260   1.708  53.408  1.00  0.00     0.012 A 
HETATM   16  C4  UNL     1      26.599   1.978  53.558  1.00  0.00     0.004 A 
HETATM   17  C3  UNL     1      27.543   0.952  53.581  1.00  0.00     0.037 A 
HETATM   18  C2  UNL     1      27.098  -0.349  53.450  1.00  0.00     0.069 A 
HETATM   19  C16 UNL     1      25.744  -0.630  53.299  1.00  0.00     0.049 A 
BRANCH  18  20
HETATM   20  O1  UNL     1      27.891  -1.485  53.452  1.00  0.00    -0.356 OA
HETATM   21  C1  UNL     1      29.310  -1.385  53.438  1.00  0.00     0.210 C 
ENDBRANCH  18  20
ENDBRANCH   1  14
TORSDOF 2
ENDMDL
MODEL 7
REMARK VINA RESULT:      -7.9      4.909      6.082
REMARK  2 active torsions:
REMARK  status: ('A' for Active; 'I' for Inactive)
REMARK    1  A    between atoms: O1_2  and  C2_3 
REMARK    2  A    between atoms: C6_7  and  C7_8 
ROOT
HETATM    1  C7  UNL     1      25.603   3.343  50.648  1.00  0.00    -0.024 A 
HETATM    2  C8  UNL     1      24.295   3.197  51.079  1.00  0.00     0.013 A 
HETATM    3  C9  UNL     1      23.919   2.124  51.861  1.00  0.00     0.015 A 
HETATM    4  C10 UNL     1      24.848   1.175  52.227  1.00  0.00     0.007 A 
HETATM    5  C11 UNL     1      26.165   1.314  51.797  1.00  0.00     0.047 A 
HETATM    6  C12 UNL     1      26.547   2.391  51.012  1.00  0.00     0.042 A 
HETATM    7  N1  UNL     1      26.983   0.244  52.270  1.00  0.00    -0.322 N 
HETATM    8  C13 UNL     1      26.168  -0.649  53.050  1.00  0.00     0.258 A 
HETATM    9  O2  UNL     1      26.535  -1.705  53.628  1.00  0.00    -0.267 OA
HETATM   10  C14 UNL     1      24.858  -0.054  53.009  1.00  0.00     0.055 A 
HETATM   11  C15 UNL     1      23.808  -0.578  53.615  1.00  0.00     0.102 C 
HETATM   12 CL1  UNL     1      22.174   0.041  53.643  1.00  0.00    -0.096 Cl
HETATM   13  H10 UNL     1      28.004   0.116  52.087  1.00  0.00     0.169 HD
ENDROOT
BRANCH   1  14
HETATM   14  C6  UNL     1      25.994   4.485  49.819  1.00  0.00    -0.023 A 
HETATM   15  C5  UNL     1      27.218   4.402  49.184  1.00  0.00     0.012 A 
HETATM   16  C4  UNL     1      27.660   5.430  48.386  1.00  0.00     0.004 A 
HETATM   17  C3  UNL     1      26.892   6.578  48.198  1.00  0.00     0.037 A 
HETATM   18  C2  UNL     1      25.669   6.658  48.835  1.00  0.00     0.069 A 
HETATM   19  C16 UNL     1      25.214   5.621  49.644  1.00  0.00     0.049 A 
BRANCH  18  20
HETATM   20  O1  UNL     1      24.781   7.718  48.762  1.00  0.00    -0.356 OA
HETATM   21  C1  UNL     1      24.363   8.406  49.935  1.00  0.00     0.210 C 
ENDBRANCH  18  20
ENDBRANCH   1  14
TORSDOF 2
ENDMDL
MODEL 8
REMARK VINA RESULT:      -7.7      4.959      6.544
REMARK  2 active torsions:
REMARK  status: ('A' for Active; 'I' for Inactive)
REMARK    1  A    between atoms: O1_2  and  C2_3 
REMARK    2  A    between atoms: C6_7  and  C7_8 
ROOT
HETATM    1  C7  UNL     1      25.311   2.540  51.127  1.00  0.00    -0.024 A 
HETATM    2  C8  UNL     1      24.118   3.142  50.766  1.00  0.00     0.013 A 
HETATM    3  C9  UNL     1      24.101   4.262  49.958  1.00  0.00     0.015 A 
HETATM    4  C10 UNL     1      25.282   4.798  49.495  1.00  0.00     0.007 A 
HETATM    5  C11 UNL     1      26.486   4.199  49.854  1.00  0.00     0.047 A 
HETATM    6  C12 UNL     1      26.507   3.075  50.665  1.00  0.00     0.042 A 
HETATM    7  N1  UNL     1      27.601   4.887  49.286  1.00  0.00    -0.322 N 
HETATM    8  C13 UNL     1      27.111   5.998  48.513  1.00  0.00     0.258 A 
HETATM    9  O2  UNL     1      27.793   6.834  47.866  1.00  0.00    -0.267 OA
HETATM   10  C14 UNL     1      25.680   5.922  48.658  1.00  0.00     0.055 A 
HETATM   11  C15 UNL     1      24.850   6.778  48.090  1.00  0.00     0.102 C 
HETATM   12 CL1  UNL     1      23.106   6.796  48.185  1.00  0.00    -0.096 Cl
HETATM   13  H10 UNL     1      28.609   4.639  49.403  1.00  0.00     0.169 HD
ENDROOT
BRANCH   1  14
HETATM   14  C6  UNL     1      25.320   1.354  51.984  1.00  0.00    -0.023 A 
HETATM   15  C5  UNL     1      24.097   0.916  52.456  1.00  0.00     0.012 A 
HETATM   16  C4  UNL     1      24.018  -0.191  53.267  1.00  0.00     0.004 A 
HETATM   17  C3  UNL     1      25.161  -0.898  53.635  1.00  0.00     0.037 A 
HETATM   18  C2  UNL     1      26.383  -0.458  53.162  1.00  0.00     0.069 A 
HETATM   19  C16 UNL     1      26.471   0.661  52.340  1.00  0.00     0.049 A 
BRANCH  18  20
HETATM   20  O1  UNL     1      27.614  -1.036  53.426  1.00  0.00    -0.356 OA
HETATM   21  C1  UNL     1      28.622  -0.320  54.127  1.00  0.00     0.210 C 
ENDBRANCH  18  20
ENDBRANCH   1  14
TORSDOF 2
ENDMDL
MODEL 9
REMARK VINA RESULT:      -7.6      4.894      5.975
REMARK  2 active torsions:
REMARK  status: ('A' for Active; 'I' for Inactive)
REMARK    1  A    between atoms: O1_2  and  C2_3 
REMARK    2  A    between atoms: C6_7  and  C7_8 
ROOT
HETATM    1  C7  UNL     1      24.825   2.744  50.968  1.00  0.00    -0.024 A 
HETATM    2  C8  UNL     1      26.155   2.653  50.599  1.00  0.00     0.013 A 
HETATM    3  C9  UNL     1      26.763   3.656  49.869  1.00  0.00     0.015 A 
HETATM    4  C10 UNL     1      26.045   4.772  49.498  1.00  0.00     0.007 A 
HETATM    5  C11 UNL     1      24.705   4.871  49.865  1.00  0.00     0.047 A 
HETATM    6  C12 UNL     1      24.093   3.865  50.597  1.00  0.00     0.042 A 
HETATM    7  N1  UNL     1      24.125   6.088  49.395  1.00  0.00    -0.322 N 
HETATM    8  C13 UNL     1      25.129   6.832  48.681  1.00  0.00     0.258 A 
HETATM    9  O2  UNL     1      24.993   7.951  48.123  1.00  0.00    -0.267 OA
HETATM   10  C14 UNL     1      26.302   6.000  48.758  1.00  0.00     0.055 A 
HETATM   11  C15 UNL     1      27.459   6.333  48.216  1.00  0.00     0.102 C 
HETATM   12 CL1  UNL     1      28.949   5.420  48.238  1.00  0.00    -0.096 Cl
HETATM   13  H10 UNL     1      23.138   6.400  49.537  1.00  0.00     0.169 HD
ENDROOT
BRANCH   1  14
HETATM   14  C6  UNL     1      24.188   1.676  51.741  1.00  0.00    -0.023 A 
HETATM   15  C5  UNL     1      22.878   1.373  51.423  1.00  0.00     0.012 A 
HETATM   16  C4  UNL     1      22.208   0.382  52.100  1.00  0.00     0.004 A 
HETATM   17  C3  UNL     1      22.826  -0.338  53.122  1.00  0.00     0.037 A 
HETATM   18  C2  UNL     1      24.135  -0.032  53.438  1.00  0.00     0.069 A 
HETATM   19  C16 UNL     1      24.821   0.969  52.756  1.00  0.00     0.049 A 
BRANCH  18  20
HETATM   20  O1  UNL     1      24.900  -0.642  54.418  1.00  0.00    -0.356 OA
HETATM   21  C1  UNL     1      26.156  -0.102  54.808  1.00  0.00     0.210 C 
ENDBRANCH  18  20
ENDBRANCH   1  14
TORSDOF 2
ENDMDL
