MODEL 1
REMARK VINA RESULT:      -9.5      0.000      0.000
REMARK  2 active torsions:
REMARK  status: ('A' for Active; 'I' for Inactive)
REMARK    1  A    between atoms: C3_3  and  O1_4 
REMARK    2  A    between atoms: O1_4  and  C4_5 
ROOT
HETATM    1  C4  UNL     1      24.242   2.111  52.554  1.00  0.00     0.183 C 
HETATM    2  C5  UNL     1      23.462   1.161  51.770  1.00  0.00     0.155 C 
HETATM    3  N1  UNL     1      22.810   1.682  50.558  1.00  0.00    -0.391 N 
HETATM    4  C6  UNL     1      23.465   2.772  49.916  1.00  0.00     0.024 C 
HETATM    5  C7  UNL     1      24.682   3.351  50.037  1.00  0.00     0.104 A 
HETATM    6  C8  UNL     1      25.945   3.548  49.339  1.00  0.00     0.048 C 
HETATM    7  C9  UNL     1      25.480   5.049  49.060  1.00  0.00     0.036 C 
HETATM    8  C10 UNL     1      25.096   5.058  50.323  1.00  0.00     0.147 A 
HETATM    9  C11 UNL     1      24.989   6.572  50.475  1.00  0.00     0.249 C 
HETATM   10  O2  UNL     1      25.326   7.721  50.645  1.00  0.00    -0.271 OA
HETATM   11  N2  UNL     1      23.613   7.109  50.338  1.00  0.00    -0.357 N 
HETATM   12  C12 UNL     1      22.364   7.795  50.230  1.00  0.00     0.142 C 
HETATM   13  C13 UNL     1      21.277   6.780  50.055  1.00  0.00     0.142 C 
HETATM   14  N3  UNL     1      21.376   5.892  48.936  1.00  0.00    -0.385 N 
HETATM   15  C14 UNL     1      20.473   5.813  47.777  1.00  0.00     0.123 C 
HETATM   16  C15 UNL     1      21.419   5.961  46.636  1.00  0.00     0.025 C 
HETATM   17  C16 UNL     1      22.545   5.032  47.055  1.00  0.00     0.054 C 
HETATM   18  C17 UNL     1      22.289   4.806  48.528  1.00  0.00    -0.005 C 
HETATM   19  C18 UNL     1      23.017   3.729  48.908  1.00  0.00     0.094 C 
HETATM   20  N4  UNL     1      24.583   4.172  51.252  1.00  0.00    -0.356 N 
HETATM   21  C19 UNL     1      24.110   3.583  52.417  1.00  0.00     0.210 C 
HETATM   22 CL1  UNL     1      22.438   4.061  52.746  1.00  0.00    -0.100 Cl
HETATM   23  H7  UNL     1      21.998   1.635  49.868  1.00  0.00     0.159 HD
HETATM   24  H11 UNL     1      23.205   6.182  50.273  1.00  0.00     0.162 HD
ENDROOT
BRANCH   1  25
HETATM   25  O1  UNL     1      25.613   1.740  52.458  1.00  0.00    -0.345 OA
BRANCH  25  26
HETATM   26  C3  UNL     1      26.186   0.574  52.850  1.00  0.00     0.053 C 
HETATM   27  C2  UNL     1      27.428   0.895  53.191  1.00  0.00    -0.048 C 
HETATM   28  C1  UNL     1      27.784   2.320  53.048  1.00  0.00     0.046 C 
HETATM   29  C23 UNL     1      28.501  -0.035  53.699  1.00  0.00     0.106 C 
HETATM   30  C22 UNL     1      28.277  -1.397  53.146  1.00  0.00     0.094 C 
HETATM   31  C21 UNL     1      27.022  -1.713  52.842  1.00  0.00     0.018 C 
HETATM   32  F1  UNL     1      29.406  -2.159  53.023  1.00  0.00    -0.211 F 
HETATM   33  C20 UNL     1      25.809  -0.862  52.988  1.00  0.00     0.094 C 
ENDBRANCH  25  26
ENDBRANCH   1  25
TORSDOF 2
ENDMDL
MODEL 2
REMARK VINA RESULT:      -9.3      3.711      5.442
REMARK  2 active torsions:
REMARK  status: ('A' for Active; 'I' for Inactive)
REMARK    1  A    between atoms: C3_3  and  O1_4 
REMARK    2  A    between atoms: O1_4  and  C4_5 
ROOT
HETATM    1  C4  UNL     1      20.428   1.970  50.129  1.00  0.00     0.183 C 
HETATM    2  C5  UNL     1      20.892   1.555  48.812  1.00  0.00     0.155 C 
HETATM    3  N1  UNL     1      22.161   2.136  48.344  1.00  0.00    -0.391 N 
HETATM    4  C6  UNL     1      23.100   2.482  49.358  1.00  0.00     0.024 C 
HETATM    5  C7  UNL     1      23.202   2.228  50.683  1.00  0.00     0.104 A 
HETATM    6  C8  UNL     1      23.995   1.503  51.666  1.00  0.00     0.048 C 
HETATM    7  C9  UNL     1      24.629   2.904  52.089  1.00  0.00     0.036 C 
HETATM    8  C10 UNL     1      23.394   3.366  52.039  1.00  0.00     0.147 A 
HETATM    9  C11 UNL     1      23.637   4.639  52.841  1.00  0.00     0.249 C 
HETATM   10  O2  UNL     1      23.791   5.366  53.795  1.00  0.00    -0.271 OA
HETATM   11  N2  UNL     1      23.834   5.857  52.018  1.00  0.00    -0.357 N 
HETATM   12  C12 UNL     1      24.049   7.122  51.387  1.00  0.00     0.142 C 
HETATM   13  C13 UNL     1      23.892   6.948  49.907  1.00  0.00     0.142 C 
HETATM   14  N3  UNL     1      24.745   5.996  49.261  1.00  0.00    -0.385 N 
HETATM   15  C14 UNL     1      25.791   6.268  48.263  1.00  0.00     0.123 C 
HETATM   16  C15 UNL     1      26.981   5.615  48.877  1.00  0.00     0.025 C 
HETATM   17  C16 UNL     1      26.397   4.290  49.334  1.00  0.00     0.054 C 
HETATM   18  C17 UNL     1      24.904   4.528  49.294  1.00  0.00    -0.005 C 
HETATM   19  C18 UNL     1      24.297   3.319  49.342  1.00  0.00     0.094 C 
HETATM   20  N4  UNL     1      22.239   3.145  51.311  1.00  0.00    -0.356 N 
HETATM   21  C19 UNL     1      20.936   3.175  50.831  1.00  0.00     0.210 C 
HETATM   22 CL1  UNL     1      20.653   4.607  49.830  1.00  0.00    -0.100 Cl
HETATM   23  H7  UNL     1      22.769   2.463  47.532  1.00  0.00     0.159 HD
HETATM   24  H11 UNL     1      23.632   5.366  51.153  1.00  0.00     0.162 HD
ENDROOT
BRANCH   1  25
HETATM   25  O1  UNL     1      20.498   0.843  50.996  1.00  0.00    -0.345 OA
BRANCH  25  26
HETATM   26  C3  UNL     1      19.493   0.291  51.723  1.00  0.00     0.053 C 
HETATM   27  C2  UNL     1      20.094  -0.336  52.726  1.00  0.00    -0.048 C 
HETATM   28  C1  UNL     1      21.568  -0.252  52.745  1.00  0.00     0.046 C 
HETATM   29  C23 UNL     1      19.436  -1.121  53.833  1.00  0.00     0.106 C 
HETATM   30  C22 UNL     1      18.158  -1.696  53.338  1.00  0.00     0.094 C 
HETATM   31  C21 UNL     1      17.553  -1.035  52.356  1.00  0.00     0.018 C 
HETATM   32  F1  UNL     1      17.763  -2.845  53.968  1.00  0.00    -0.211 F 
HETATM   33  C20 UNL     1      18.005   0.216  51.689  1.00  0.00     0.094 C 
ENDBRANCH  25  26
ENDBRANCH   1  25
TORSDOF 2
ENDMDL
MODEL 3
REMARK VINA RESULT:      -8.7      3.827      6.198
REMARK  2 active torsions:
REMARK  status: ('A' for Active; 'I' for Inactive)
REMARK    1  A    between atoms: C3_3  and  O1_4 
REMARK    2  A    between atoms: O1_4  and  C4_5 
ROOT
HETATM    1  C4  UNL     1      24.661   7.149  49.255  1.00  0.00     0.183 C 
HETATM    2  C5  UNL     1      24.275   7.708  50.544  1.00  0.00     0.155 C 
HETATM    3  N1  UNL     1      23.239   6.981  51.296  1.00  0.00    -0.391 N 
HETATM    4  C6  UNL     1      23.183   5.574  51.080  1.00  0.00     0.024 C 
HETATM    5  C7  UNL     1      23.994   4.674  50.478  1.00  0.00     0.104 A 
HETATM    6  C8  UNL     1      24.865   3.538  50.747  1.00  0.00     0.048 C 
HETATM    7  C9  UNL     1      23.717   2.603  50.154  1.00  0.00     0.036 C 
HETATM    8  C10 UNL     1      23.620   3.501  49.192  1.00  0.00     0.147 A 
HETATM    9  C11 UNL     1      22.859   2.630  48.198  1.00  0.00     0.249 C 
HETATM   10  O2  UNL     1      22.653   1.801  47.343  1.00  0.00    -0.271 OA
HETATM   11  N2  UNL     1      21.393   2.854  48.181  1.00  0.00    -0.357 N 
HETATM   12  C12 UNL     1      19.973   2.934  48.035  1.00  0.00     0.142 C 
HETATM   13  C13 UNL     1      19.465   4.032  48.919  1.00  0.00     0.142 C 
HETATM   14  N3  UNL     1      19.748   3.936  50.319  1.00  0.00    -0.385 N 
HETATM   15  C14 UNL     1      18.781   3.761  51.414  1.00  0.00     0.123 C 
HETATM   16  C15 UNL     1      19.316   2.557  52.110  1.00  0.00     0.025 C 
HETATM   17  C16 UNL     1      20.800   2.876  52.166  1.00  0.00     0.054 C 
HETATM   18  C17 UNL     1      20.962   3.990  51.157  1.00  0.00    -0.005 C 
HETATM   19  C18 UNL     1      22.162   4.575  51.385  1.00  0.00     0.094 C 
HETATM   20  N4  UNL     1      23.760   4.868  49.040  1.00  0.00    -0.356 N 
HETATM   21  C19 UNL     1      23.843   6.153  48.519  1.00  0.00     0.210 C 
HETATM   22 CL1  UNL     1      22.235   6.824  48.205  1.00  0.00    -0.100 Cl
HETATM   23  H7  UNL     1      22.426   7.007  51.985  1.00  0.00     0.159 HD
HETATM   24  H11 UNL     1      21.453   3.631  48.831  1.00  0.00     0.162 HD
ENDROOT
BRANCH   1  25
HETATM   25  O1  UNL     1      26.003   6.684  49.362  1.00  0.00    -0.345 OA
BRANCH  25  26
HETATM   26  C3  UNL     1      27.131   7.297  48.920  1.00  0.00     0.053 C 
HETATM   27  C2  UNL     1      27.921   6.313  48.507  1.00  0.00    -0.048 C 
HETATM   28  C1  UNL     1      27.374   4.949  48.645  1.00  0.00     0.046 C 
HETATM   29  C23 UNL     1      29.305   6.443  47.922  1.00  0.00     0.106 C 
HETATM   30  C22 UNL     1      29.961   7.659  48.470  1.00  0.00     0.094 C 
HETATM   31  C21 UNL     1      29.155   8.647  48.847  1.00  0.00     0.018 C 
HETATM   32  F1  UNL     1      31.327   7.604  48.514  1.00  0.00    -0.211 F 
HETATM   33  C20 UNL     1      27.668   8.681  48.787  1.00  0.00     0.094 C 
ENDBRANCH  25  26
ENDBRANCH   1  25
TORSDOF 2
ENDMDL
MODEL 4
REMARK VINA RESULT:      -8.6      2.814      4.355
REMARK  2 active torsions:
REMARK  status: ('A' for Active; 'I' for Inactive)
REMARK    1  A    between atoms: C3_3  and  O1_4 
REMARK    2  A    between atoms: O1_4  and  C4_5 
ROOT
HETATM    1  C4  UNL     1      23.958   3.065  51.826  1.00  0.00     0.183 C 
HETATM    2  C5  UNL     1      24.081   4.068  52.876  1.00  0.00     0.155 C 
HETATM    3  N1  UNL     1      23.528   5.401  52.587  1.00  0.00    -0.391 N 
HETATM    4  C6  UNL     1      22.422   5.435  51.690  1.00  0.00     0.024 C 
HETATM    5  C7  UNL     1      21.598   4.500  51.162  1.00  0.00     0.104 A 
HETATM    6  C8  UNL     1      20.222   4.025  51.181  1.00  0.00     0.048 C 
HETATM    7  C9  UNL     1      20.039   4.706  49.749  1.00  0.00     0.036 C 
HETATM    8  C10 UNL     1      21.209   4.172  49.457  1.00  0.00     0.147 A 
HETATM    9  C11 UNL     1      21.102   4.303  47.941  1.00  0.00     0.249 C 
HETATM   10  O2  UNL     1      20.786   4.053  46.801  1.00  0.00    -0.271 OA
HETATM   11  N2  UNL     1      21.805   5.479  47.374  1.00  0.00    -0.357 N 
HETATM   12  C12 UNL     1      22.418   6.556  46.661  1.00  0.00     0.142 C 
HETATM   13  C13 UNL     1      23.199   7.387  47.633  1.00  0.00     0.142 C 
HETATM   14  N3  UNL     1      22.487   7.954  48.738  1.00  0.00    -0.385 N 
HETATM   15  C14 UNL     1      22.253   9.381  49.010  1.00  0.00     0.123 C 
HETATM   16  C15 UNL     1      20.771   9.429  49.153  1.00  0.00     0.025 C 
HETATM   17  C16 UNL     1      20.512   8.218  50.031  1.00  0.00     0.054 C 
HETATM   18  C17 UNL     1      21.797   7.426  49.932  1.00  0.00    -0.005 C 
HETATM   19  C18 UNL     1      21.799   6.525  50.942  1.00  0.00     0.094 C 
HETATM   20  N4  UNL     1      22.393   3.863  50.102  1.00  0.00    -0.356 N 
HETATM   21  C19 UNL     1      23.666   3.400  50.409  1.00  0.00     0.210 C 
HETATM   22 CL1  UNL     1      24.914   4.489  49.787  1.00  0.00    -0.100 Cl
HETATM   23  H7  UNL     1      23.569   6.456  52.733  1.00  0.00     0.159 HD
HETATM   24  H11 UNL     1      22.204   5.736  48.271  1.00  0.00     0.162 HD
ENDROOT
BRANCH   1  25
HETATM   25  O1  UNL     1      23.057   2.061  52.279  1.00  0.00    -0.345 OA
BRANCH  25  26
HETATM   26  C3  UNL     1      23.362   0.886  52.888  1.00  0.00     0.053 C 
HETATM   27  C2  UNL     1      22.209   0.430  53.358  1.00  0.00    -0.048 C 
HETATM   28  C1  UNL     1      21.028   1.277  53.097  1.00  0.00     0.046 C 
HETATM   29  C23 UNL     1      21.981  -0.848  54.127  1.00  0.00     0.106 C 
HETATM   30  C22 UNL     1      23.211  -1.193  54.887  1.00  0.00     0.094 C 
HETATM   31  C21 UNL     1      24.361  -0.755  54.382  1.00  0.00     0.018 C 
HETATM   32  F1  UNL     1      22.998  -1.927  56.021  1.00  0.00    -0.211 F 
HETATM   33  C20 UNL     1      24.564   0.043  53.143  1.00  0.00     0.094 C 
ENDBRANCH  25  26
ENDBRANCH   1  25
TORSDOF 2
ENDMDL
MODEL 5
REMARK VINA RESULT:      -8.5      2.027      3.178
REMARK  2 active torsions:
REMARK  status: ('A' for Active; 'I' for Inactive)
REMARK    1  A    between atoms: C3_3  and  O1_4 
REMARK    2  A    between atoms: O1_4  and  C4_5 
ROOT
HETATM    1  C4  UNL     1      25.115   1.940  50.766  1.00  0.00     0.183 C 
HETATM    2  C5  UNL     1      26.097   2.888  50.257  1.00  0.00     0.155 C 
HETATM    3  N1  UNL     1      25.608   4.238  49.933  1.00  0.00    -0.391 N 
HETATM    4  C6  UNL     1      24.497   4.698  50.697  1.00  0.00     0.024 C 
HETATM    5  C7  UNL     1      23.872   4.267  51.816  1.00  0.00     0.104 A 
HETATM    6  C8  UNL     1      23.630   4.607  53.212  1.00  0.00     0.048 C 
HETATM    7  C9  UNL     1      22.150   5.021  52.785  1.00  0.00     0.036 C 
HETATM    8  C10 UNL     1      22.148   3.907  52.079  1.00  0.00     0.147 A 
HETATM    9  C11 UNL     1      20.639   3.811  51.882  1.00  0.00     0.249 C 
HETATM   10  O2  UNL     1      19.477   3.574  52.120  1.00  0.00    -0.271 OA
HETATM   11  N2  UNL     1      20.156   4.316  50.575  1.00  0.00    -0.357 N 
HETATM   12  C12 UNL     1      19.518   4.763  49.376  1.00  0.00     0.142 C 
HETATM   13  C13 UNL     1      20.574   5.206  48.411  1.00  0.00     0.142 C 
HETATM   14  N3  UNL     1      21.463   6.245  48.836  1.00  0.00    -0.385 N 
HETATM   15  C14 UNL     1      21.582   7.601  48.277  1.00  0.00     0.123 C 
HETATM   16  C15 UNL     1      21.404   8.451  49.487  1.00  0.00     0.025 C 
HETATM   17  C16 UNL     1      22.288   7.734  50.493  1.00  0.00     0.054 C 
HETATM   18  C17 UNL     1      22.516   6.379  49.862  1.00  0.00    -0.005 C 
HETATM   19  C18 UNL     1      23.562   5.804  50.500  1.00  0.00     0.094 C 
HETATM   20  N4  UNL     1      23.049   3.134  51.368  1.00  0.00    -0.356 N 
HETATM   21  C19 UNL     1      23.649   2.128  50.623  1.00  0.00     0.210 C 
HETATM   22 CL1  UNL     1      23.234   2.263  48.908  1.00  0.00    -0.100 Cl
HETATM   23  H7  UNL     1      25.688   5.118  49.336  1.00  0.00     0.159 HD
HETATM   24  H11 UNL     1      21.098   4.474  50.231  1.00  0.00     0.162 HD
ENDROOT
BRANCH   1  25
HETATM   25  O1  UNL     1      25.434   1.662  52.125  1.00  0.00    -0.345 OA
BRANCH  25  26
HETATM   26  C3  UNL     1      26.177   0.634  52.609  1.00  0.00     0.053 C 
HETATM   27  C2  UNL     1      26.856   1.147  53.628  1.00  0.00    -0.048 C 
HETATM   28  C1  UNL     1      26.616   2.577  53.905  1.00  0.00     0.046 C 
HETATM   29  C23 UNL     1      27.840   0.430  54.519  1.00  0.00     0.106 C 
HETATM   30  C22 UNL     1      28.483  -0.672  53.757  1.00  0.00     0.094 C 
HETATM   31  C21 UNL     1      27.775  -1.196  52.762  1.00  0.00     0.018 C 
HETATM   32  F1  UNL     1      29.737  -1.011  54.187  1.00  0.00    -0.211 F 
HETATM   33  C20 UNL     1      26.409  -0.808  52.316  1.00  0.00     0.094 C 
ENDBRANCH  25  26
ENDBRANCH   1  25
TORSDOF 2
ENDMDL
MODEL 6
REMARK VINA RESULT:      -8.5      1.944      2.365
REMARK  2 active torsions:
REMARK  status: ('A' for Active; 'I' for Inactive)
REMARK    1  A    between atoms: C3_3  and  O1_4 
REMARK    2  A    between atoms: O1_4  and  C4_5 
ROOT
HETATM    1  C4  UNL     1      22.776   1.683  52.423  1.00  0.00     0.183 C 
HETATM    2  C5  UNL     1      22.285   0.455  51.811  1.00  0.00     0.155 C 
HETATM    3  N1  UNL     1      21.485   0.600  50.584  1.00  0.00    -0.391 N 
HETATM    4  C6  UNL     1      21.785   1.734  49.775  1.00  0.00     0.024 C 
HETATM    5  C7  UNL     1      22.787   2.643  49.750  1.00  0.00     0.104 A 
HETATM    6  C8  UNL     1      23.925   3.091  48.959  1.00  0.00     0.048 C 
HETATM    7  C9  UNL     1      23.042   4.347  48.525  1.00  0.00     0.036 C 
HETATM    8  C10 UNL     1      22.699   4.420  49.797  1.00  0.00     0.147 A 
HETATM    9  C11 UNL     1      22.166   5.848  49.767  1.00  0.00     0.249 C 
HETATM   10  O2  UNL     1      22.162   7.057  49.773  1.00  0.00    -0.271 OA
HETATM   11  N2  UNL     1      20.691   5.952  49.647  1.00  0.00    -0.357 N 
HETATM   12  C12 UNL     1      19.296   6.237  49.529  1.00  0.00     0.142 C 
HETATM   13  C13 UNL     1      18.542   4.943  49.547  1.00  0.00     0.142 C 
HETATM   14  N3  UNL     1      18.868   3.976  48.542  1.00  0.00    -0.385 N 
HETATM   15  C14 UNL     1      18.000   3.489  47.458  1.00  0.00     0.123 C 
HETATM   16  C15 UNL     1      18.839   3.741  46.253  1.00  0.00     0.025 C 
HETATM   17  C16 UNL     1      20.193   3.232  46.716  1.00  0.00     0.054 C 
HETATM   18  C17 UNL     1      20.045   3.145  48.218  1.00  0.00    -0.005 C 
HETATM   19  C18 UNL     1      21.060   2.380  48.684  1.00  0.00     0.094 C 
HETATM   20  N4  UNL     1      22.483   3.560  50.858  1.00  0.00    -0.356 N 
HETATM   21  C19 UNL     1      22.224   3.025  52.113  1.00  0.00     0.210 C 
HETATM   22 CL1  UNL     1      20.493   3.053  52.479  1.00  0.00    -0.100 Cl
HETATM   23  H7  UNL     1      20.706   0.234  49.956  1.00  0.00     0.159 HD
HETATM   24  H11 UNL     1      20.565   4.948  49.722  1.00  0.00     0.162 HD
ENDROOT
BRANCH   1  25
HETATM   25  O1  UNL     1      24.194   1.704  52.292  1.00  0.00    -0.345 OA
BRANCH  25  26
HETATM   26  C3  UNL     1      25.093   0.867  52.872  1.00  0.00     0.053 C 
HETATM   27  C2  UNL     1      26.280   1.305  52.473  1.00  0.00    -0.048 C 
HETATM   28  C1  UNL     1      26.265   2.482  51.583  1.00  0.00     0.046 C 
HETATM   29  C23 UNL     1      27.628   0.728  52.827  1.00  0.00     0.106 C 
HETATM   30  C22 UNL     1      27.489  -0.730  53.083  1.00  0.00     0.094 C 
HETATM   31  C21 UNL     1      26.302  -1.145  53.514  1.00  0.00     0.018 C 
HETATM   32  F1  UNL     1      28.618  -1.465  52.840  1.00  0.00    -0.211 F 
HETATM   33  C20 UNL     1      25.089  -0.321  53.771  1.00  0.00     0.094 C 
ENDBRANCH  25  26
ENDBRANCH   1  25
TORSDOF 2
ENDMDL
MODEL 7
REMARK VINA RESULT:      -8.3      3.502      4.610
REMARK  2 active torsions:
REMARK  status: ('A' for Active; 'I' for Inactive)
REMARK    1  A    between atoms: C3_3  and  O1_4 
REMARK    2  A    between atoms: O1_4  and  C4_5 
ROOT
HETATM    1  C4  UNL     1      24.135   5.655  50.510  1.00  0.00     0.183 C 
HETATM    2  C5  UNL     1      23.316   5.245  49.377  1.00  0.00     0.155 C 
HETATM    3  N1  UNL     1      23.515   5.977  48.116  1.00  0.00    -0.391 N 
HETATM    4  C6  UNL     1      24.821   6.504  47.902  1.00  0.00     0.024 C 
HETATM    5  C7  UNL     1      26.023   6.335  48.500  1.00  0.00     0.104 A 
HETATM    6  C8  UNL     1      27.353   5.781  48.290  1.00  0.00     0.048 C 
HETATM    7  C9  UNL     1      27.875   7.278  48.115  1.00  0.00     0.036 C 
HETATM    8  C10 UNL     1      27.132   7.555  49.169  1.00  0.00     0.147 A 
HETATM    9  C11 UNL     1      27.785   8.890  49.514  1.00  0.00     0.249 C 
HETATM   10  O2  UNL     1      28.585   9.679  49.962  1.00  0.00    -0.271 OA
HETATM   11  N2  UNL     1      27.049  10.080  49.024  1.00  0.00    -0.357 N 
HETATM   12  C12 UNL     1      26.478  11.329  48.625  1.00  0.00     0.142 C 
HETATM   13  C13 UNL     1      25.168  11.059  47.949  1.00  0.00     0.142 C 
HETATM   14  N3  UNL     1      25.182  10.208  46.798  1.00  0.00    -0.385 N 
HETATM   15  C14 UNL     1      24.855  10.576  45.412  1.00  0.00     0.123 C 
HETATM   16  C15 UNL     1      26.073  10.132  44.678  1.00  0.00     0.025 C 
HETATM   17  C16 UNL     1      26.310   8.761  45.289  1.00  0.00     0.054 C 
HETATM   18  C17 UNL     1      25.468   8.781  46.544  1.00  0.00    -0.005 C 
HETATM   19  C18 UNL     1      25.334   7.502  46.966  1.00  0.00     0.094 C 
HETATM   20  N4  UNL     1      25.940   7.136  49.730  1.00  0.00    -0.356 N 
HETATM   21  C19 UNL     1      24.850   6.955  50.571  1.00  0.00     0.210 C 
HETATM   22 CL1  UNL     1      23.687   8.279  50.410  1.00  0.00    -0.100 Cl
HETATM   23  H7  UNL     1      23.109   6.346  47.202  1.00  0.00     0.159 HD
HETATM   24  H11 UNL     1      26.272   9.522  48.685  1.00  0.00     0.162 HD
ENDROOT
BRANCH   1  25
HETATM   25  O1  UNL     1      25.037   4.595  50.808  1.00  0.00    -0.345 OA
BRANCH  25  26
HETATM   26  C3  UNL     1      24.869   3.589  51.703  1.00  0.00     0.053 C 
HETATM   27  C2  UNL     1      25.700   2.632  51.310  1.00  0.00    -0.048 C 
HETATM   28  C1  UNL     1      26.499   2.930  50.105  1.00  0.00     0.046 C 
HETATM   29  C23 UNL     1      25.909   1.286  51.958  1.00  0.00     0.106 C 
HETATM   30  C22 UNL     1      24.655   0.863  52.633  1.00  0.00     0.094 C 
HETATM   31  C21 UNL     1      23.850   1.835  53.049  1.00  0.00     0.018 C 
HETATM   32  F1  UNL     1      24.490  -0.491  52.742  1.00  0.00    -0.211 F 
HETATM   33  C20 UNL     1      24.055   3.304  52.918  1.00  0.00     0.094 C 
ENDBRANCH  25  26
ENDBRANCH   1  25
TORSDOF 2
ENDMDL
MODEL 8
REMARK VINA RESULT:      -8.2      3.795      6.137
REMARK  2 active torsions:
REMARK  status: ('A' for Active; 'I' for Inactive)
REMARK    1  A    between atoms: C3_3  and  O1_4 
REMARK    2  A    between atoms: O1_4  and  C4_5 
ROOT
HETATM    1  C4  UNL     1      23.653   6.579  49.966  1.00  0.00     0.183 C 
HETATM    2  C5  UNL     1      24.396   6.234  51.172  1.00  0.00     0.155 C 
HETATM    3  N1  UNL     1      24.003   4.994  51.859  1.00  0.00    -0.391 N 
HETATM    4  C6  UNL     1      23.463   3.967  51.032  1.00  0.00     0.024 C 
HETATM    5  C7  UNL     1      23.393   3.764  49.696  1.00  0.00     0.104 A 
HETATM    6  C8  UNL     1      23.893   2.912  48.626  1.00  0.00     0.048 C 
HETATM    7  C9  UNL     1      22.461   2.209  48.607  1.00  0.00     0.036 C 
HETATM    8  C10 UNL     1      21.971   3.432  48.679  1.00  0.00     0.147 A 
HETATM    9  C11 UNL     1      20.552   3.092  48.233  1.00  0.00     0.249 C 
HETATM   10  O2  UNL     1      19.623   2.842  47.500  1.00  0.00    -0.271 OA
HETATM   11  N2  UNL     1      19.580   2.932  49.341  1.00  0.00    -0.357 N 
HETATM   12  C12 UNL     1      18.518   2.737  50.277  1.00  0.00     0.142 C 
HETATM   13  C13 UNL     1      19.038   3.018  51.654  1.00  0.00     0.142 C 
HETATM   14  N3  UNL     1      20.156   2.245  52.107  1.00  0.00    -0.385 N 
HETATM   15  C14 UNL     1      20.180   1.277  53.215  1.00  0.00     0.123 C 
HETATM   16  C15 UNL     1      20.718   0.058  52.548  1.00  0.00     0.025 C 
HETATM   17  C16 UNL     1      21.865   0.638  51.739  1.00  0.00     0.054 C 
HETATM   18  C17 UNL     1      21.577   2.122  51.727  1.00  0.00    -0.005 C 
HETATM   19  C18 UNL     1      22.710   2.754  51.340  1.00  0.00     0.094 C 
HETATM   20  N4  UNL     1      22.309   4.648  49.244  1.00  0.00    -0.356 N 
HETATM   21  C19 UNL     1      22.338   5.984  49.621  1.00  0.00     0.210 C 
HETATM   22 CL1  UNL     1      21.180   6.312  50.919  1.00  0.00    -0.100 Cl
HETATM   23  H7  UNL     1      23.910   4.446  52.769  1.00  0.00     0.159 HD
HETATM   24  H11 UNL     1      20.257   3.217  50.042  1.00  0.00     0.162 HD
ENDROOT
BRANCH   1  25
HETATM   25  O1  UNL     1      24.539   6.467  48.857  1.00  0.00    -0.345 OA
BRANCH  25  26
HETATM   26  C3  UNL     1      25.867   6.189  48.881  1.00  0.00     0.053 C 
HETATM   27  C2  UNL     1      26.460   7.290  48.437  1.00  0.00    -0.048 C 
HETATM   28  C1  UNL     1      25.559   8.403  48.076  1.00  0.00     0.046 C 
HETATM   29  C23 UNL     1      27.940   7.519  48.260  1.00  0.00     0.106 C 
HETATM   30  C22 UNL     1      28.609   6.223  47.974  1.00  0.00     0.094 C 
HETATM   31  C21 UNL     1      28.019   5.133  48.456  1.00  0.00     0.018 C 
HETATM   32  F1  UNL     1      29.763   6.321  47.245  1.00  0.00    -0.211 F 
HETATM   33  C20 UNL     1      26.762   5.056  49.249  1.00  0.00     0.094 C 
ENDBRANCH  25  26
ENDBRANCH   1  25
TORSDOF 2
ENDMDL
MODEL 9
REMARK VINA RESULT:      -8.1      7.922      9.387
REMARK  2 active torsions:
REMARK  status: ('A' for Active; 'I' for Inactive)
REMARK    1  A    between atoms: C3_3  and  O1_4 
REMARK    2  A    between atoms: O1_4  and  C4_5 
ROOT
HETATM    1  C4  UNL     1      31.919   8.553  48.379  1.00  0.00     0.183 C 
HETATM    2  C5  UNL     1      31.404   8.693  49.735  1.00  0.00     0.155 C 
HETATM    3  N1  UNL     1      30.227   9.560  49.910  1.00  0.00    -0.391 N 
HETATM    4  C6  UNL     1      29.343   9.643  48.796  1.00  0.00     0.024 C 
HETATM    5  C7  UNL     1      29.205   8.953  47.640  1.00  0.00     0.104 A 
HETATM    6  C8  UNL     1      28.319   8.035  46.938  1.00  0.00     0.048 C 
HETATM    7  C9  UNL     1      27.881   9.266  46.022  1.00  0.00     0.036 C 
HETATM    8  C10 UNL     1      29.168   9.553  45.965  1.00  0.00     0.147 A 
HETATM    9  C11 UNL     1      29.100  10.481  44.757  1.00  0.00     0.249 C 
HETATM   10  O2  UNL     1      29.046  10.837  43.603  1.00  0.00    -0.271 OA
HETATM   11  N2  UNL     1      29.074  11.925  45.091  1.00  0.00    -0.357 N 
HETATM   12  C12 UNL     1      29.035  13.347  45.229  1.00  0.00     0.142 C 
HETATM   13  C13 UNL     1      29.168  13.689  46.681  1.00  0.00     0.142 C 
HETATM   14  N3  UNL     1      28.194  13.144  47.579  1.00  0.00    -0.385 N 
HETATM   15  C14 UNL     1      27.196  13.884  48.368  1.00  0.00     0.123 C 
HETATM   16  C15 UNL     1      25.927  13.215  47.967  1.00  0.00     0.025 C 
HETATM   17  C16 UNL     1      26.325  11.751  48.031  1.00  0.00     0.054 C 
HETATM   18  C17 UNL     1      27.836  11.793  48.055  1.00  0.00    -0.005 C 
HETATM   19  C18 UNL     1      28.271  10.578  48.462  1.00  0.00     0.094 C 
HETATM   20  N4  UNL     1      30.283   9.457  46.777  1.00  0.00    -0.356 N 
HETATM   21  C19 UNL     1      31.579   9.487  47.277  1.00  0.00     0.210 C 
HETATM   22 CL1  UNL     1      32.057  11.131  47.725  1.00  0.00    -0.100 Cl
HETATM   23  H7  UNL     1      29.671  10.228  50.527  1.00  0.00     0.159 HD
HETATM   24  H11 UNL     1      29.208  11.750  46.082  1.00  0.00     0.162 HD
ENDROOT
BRANCH   1  25
HETATM   25  O1  UNL     1      31.693   7.211  47.959  1.00  0.00    -0.345 OA
BRANCH  25  26
HETATM   26  C3  UNL     1      32.623   6.270  47.655  1.00  0.00     0.053 C 
HETATM   27  C2  UNL     1      31.953   5.125  47.602  1.00  0.00    -0.048 C 
HETATM   28  C1  UNL     1      30.505   5.216  47.873  1.00  0.00     0.046 C 
HETATM   29  C23 UNL     1      32.513   3.757  47.303  1.00  0.00     0.106 C 
HETATM   30  C22 UNL     1      33.932   3.697  47.741  1.00  0.00     0.094 C 
HETATM   31  C21 UNL     1      34.596   4.848  47.755  1.00  0.00     0.018 C 
HETATM   32  F1  UNL     1      34.376   2.447  48.076  1.00  0.00    -0.211 F 
HETATM   33  C20 UNL     1      34.087   6.196  47.384  1.00  0.00     0.094 C 
ENDBRANCH  25  26
ENDBRANCH   1  25
TORSDOF 2
ENDMDL
