MODEL 1
REMARK VINA RESULT:      -8.4      0.000      0.000
REMARK  3 active torsions:
REMARK  status: ('A' for Active; 'I' for Inactive)
REMARK    1  A    between atoms: C4_4  and  N1_5 
REMARK    2  A    between atoms: C6_7  and  N2_8 
REMARK    3  A    between atoms: N2_8  and  C7_9 
ROOT
HETATM    1  C7  UNL     1      25.136  -0.195  53.846  1.00  0.00     0.727 A 
HETATM    2  N3  UNL     1      25.156  -0.932  55.002  1.00  0.00    -0.075 NA
HETATM    3  C8  UNL     1      23.923  -1.394  55.425  1.00  0.00     0.139 A 
HETATM    4  C9  UNL     1      22.832  -1.023  54.578  1.00  0.00     0.053 A 
HETATM    5  C10 UNL     1      22.763  -0.239  53.336  1.00  0.00     0.089 A 
HETATM    6  C11 UNL     1      21.340  -0.403  53.243  1.00  0.00     0.011 A 
HETATM    7  C12 UNL     1      21.134   0.207  51.994  1.00  0.00     0.017 A 
HETATM    8  C13 UNL     1      19.904   0.374  51.321  1.00  0.00     0.020 A 
HETATM    9  C14 UNL     1      18.836  -0.163  52.058  1.00  0.00     0.116 A 
HETATM   10  N4  UNL     1      19.022  -0.757  53.266  1.00  0.00    -0.272 NA
HETATM   11  C15 UNL     1      20.221  -0.870  53.830  1.00  0.00     0.130 A 
HETATM   12  N5  UNL     1      23.983  -0.089  53.397  1.00  0.00    -0.062 NA
ENDROOT
BRANCH   1  13
HETATM   13  N2  UNL     1      26.240   0.391  53.188  1.00  0.00    -0.188 N 
HETATM   14  H9  UNL     1      26.083   1.313  52.729  1.00  0.00     0.184 HD
BRANCH  13  15
HETATM   15  C6  UNL     1      27.453  -0.336  53.230  1.00  0.00     0.053 A 
HETATM   16  C2  UNL     1      28.740  -0.145  53.862  1.00  0.00    -0.036 A 
HETATM   17  C1  UNL     1      29.058   1.022  54.688  1.00  0.00     0.050 C 
HETATM   18  C3  UNL     1      29.489  -1.214  53.524  1.00  0.00     0.021 A 
HETATM   19  C4  UNL     1      28.756  -2.154  52.667  1.00  0.00     0.266 A 
HETATM   20  C5  UNL     1      27.455  -1.493  52.540  1.00  0.00     0.042 A 
BRANCH  19  21
HETATM   21  N1  UNL     1      28.607  -3.402  53.378  1.00  0.00     0.090 N 
HETATM   22  H6  UNL     1      28.375  -4.152  52.704  1.00  0.00     0.314 HD
HETATM   23  H7  UNL     1      27.893  -3.377  54.118  1.00  0.00     0.314 HD
ENDBRANCH  19  21
ENDBRANCH  13  15
ENDBRANCH   1  13
TORSDOF 3
ENDMDL
MODEL 2
REMARK VINA RESULT:      -8.1      1.161      1.780
REMARK  3 active torsions:
REMARK  status: ('A' for Active; 'I' for Inactive)
REMARK    1  A    between atoms: C4_4  and  N1_5 
REMARK    2  A    between atoms: C6_7  and  N2_8 
REMARK    3  A    between atoms: N2_8  and  C7_9 
ROOT
HETATM    1  C7  UNL     1      24.611  -0.088  53.838  1.00  0.00     0.727 A 
HETATM    2  N3  UNL     1      24.641  -0.873  54.961  1.00  0.00    -0.075 NA
HETATM    3  C8  UNL     1      23.422  -1.403  55.339  1.00  0.00     0.139 A 
HETATM    4  C9  UNL     1      22.331  -1.040  54.488  1.00  0.00     0.053 A 
HETATM    5  C10 UNL     1      22.252  -0.206  53.281  1.00  0.00     0.089 A 
HETATM    6  C11 UNL     1      20.838  -0.423  53.153  1.00  0.00     0.011 A 
HETATM    7  C12 UNL     1      20.629   0.233  51.929  1.00  0.00     0.017 A 
HETATM    8  C13 UNL     1      19.405   0.379  51.239  1.00  0.00     0.020 A 
HETATM    9  C14 UNL     1      18.348  -0.233  51.932  1.00  0.00     0.116 A 
HETATM   10  N4  UNL     1      18.537  -0.871  53.116  1.00  0.00    -0.272 NA
HETATM   11  C15 UNL     1      19.729  -0.960  53.698  1.00  0.00     0.130 A 
HETATM   12  N5  UNL     1      23.463  -0.009  53.372  1.00  0.00    -0.062 NA
ENDROOT
BRANCH   1  13
HETATM   13  N2  UNL     1      25.701   0.571  53.227  1.00  0.00    -0.188 N 
HETATM   14  H9  UNL     1      25.493   1.447  52.705  1.00  0.00     0.184 HD
BRANCH  13  15
HETATM   15  C6  UNL     1      26.972  -0.028  53.399  1.00  0.00     0.053 A 
HETATM   16  C2  UNL     1      27.584  -1.268  52.975  1.00  0.00    -0.036 A 
HETATM   17  C1  UNL     1      26.879  -2.276  52.181  1.00  0.00     0.050 C 
HETATM   18  C3  UNL     1      28.844  -1.251  53.456  1.00  0.00     0.021 A 
HETATM   19  C4  UNL     1      29.130  -0.023  54.209  1.00  0.00     0.266 A 
HETATM   20  C5  UNL     1      27.858   0.694  54.110  1.00  0.00     0.042 A 
BRANCH  19  21
HETATM   21  N1  UNL     1      30.164   0.709  53.515  1.00  0.00     0.090 N 
HETATM   22  H6  UNL     1      29.928   1.717  53.519  1.00  0.00     0.314 HD
HETATM   23  H7  UNL     1      30.316   0.398  52.547  1.00  0.00     0.314 HD
ENDBRANCH  19  21
ENDBRANCH  13  15
ENDBRANCH   1  13
TORSDOF 3
ENDMDL
MODEL 3
REMARK VINA RESULT:      -7.9      1.287      2.105
REMARK  3 active torsions:
REMARK  status: ('A' for Active; 'I' for Inactive)
REMARK    1  A    between atoms: C4_4  and  N1_5 
REMARK    2  A    between atoms: C6_7  and  N2_8 
REMARK    3  A    between atoms: N2_8  and  C7_9 
ROOT
HETATM    1  C7  UNL     1      25.333   0.924  53.244  1.00  0.00     0.727 A 
HETATM    2  N3  UNL     1      25.641   1.792  52.229  1.00  0.00    -0.075 NA
HETATM    3  C8  UNL     1      24.592   2.106  51.386  1.00  0.00     0.139 A 
HETATM    4  C9  UNL     1      23.357   1.467  51.718  1.00  0.00     0.053 A 
HETATM    5  C10 UNL     1      22.980   0.534  52.790  1.00  0.00     0.089 A 
HETATM    6  C11 UNL     1      21.623   0.461  52.329  1.00  0.00     0.011 A 
HETATM    7  C12 UNL     1      21.086  -0.325  53.363  1.00  0.00     0.017 A 
HETATM    8  C13 UNL     1      19.750  -0.764  53.493  1.00  0.00     0.020 A 
HETATM    9  C14 UNL     1      18.954  -0.312  52.429  1.00  0.00     0.116 A 
HETATM   10  N4  UNL     1      19.460   0.450  51.423  1.00  0.00    -0.272 NA
HETATM   11  C15 UNL     1      20.737   0.817  51.379  1.00  0.00     0.130 A 
HETATM   12  N5  UNL     1      24.139   0.584  53.201  1.00  0.00    -0.062 NA
ENDROOT
BRANCH   1  13
HETATM   13  N2  UNL     1      26.201   0.439  54.246  1.00  0.00    -0.188 N 
HETATM   14  H9  UNL     1      25.927   0.611  55.236  1.00  0.00     0.184 HD
BRANCH  13  15
HETATM   15  C6  UNL     1      27.358  -0.243  53.798  1.00  0.00     0.053 A 
HETATM   16  C2  UNL     1      28.783  -0.035  53.926  1.00  0.00    -0.036 A 
HETATM   17  C1  UNL     1      29.362   1.101  54.647  1.00  0.00     0.050 C 
HETATM   18  C3  UNL     1      29.374  -1.056  53.274  1.00  0.00     0.021 A 
HETATM   19  C4  UNL     1      28.394  -1.980  52.690  1.00  0.00     0.266 A 
HETATM   20  C5  UNL     1      27.126  -1.363  53.087  1.00  0.00     0.042 A 
BRANCH  19  21
HETATM   21  N1  UNL     1      28.538  -3.266  53.330  1.00  0.00     0.090 N 
HETATM   22  H6  UNL     1      29.522  -3.390  53.625  1.00  0.00     0.314 HD
HETATM   23  H7  UNL     1      28.257  -4.060  52.739  1.00  0.00     0.314 HD
ENDBRANCH  19  21
ENDBRANCH  13  15
ENDBRANCH   1  13
TORSDOF 3
ENDMDL
MODEL 4
REMARK VINA RESULT:      -7.9      1.901      3.021
REMARK  3 active torsions:
REMARK  status: ('A' for Active; 'I' for Inactive)
REMARK    1  A    between atoms: C4_4  and  N1_5 
REMARK    2  A    between atoms: C6_7  and  N2_8 
REMARK    3  A    between atoms: N2_8  and  C7_9 
ROOT
HETATM    1  C7  UNL     1      23.762  -0.976  54.675  1.00  0.00     0.727 A 
HETATM    2  N3  UNL     1      22.772  -1.640  55.353  1.00  0.00    -0.075 NA
HETATM    3  C8  UNL     1      21.516  -1.561  54.783  1.00  0.00     0.139 A 
HETATM    4  C9  UNL     1      21.463  -0.795  53.576  1.00  0.00     0.053 A 
HETATM    5  C10 UNL     1      22.491  -0.069  52.817  1.00  0.00     0.089 A 
HETATM    6  C11 UNL     1      21.543   0.353  51.825  1.00  0.00     0.011 A 
HETATM    7  C12 UNL     1      22.430   0.976  50.930  1.00  0.00     0.017 A 
HETATM    8  C13 UNL     1      22.105   1.613  49.713  1.00  0.00     0.020 A 
HETATM    9  C14 UNL     1      20.724   1.563  49.459  1.00  0.00     0.116 A 
HETATM   10  N4  UNL     1      19.856   0.962  50.315  1.00  0.00    -0.272 NA
HETATM   11  C15 UNL     1      20.251   0.385  51.445  1.00  0.00     0.130 A 
HETATM   12  N5  UNL     1      23.318  -0.422  53.657  1.00  0.00    -0.062 NA
ENDROOT
BRANCH   1  13
HETATM   13  N2  UNL     1      25.128  -0.893  55.024  1.00  0.00    -0.188 N 
HETATM   14  H9  UNL     1      25.415  -1.332  55.924  1.00  0.00     0.184 HD
BRANCH  13  15
HETATM   15  C6  UNL     1      25.971  -0.226  54.103  1.00  0.00     0.053 A 
HETATM   16  C2  UNL     1      26.708  -0.616  52.922  1.00  0.00    -0.036 A 
HETATM   17  C1  UNL     1      26.717  -1.985  52.402  1.00  0.00     0.050 C 
HETATM   18  C3  UNL     1      27.321   0.499  52.474  1.00  0.00     0.021 A 
HETATM   19  C4  UNL     1      27.029   1.666  53.317  1.00  0.00     0.266 A 
HETATM   20  C5  UNL     1      26.151   1.088  54.336  1.00  0.00     0.042 A 
BRANCH  19  21
HETATM   21  N1  UNL     1      26.300   2.630  52.526  1.00  0.00     0.090 N 
HETATM   22  H6  UNL     1      25.972   3.395  53.142  1.00  0.00     0.314 HD
HETATM   23  H7  UNL     1      25.497   2.232  52.021  1.00  0.00     0.314 HD
ENDBRANCH  19  21
ENDBRANCH  13  15
ENDBRANCH   1  13
TORSDOF 3
ENDMDL
MODEL 5
REMARK VINA RESULT:      -7.7      2.171      3.364
REMARK  3 active torsions:
REMARK  status: ('A' for Active; 'I' for Inactive)
REMARK    1  A    between atoms: C4_4  and  N1_5 
REMARK    2  A    between atoms: C6_7  and  N2_8 
REMARK    3  A    between atoms: N2_8  and  C7_9 
ROOT
HETATM    1  C7  UNL     1      25.370   2.166  51.529  1.00  0.00     0.727 A 
HETATM    2  N3  UNL     1      24.801   3.375  51.219  1.00  0.00    -0.075 NA
HETATM    3  C8  UNL     1      23.454   3.481  51.511  1.00  0.00     0.139 A 
HETATM    4  C9  UNL     1      22.881   2.306  52.090  1.00  0.00     0.053 A 
HETATM    5  C10 UNL     1      23.448   0.995  52.438  1.00  0.00     0.089 A 
HETATM    6  C11 UNL     1      22.187   0.515  52.929  1.00  0.00     0.011 A 
HETATM    7  C12 UNL     1      22.610  -0.728  53.430  1.00  0.00     0.017 A 
HETATM    8  C13 UNL     1      21.812  -1.709  54.058  1.00  0.00     0.020 A 
HETATM    9  C14 UNL     1      20.470  -1.303  54.145  1.00  0.00     0.116 A 
HETATM   10  N4  UNL     1      20.049  -0.103  53.665  1.00  0.00    -0.272 NA
HETATM   11  C15 UNL     1      20.872   0.763  53.084  1.00  0.00     0.130 A 
HETATM   12  N5  UNL     1      24.538   1.389  52.024  1.00  0.00    -0.062 NA
ENDROOT
BRANCH   1  13
HETATM   13  N2  UNL     1      26.717   1.785  51.345  1.00  0.00    -0.188 N 
HETATM   14  H9  UNL     1      27.143   1.984  50.416  1.00  0.00     0.184 HD
BRANCH  13  15
HETATM   15  C6  UNL     1      27.353   1.175  52.452  1.00  0.00     0.053 A 
HETATM   16  C2  UNL     1      27.434  -0.172  52.971  1.00  0.00    -0.036 A 
HETATM   17  C1  UNL     1      26.759  -1.311  52.346  1.00  0.00     0.050 C 
HETATM   18  C3  UNL     1      28.215  -0.108  54.069  1.00  0.00     0.021 A 
HETATM   19  C4  UNL     1      28.685   1.258  54.332  1.00  0.00     0.266 A 
HETATM   20  C5  UNL     1      28.072   2.004  53.232  1.00  0.00     0.042 A 
BRANCH  19  21
HETATM   21  N1  UNL     1      30.123   1.281  54.202  1.00  0.00     0.090 N 
HETATM   22  H6  UNL     1      30.390   1.997  53.504  1.00  0.00     0.314 HD
HETATM   23  H7  UNL     1      30.531   0.375  53.934  1.00  0.00     0.314 HD
ENDBRANCH  19  21
ENDBRANCH  13  15
ENDBRANCH   1  13
TORSDOF 3
ENDMDL
MODEL 6
REMARK VINA RESULT:      -7.5      3.506      7.227
REMARK  3 active torsions:
REMARK  status: ('A' for Active; 'I' for Inactive)
REMARK    1  A    between atoms: C4_4  and  N1_5 
REMARK    2  A    between atoms: C6_7  and  N2_8 
REMARK    3  A    between atoms: N2_8  and  C7_9 
ROOT
HETATM    1  C7  UNL     1      24.405   2.213  53.111  1.00  0.00     0.727 A 
HETATM    2  N3  UNL     1      23.304   1.405  52.987  1.00  0.00    -0.075 NA
HETATM    3  C8  UNL     1      23.573   0.051  52.928  1.00  0.00     0.139 A 
HETATM    4  C9  UNL     1      24.963  -0.278  53.006  1.00  0.00     0.053 A 
HETATM    5  C10 UNL     1      26.171   0.548  53.137  1.00  0.00     0.089 A 
HETATM    6  C11 UNL     1      27.030  -0.602  53.131  1.00  0.00     0.011 A 
HETATM    7  C12 UNL     1      28.254   0.040  53.383  1.00  0.00     0.017 A 
HETATM    8  C13 UNL     1      29.525  -0.564  53.497  1.00  0.00     0.020 A 
HETATM    9  C14 UNL     1      29.451  -1.956  53.327  1.00  0.00     0.116 A 
HETATM   10  N4  UNL     1      28.273  -2.590  53.084  1.00  0.00    -0.272 NA
HETATM   11  C15 UNL     1      27.118  -1.939  52.990  1.00  0.00     0.130 A 
HETATM   12  N5  UNL     1      25.452   1.546  53.146  1.00  0.00    -0.062 NA
ENDROOT
BRANCH   1  13
HETATM   13  N2  UNL     1      24.424   3.622  53.198  1.00  0.00    -0.188 N 
HETATM   14  H9  UNL     1      24.915   4.040  54.016  1.00  0.00     0.184 HD
BRANCH  13  15
HETATM   15  C6  UNL     1      23.777   4.324  52.154  1.00  0.00     0.053 A 
HETATM   16  C2  UNL     1      24.050   4.553  50.752  1.00  0.00    -0.036 A 
HETATM   17  C1  UNL     1      25.232   4.021  50.071  1.00  0.00     0.050 C 
HETATM   18  C3  UNL     1      23.033   5.307  50.287  1.00  0.00     0.021 A 
HETATM   19  C4  UNL     1      22.050   5.613  51.334  1.00  0.00     0.266 A 
HETATM   20  C5  UNL     1      22.625   4.932  52.496  1.00  0.00     0.042 A 
BRANCH  19  21
HETATM   21  N1  UNL     1      20.793   4.999  50.976  1.00  0.00     0.090 N 
HETATM   22  H6  UNL     1      20.016   5.617  51.271  1.00  0.00     0.314 HD
HETATM   23  H7  UNL     1      20.656   4.063  51.381  1.00  0.00     0.314 HD
ENDBRANCH  19  21
ENDBRANCH  13  15
ENDBRANCH   1  13
TORSDOF 3
ENDMDL
MODEL 7
REMARK VINA RESULT:      -7.5      2.579      3.371
REMARK  3 active torsions:
REMARK  status: ('A' for Active; 'I' for Inactive)
REMARK    1  A    between atoms: C4_4  and  N1_5 
REMARK    2  A    between atoms: C6_7  and  N2_8 
REMARK    3  A    between atoms: N2_8  and  C7_9 
ROOT
HETATM    1  C7  UNL     1      25.838   1.301  52.483  1.00  0.00     0.727 A 
HETATM    2  N3  UNL     1      26.628   2.290  51.954  1.00  0.00    -0.075 NA
HETATM    3  C8  UNL     1      26.042   3.031  50.945  1.00  0.00     0.139 A 
HETATM    4  C9  UNL     1      24.706   2.637  50.623  1.00  0.00     0.053 A 
HETATM    5  C10 UNL     1      23.825   1.589  51.158  1.00  0.00     0.089 A 
HETATM    6  C11 UNL     1      22.760   1.947  50.265  1.00  0.00     0.011 A 
HETATM    7  C12 UNL     1      21.766   1.084  50.758  1.00  0.00     0.017 A 
HETATM    8  C13 UNL     1      20.442   0.950  50.284  1.00  0.00     0.020 A 
HETATM    9  C14 UNL     1      20.192   1.816  49.206  1.00  0.00     0.116 A 
HETATM   10  N4  UNL     1      21.144   2.656  48.721  1.00  0.00    -0.272 NA
HETATM   11  C15 UNL     1      22.371   2.715  49.229  1.00  0.00     0.130 A 
HETATM   12  N5  UNL     1      24.725   1.269  51.933  1.00  0.00    -0.062 NA
ENDROOT
BRANCH   1  13
HETATM   13  N2  UNL     1      26.175   0.402  53.519  1.00  0.00    -0.188 N 
HETATM   14  H9  UNL     1      25.503   0.318  54.311  1.00  0.00     0.184 HD
BRANCH  13  15
HETATM   15  C6  UNL     1      27.394  -0.301  53.368  1.00  0.00     0.053 A 
HETATM   16  C2  UNL     1      28.765  -0.069  53.764  1.00  0.00    -0.036 A 
HETATM   17  C1  UNL     1      29.194   1.126  54.495  1.00  0.00     0.050 C 
HETATM   18  C3  UNL     1      29.470  -1.132  53.327  1.00  0.00     0.021 A 
HETATM   19  C4  UNL     1      28.622  -2.108  52.631  1.00  0.00     0.266 A 
HETATM   20  C5  UNL     1      27.304  -1.475  52.715  1.00  0.00     0.042 A 
BRANCH  19  21
HETATM   21  N1  UNL     1      28.626  -3.339  53.387  1.00  0.00     0.090 N 
HETATM   22  H6  UNL     1      27.871  -3.306  54.095  1.00  0.00     0.314 HD
HETATM   23  H7  UNL     1      29.521  -3.539  53.853  1.00  0.00     0.314 HD
ENDBRANCH  19  21
ENDBRANCH  13  15
ENDBRANCH   1  13
TORSDOF 3
ENDMDL
MODEL 8
REMARK VINA RESULT:      -7.5      4.591      6.399
REMARK  3 active torsions:
REMARK  status: ('A' for Active; 'I' for Inactive)
REMARK    1  A    between atoms: C4_4  and  N1_5 
REMARK    2  A    between atoms: C6_7  and  N2_8 
REMARK    3  A    between atoms: N2_8  and  C7_9 
ROOT
HETATM    1  C7  UNL     1      25.478   2.793  50.782  1.00  0.00     0.727 A 
HETATM    2  N3  UNL     1      26.817   2.630  51.031  1.00  0.00    -0.075 NA
HETATM    3  C8  UNL     1      27.122   1.724  52.029  1.00  0.00     0.139 A 
HETATM    4  C9  UNL     1      25.983   1.107  52.634  1.00  0.00     0.053 A 
HETATM    5  C10 UNL     1      24.539   1.248  52.402  1.00  0.00     0.089 A 
HETATM    6  C11 UNL     1      24.222   0.289  53.422  1.00  0.00     0.011 A 
HETATM    7  C12 UNL     1      22.831   0.220  53.228  1.00  0.00     0.017 A 
HETATM    8  C13 UNL     1      21.910  -0.573  53.947  1.00  0.00     0.020 A 
HETATM    9  C14 UNL     1      22.550  -1.338  54.935  1.00  0.00     0.116 A 
HETATM   10  N4  UNL     1      23.894  -1.282  55.131  1.00  0.00    -0.272 NA
HETATM   11  C15 UNL     1      24.690  -0.502  54.406  1.00  0.00     0.130 A 
HETATM   12  N5  UNL     1      24.790   2.072  51.523  1.00  0.00    -0.062 NA
ENDROOT
BRANCH   1  13
HETATM   13  N2  UNL     1      24.885   3.642  49.822  1.00  0.00    -0.188 N 
HETATM   14  H9  UNL     1      24.624   3.216  48.908  1.00  0.00     0.184 HD
BRANCH  13  15
HETATM   15  C6  UNL     1      24.699   4.991  50.209  1.00  0.00     0.053 A 
HETATM   16  C2  UNL     1      23.830   5.678  51.139  1.00  0.00    -0.036 A 
HETATM   17  C1  UNL     1      22.832   4.987  51.959  1.00  0.00     0.050 C 
HETATM   18  C3  UNL     1      24.148   6.986  51.058  1.00  0.00     0.021 A 
HETATM   19  C4  UNL     1      25.225   7.233  50.090  1.00  0.00     0.266 A 
HETATM   20  C5  UNL     1      25.506   5.881  49.602  1.00  0.00     0.042 A 
BRANCH  19  21
HETATM   21  N1  UNL     1      26.371   7.748  50.802  1.00  0.00     0.090 N 
HETATM   22  H6  UNL     1      26.901   8.381  50.178  1.00  0.00     0.314 HD
HETATM   23  H7  UNL     1      27.001   7.018  51.161  1.00  0.00     0.314 HD
ENDBRANCH  19  21
ENDBRANCH  13  15
ENDBRANCH   1  13
TORSDOF 3
ENDMDL
MODEL 9
REMARK VINA RESULT:      -7.5      3.394      7.309
REMARK  3 active torsions:
REMARK  status: ('A' for Active; 'I' for Inactive)
REMARK    1  A    between atoms: C4_4  and  N1_5 
REMARK    2  A    between atoms: C6_7  and  N2_8 
REMARK    3  A    between atoms: N2_8  and  C7_9 
ROOT
HETATM    1  C7  UNL     1      23.231   1.415  51.488  1.00  0.00     0.727 A 
HETATM    2  N3  UNL     1      22.440   0.488  52.116  1.00  0.00    -0.075 NA
HETATM    3  C8  UNL     1      23.063  -0.233  53.117  1.00  0.00     0.139 A 
HETATM    4  C9  UNL     1      24.435   0.112  53.327  1.00  0.00     0.053 A 
HETATM    5  C10 UNL     1      25.320   1.092  52.682  1.00  0.00     0.089 A 
HETATM    6  C11 UNL     1      26.429   0.727  53.517  1.00  0.00     0.011 A 
HETATM    7  C12 UNL     1      27.350   1.698  53.089  1.00  0.00     0.017 A 
HETATM    8  C13 UNL     1      28.675   1.874  53.544  1.00  0.00     0.020 A 
HETATM    9  C14 UNL     1      29.011   0.931  54.529  1.00  0.00     0.116 A 
HETATM   10  N4  UNL     1      28.129  -0.013  54.952  1.00  0.00    -0.272 NA
HETATM   11  C15 UNL     1      26.896  -0.108  54.466  1.00  0.00     0.130 A 
HETATM   12  N5  UNL     1      24.381   1.420  51.958  1.00  0.00    -0.062 NA
ENDROOT
BRANCH   1  13
HETATM   13  N2  UNL     1      22.858   2.287  50.442  1.00  0.00    -0.188 N 
HETATM   14  H9  UNL     1      22.800   1.882  49.484  1.00  0.00     0.184 HD
BRANCH  13  15
HETATM   15  C6  UNL     1      22.593   3.628  50.809  1.00  0.00     0.053 A 
HETATM   16  C2  UNL     1      21.492   4.317  51.444  1.00  0.00    -0.036 A 
HETATM   17  C1  UNL     1      20.268   3.638  51.875  1.00  0.00     0.050 C 
HETATM   18  C3  UNL     1      21.854   5.613  51.526  1.00  0.00     0.021 A 
HETATM   19  C4  UNL     1      23.188   5.851  50.961  1.00  0.00     0.266 A 
HETATM   20  C5  UNL     1      23.575   4.507  50.528  1.00  0.00     0.042 A 
BRANCH  19  21
HETATM   21  N1  UNL     1      24.061   6.297  52.022  1.00  0.00     0.090 N 
HETATM   22  H6  UNL     1      24.993   5.864  51.900  1.00  0.00     0.314 HD
HETATM   23  H7  UNL     1      23.710   6.089  52.966  1.00  0.00     0.314 HD
ENDBRANCH  19  21
ENDBRANCH  13  15
ENDBRANCH   1  13
TORSDOF 3
ENDMDL
