MODEL 1
REMARK VINA RESULT:      -7.1      0.000      0.000
REMARK  8 active torsions:
REMARK  status: ('A' for Active; 'I' for Inactive)
REMARK    1  A    between atoms: C2_2  and  C3_3 
REMARK    2  A    between atoms: C4_4  and  C5_5 
REMARK    3  A    between atoms: C5_5  and  C6_6 
REMARK    4  A    between atoms: C6_6  and  N1_7 
REMARK    5  A    between atoms: N1_7  and  C7_8 
REMARK    6  A    between atoms: C10_13  and  C11_14 
REMARK    7  A    between atoms: C11_14  and  N4_15 
REMARK    8  A    between atoms: C11_14  and  C12_16 
ROOT
HETATM    1  C12 UNL     1      26.076   2.156  52.648  1.00  0.00    -0.021 A 
HETATM    2  C13 UNL     1      24.876   2.720  53.083  1.00  0.00     0.011 A 
HETATM    3  C14 UNL     1      23.981   3.298  52.184  1.00  0.00     0.023 A 
HETATM    4  C15 UNL     1      24.251   3.331  50.835  1.00  0.00     0.044 A 
HETATM    5  C16 UNL     1      23.329   3.927  49.910  1.00  0.00     0.099 C 
HETATM    6  N5  UNL     1      22.600   4.420  49.163  1.00  0.00    -0.191 NA
HETATM    7  C17 UNL     1      25.440   2.769  50.426  1.00  0.00     0.023 A 
HETATM    8  C18 UNL     1      26.346   2.188  51.308  1.00  0.00     0.011 A 
ENDROOT
BRANCH   1   9
HETATM    9  C11 UNL     1      26.843   1.617  53.774  1.00  0.00     0.289 C 
BRANCH   9  10
HETATM   10  C10 UNL     1      27.475   0.309  53.540  1.00  0.00     0.042 A 
HETATM   11  C7  UNL     1      26.716  -0.853  53.362  1.00  0.00     0.135 A 
HETATM   12  N2  UNL     1      27.376  -2.006  53.151  1.00  0.00    -0.224 NA
HETATM   13  C8  UNL     1      28.724  -2.088  53.103  1.00  0.00     0.234 A 
HETATM   14  N3  UNL     1      29.434  -0.955  53.276  1.00  0.00    -0.253 NA
HETATM   15  C9  UNL     1      28.870   0.234  53.491  1.00  0.00     0.131 A 
BRANCH  11  16
HETATM   16  N1  UNL     1      25.309  -0.814  53.406  1.00  0.00    -0.374 N 
HETATM   17  H12 UNL     1      24.785  -0.708  52.497  1.00  0.00     0.161 HD
BRANCH  16  18
HETATM   18  C6  UNL     1      24.543  -0.914  54.642  1.00  0.00     0.125 C 
BRANCH  18  19
HETATM   19  C5  UNL     1      23.057  -0.853  54.342  1.00  0.00     0.046 C 
BRANCH  19  20
HETATM   20  C4  UNL     1      22.847  -0.232  53.000  1.00  0.00    -0.029 C 
HETATM   21  C3  UNL     1      21.794  -0.040  52.223  1.00  0.00    -0.031 C 
BRANCH  21  22
HETATM   22  C2  UNL     1      21.785   0.625  50.871  1.00  0.00     0.022 C 
HETATM   23  C1  UNL     1      20.407   1.000  50.428  1.00  0.00     0.009 C 
ENDBRANCH  21  22
ENDBRANCH  19  20
ENDBRANCH  18  19
ENDBRANCH  16  18
ENDBRANCH  11  16
ENDBRANCH   9  10
BRANCH   9  24
HETATM   24  N4  UNL     1      27.854   2.591  54.147  1.00  0.00     0.091 N 
HETATM   25  H16 UNL     1      27.426   3.501  54.343  1.00  0.00     0.314 HD
HETATM   26  H17 UNL     1      28.453   2.190  54.896  1.00  0.00     0.314 HD
ENDBRANCH   9  24
ENDBRANCH   1   9
TORSDOF 8
ENDMDL
MODEL 2
REMARK VINA RESULT:      -7.1      2.064      4.020
REMARK  8 active torsions:
REMARK  status: ('A' for Active; 'I' for Inactive)
REMARK    1  A    between atoms: C2_2  and  C3_3 
REMARK    2  A    between atoms: C4_4  and  C5_5 
REMARK    3  A    between atoms: C5_5  and  C6_6 
REMARK    4  A    between atoms: C6_6  and  N1_7 
REMARK    5  A    between atoms: N1_7  and  C7_8 
REMARK    6  A    between atoms: C10_13  and  C11_14 
REMARK    7  A    between atoms: C11_14  and  N4_15 
REMARK    8  A    between atoms: C11_14  and  C12_16 
ROOT
HETATM    1  C12 UNL     1      23.896   1.254  52.530  1.00  0.00    -0.021 A 
HETATM    2  C13 UNL     1      22.785   0.530  52.096  1.00  0.00     0.011 A 
HETATM    3  C14 UNL     1      21.534   1.131  51.969  1.00  0.00     0.023 A 
HETATM    4  C15 UNL     1      21.352   2.462  52.268  1.00  0.00     0.044 A 
HETATM    5  C16 UNL     1      20.063   3.081  52.137  1.00  0.00     0.099 C 
HETATM    6  N5  UNL     1      19.026   3.581  52.051  1.00  0.00    -0.191 NA
HETATM    7  C17 UNL     1      22.461   3.160  52.693  1.00  0.00     0.023 A 
HETATM    8  C18 UNL     1      23.717   2.577  52.826  1.00  0.00     0.011 A 
ENDROOT
BRANCH   1   9
HETATM    9  C11 UNL     1      25.089   0.406  52.583  1.00  0.00     0.289 C 
BRANCH   9  10
HETATM   10  C10 UNL     1      26.336   1.092  52.958  1.00  0.00     0.042 A 
HETATM   11  C7  UNL     1      27.018   1.919  52.060  1.00  0.00     0.135 A 
HETATM   12  N2  UNL     1      28.149   2.510  52.486  1.00  0.00    -0.224 NA
HETATM   13  C8  UNL     1      28.648   2.338  53.730  1.00  0.00     0.234 A 
HETATM   14  N3  UNL     1      27.972   1.537  54.579  1.00  0.00    -0.253 NA
HETATM   15  C9  UNL     1      26.843   0.910  54.247  1.00  0.00     0.131 A 
BRANCH  11  16
HETATM   16  N1  UNL     1      26.536   2.126  50.752  1.00  0.00    -0.374 N 
HETATM   17  H12 UNL     1      26.090   1.312  50.251  1.00  0.00     0.161 HD
BRANCH  16  18
HETATM   18  C6  UNL     1      26.624   3.405  50.060  1.00  0.00     0.125 C 
BRANCH  18  19
HETATM   19  C5  UNL     1      25.296   4.136  50.142  1.00  0.00     0.046 C 
BRANCH  19  20
HETATM   20  C4  UNL     1      24.365   3.588  49.110  1.00  0.00    -0.029 C 
HETATM   21  C3  UNL     1      23.341   2.749  49.138  1.00  0.00    -0.031 C 
BRANCH  21  22
HETATM   22  C2  UNL     1      22.507   2.311  47.961  1.00  0.00     0.022 C 
HETATM   23  C1  UNL     1      21.137   1.870  48.367  1.00  0.00     0.009 C 
ENDBRANCH  21  22
ENDBRANCH  19  20
ENDBRANCH  18  19
ENDBRANCH  16  18
ENDBRANCH  11  16
ENDBRANCH   9  10
BRANCH   9  24
HETATM   24  N4  UNL     1      24.833  -0.687  53.505  1.00  0.00     0.091 N 
HETATM   25  H16 UNL     1      24.099  -0.433  54.173  1.00  0.00     0.314 HD
HETATM   26  H17 UNL     1      24.684  -1.561  52.963  1.00  0.00     0.314 HD
ENDBRANCH   9  24
ENDBRANCH   1   9
TORSDOF 8
ENDMDL
MODEL 3
REMARK VINA RESULT:      -6.9      2.129      4.843
REMARK  8 active torsions:
REMARK  status: ('A' for Active; 'I' for Inactive)
REMARK    1  A    between atoms: C2_2  and  C3_3 
REMARK    2  A    between atoms: C4_4  and  C5_5 
REMARK    3  A    between atoms: C5_5  and  C6_6 
REMARK    4  A    between atoms: C6_6  and  N1_7 
REMARK    5  A    between atoms: N1_7  and  C7_8 
REMARK    6  A    between atoms: C10_13  and  C11_14 
REMARK    7  A    between atoms: C11_14  and  N4_15 
REMARK    8  A    between atoms: C11_14  and  C12_16 
ROOT
HETATM    1  C12 UNL     1      22.998   2.429  51.541  1.00  0.00    -0.021 A 
HETATM    2  C13 UNL     1      22.803   3.063  50.313  1.00  0.00     0.011 A 
HETATM    3  C14 UNL     1      23.027   4.430  50.161  1.00  0.00     0.023 A 
HETATM    4  C15 UNL     1      23.449   5.203  51.218  1.00  0.00     0.044 A 
HETATM    5  C16 UNL     1      23.679   6.611  51.061  1.00  0.00     0.099 C 
HETATM    6  N5  UNL     1      23.849   7.747  50.946  1.00  0.00    -0.191 NA
HETATM    7  C17 UNL     1      23.637   4.559  52.422  1.00  0.00     0.023 A 
HETATM    8  C18 UNL     1      23.418   3.196  52.592  1.00  0.00     0.011 A 
ENDROOT
BRANCH   1   9
HETATM    9  C11 UNL     1      22.697   0.998  51.448  1.00  0.00     0.289 C 
BRANCH   9  10
HETATM   10  C10 UNL     1      22.628   0.283  52.733  1.00  0.00     0.042 A 
HETATM   11  C7  UNL     1      23.767  -0.266  53.331  1.00  0.00     0.135 A 
HETATM   12  N2  UNL     1      23.613  -0.901  54.507  1.00  0.00    -0.224 NA
HETATM   13  C8  UNL     1      22.419  -1.029  55.126  1.00  0.00     0.234 A 
HETATM   14  N3  UNL     1      21.336  -0.490  54.531  1.00  0.00    -0.253 NA
HETATM   15  C9  UNL     1      21.389   0.157  53.366  1.00  0.00     0.131 A 
BRANCH  11  16
HETATM   16  N1  UNL     1      25.032  -0.157  52.720  1.00  0.00    -0.374 N 
HETATM   17  H12 UNL     1      25.079  -0.167  51.668  1.00  0.00     0.161 HD
BRANCH  16  18
HETATM   18  C6  UNL     1      26.275  -0.033  53.471  1.00  0.00     0.125 C 
BRANCH  18  19
HETATM   19  C5  UNL     1      26.915   1.316  53.202  1.00  0.00     0.046 C 
BRANCH  19  20
HETATM   20  C4  UNL     1      26.671   1.706  51.781  1.00  0.00    -0.029 C 
HETATM   21  C3  UNL     1      26.748   2.840  51.105  1.00  0.00    -0.031 C 
BRANCH  21  22
HETATM   22  C2  UNL     1      26.456   3.034  49.639  1.00  0.00     0.022 C 
HETATM   23  C1  UNL     1      26.647   4.451  49.202  1.00  0.00     0.009 C 
ENDBRANCH  21  22
ENDBRANCH  19  20
ENDBRANCH  18  19
ENDBRANCH  16  18
ENDBRANCH  11  16
ENDBRANCH   9  10
BRANCH   9  24
HETATM   24  N4  UNL     1      21.445   0.840  50.729  1.00  0.00     0.091 N 
HETATM   25  H16 UNL     1      20.786   1.582  50.981  1.00  0.00     0.314 HD
HETATM   26  H17 UNL     1      21.648   0.724  49.717  1.00  0.00     0.314 HD
ENDBRANCH   9  24
ENDBRANCH   1   9
TORSDOF 8
ENDMDL
MODEL 4
REMARK VINA RESULT:      -6.9      2.672      5.639
REMARK  8 active torsions:
REMARK  status: ('A' for Active; 'I' for Inactive)
REMARK    1  A    between atoms: C2_2  and  C3_3 
REMARK    2  A    between atoms: C4_4  and  C5_5 
REMARK    3  A    between atoms: C5_5  and  C6_6 
REMARK    4  A    between atoms: C6_6  and  N1_7 
REMARK    5  A    between atoms: N1_7  and  C7_8 
REMARK    6  A    between atoms: C10_13  and  C11_14 
REMARK    7  A    between atoms: C11_14  and  N4_15 
REMARK    8  A    between atoms: C11_14  and  C12_16 
ROOT
HETATM    1  C12 UNL     1      25.010  -0.534  53.301  1.00  0.00    -0.021 A 
HETATM    2  C13 UNL     1      24.178   0.114  52.387  1.00  0.00     0.011 A 
HETATM    3  C14 UNL     1      22.831   0.337  52.666  1.00  0.00     0.023 A 
HETATM    4  C15 UNL     1      22.274  -0.077  53.854  1.00  0.00     0.044 A 
HETATM    5  C16 UNL     1      20.885   0.152  54.140  1.00  0.00     0.099 C 
HETATM    6  N5  UNL     1      19.766   0.317  54.370  1.00  0.00    -0.191 NA
HETATM    7  C17 UNL     1      23.111  -0.714  54.744  1.00  0.00     0.023 A 
HETATM    8  C18 UNL     1      24.457  -0.945  54.483  1.00  0.00     0.011 A 
ENDROOT
BRANCH   1   9
HETATM    9  C11 UNL     1      26.375  -0.649  52.782  1.00  0.00     0.289 C 
BRANCH   9  10
HETATM   10  C10 UNL     1      27.314   0.387  53.240  1.00  0.00     0.042 A 
HETATM   11  C7  UNL     1      27.522   1.563  52.512  1.00  0.00     0.135 A 
HETATM   12  N2  UNL     1      28.398   2.459  53.005  1.00  0.00    -0.224 NA
HETATM   13  C8  UNL     1      29.076   2.270  54.158  1.00  0.00     0.234 A 
HETATM   14  N3  UNL     1      28.857   1.129  54.843  1.00  0.00    -0.253 NA
HETATM   15  C9  UNL     1      28.010   0.184  54.434  1.00  0.00     0.131 A 
BRANCH  11  16
HETATM   16  N1  UNL     1      26.838   1.801  51.304  1.00  0.00    -0.374 N 
HETATM   17  H12 UNL     1      26.656   0.982  50.665  1.00  0.00     0.161 HD
BRANCH  16  18
HETATM   18  C6  UNL     1      26.372   3.119  50.894  1.00  0.00     0.125 C 
BRANCH  18  19
HETATM   19  C5  UNL     1      26.516   3.281  49.392  1.00  0.00     0.046 C 
BRANCH  19  20
HETATM   20  C4  UNL     1      26.891   4.693  49.080  1.00  0.00    -0.029 C 
HETATM   21  C3  UNL     1      27.950   5.271  48.538  1.00  0.00    -0.031 C 
BRANCH  21  22
HETATM   22  C2  UNL     1      28.144   6.747  48.301  1.00  0.00     0.022 C 
HETATM   23  C1  UNL     1      29.134   7.024  47.214  1.00  0.00     0.009 C 
ENDBRANCH  21  22
ENDBRANCH  19  20
ENDBRANCH  18  19
ENDBRANCH  16  18
ENDBRANCH  11  16
ENDBRANCH   9  10
BRANCH   9  24
HETATM   24  N4  UNL     1      26.886  -1.964  53.128  1.00  0.00     0.091 N 
HETATM   25  H16 UNL     1      26.591  -2.661  52.439  1.00  0.00     0.314 HD
HETATM   26  H17 UNL     1      27.907  -1.895  53.308  1.00  0.00     0.314 HD
ENDBRANCH   9  24
ENDBRANCH   1   9
TORSDOF 8
ENDMDL
MODEL 5
REMARK VINA RESULT:      -6.9      2.460      4.757
REMARK  8 active torsions:
REMARK  status: ('A' for Active; 'I' for Inactive)
REMARK    1  A    between atoms: C2_2  and  C3_3 
REMARK    2  A    between atoms: C4_4  and  C5_5 
REMARK    3  A    between atoms: C5_5  and  C6_6 
REMARK    4  A    between atoms: C6_6  and  N1_7 
REMARK    5  A    between atoms: N1_7  and  C7_8 
REMARK    6  A    between atoms: C10_13  and  C11_14 
REMARK    7  A    between atoms: C11_14  and  N4_15 
REMARK    8  A    between atoms: C11_14  and  C12_16 
ROOT
HETATM    1  C12 UNL     1      23.753   1.964  52.438  1.00  0.00    -0.021 A 
HETATM    2  C13 UNL     1      22.905   2.082  51.336  1.00  0.00     0.011 A 
HETATM    3  C14 UNL     1      22.359   3.312  50.972  1.00  0.00     0.023 A 
HETATM    4  C15 UNL     1      22.637   4.453  51.689  1.00  0.00     0.044 A 
HETATM    5  C16 UNL     1      22.073   5.719  51.314  1.00  0.00     0.099 C 
HETATM    6  N5  UNL     1      21.610   6.737  51.029  1.00  0.00    -0.191 NA
HETATM    7  C17 UNL     1      23.477   4.316  52.773  1.00  0.00     0.023 A 
HETATM    8  C18 UNL     1      24.031   3.097  53.151  1.00  0.00     0.011 A 
ENDROOT
BRANCH   1   9
HETATM    9  C11 UNL     1      24.195   0.578  52.616  1.00  0.00     0.289 C 
BRANCH   9  10
HETATM   10  C10 UNL     1      25.536   0.413  53.197  1.00  0.00     0.042 A 
HETATM   11  C7  UNL     1      26.690   0.801  52.507  1.00  0.00     0.135 A 
HETATM   12  N2  UNL     1      27.876   0.616  53.114  1.00  0.00    -0.224 NA
HETATM   13  C8  UNL     1      27.998   0.077  54.347  1.00  0.00     0.234 A 
HETATM   14  N3  UNL     1      26.873  -0.288  54.993  1.00  0.00    -0.253 NA
HETATM   15  C9  UNL     1      25.653  -0.144  54.474  1.00  0.00     0.131 A 
BRANCH  11  16
HETATM   16  N1  UNL     1      26.609   1.366  51.219  1.00  0.00    -0.374 N 
HETATM   17  H12 UNL     1      26.348   0.737  50.415  1.00  0.00     0.161 HD
BRANCH  16  18
HETATM   18  C6  UNL     1      26.870   2.774  50.945  1.00  0.00     0.125 C 
BRANCH  18  19
HETATM   19  C5  UNL     1      26.095   3.219  49.719  1.00  0.00     0.046 C 
BRANCH  19  20
HETATM   20  C4  UNL     1      26.612   4.543  49.260  1.00  0.00    -0.029 C 
HETATM   21  C3  UNL     1      27.684   4.938  48.593  1.00  0.00    -0.031 C 
BRANCH  21  22
HETATM   22  C2  UNL     1      28.037   6.354  48.216  1.00  0.00     0.022 C 
HETATM   23  C1  UNL     1      26.833   7.164  47.855  1.00  0.00     0.009 C 
ENDBRANCH  21  22
ENDBRANCH  19  20
ENDBRANCH  18  19
ENDBRANCH  16  18
ENDBRANCH  11  16
ENDBRANCH   9  10
BRANCH   9  24
HETATM   24  N4  UNL     1      23.215  -0.112  53.437  1.00  0.00     0.091 N 
HETATM   25  H16 UNL     1      22.885   0.494  54.194  1.00  0.00     0.314 HD
HETATM   26  H17 UNL     1      22.485  -0.522  52.822  1.00  0.00     0.314 HD
ENDBRANCH   9  24
ENDBRANCH   1   9
TORSDOF 8
ENDMDL
MODEL 6
REMARK VINA RESULT:      -6.8      2.359      4.850
REMARK  8 active torsions:
REMARK  status: ('A' for Active; 'I' for Inactive)
REMARK    1  A    between atoms: C2_2  and  C3_3 
REMARK    2  A    between atoms: C4_4  and  C5_5 
REMARK    3  A    between atoms: C5_5  and  C6_6 
REMARK    4  A    between atoms: C6_6  and  N1_7 
REMARK    5  A    between atoms: N1_7  and  C7_8 
REMARK    6  A    between atoms: C10_13  and  C11_14 
REMARK    7  A    between atoms: C11_14  and  N4_15 
REMARK    8  A    between atoms: C11_14  and  C12_16 
ROOT
HETATM    1  C12 UNL     1      22.471   2.598  51.728  1.00  0.00    -0.021 A 
HETATM    2  C13 UNL     1      21.284   2.903  52.396  1.00  0.00     0.011 A 
HETATM    3  C14 UNL     1      20.119   2.170  52.172  1.00  0.00     0.023 A 
HETATM    4  C15 UNL     1      20.101   1.120  51.282  1.00  0.00     0.044 A 
HETATM    5  C16 UNL     1      18.901   0.367  51.051  1.00  0.00     0.099 C 
HETATM    6  N5  UNL     1      17.935  -0.232  50.848  1.00  0.00    -0.191 NA
HETATM    7  C17 UNL     1      21.282   0.835  50.634  1.00  0.00     0.023 A 
HETATM    8  C18 UNL     1      22.454   1.555  50.845  1.00  0.00     0.011 A 
ENDROOT
BRANCH   1   9
HETATM    9  C11 UNL     1      23.549   3.506  52.130  1.00  0.00     0.289 C 
BRANCH   9  10
HETATM   10  C10 UNL     1      24.676   3.603  51.189  1.00  0.00     0.042 A 
HETATM   11  C7  UNL     1      25.796   2.773  51.294  1.00  0.00     0.135 A 
HETATM   12  N2  UNL     1      26.780   2.928  50.390  1.00  0.00    -0.224 NA
HETATM   13  C8  UNL     1      26.731   3.842  49.396  1.00  0.00     0.234 A 
HETATM   14  N3  UNL     1      25.641   4.631  49.314  1.00  0.00    -0.253 NA
HETATM   15  C9  UNL     1      24.616   4.551  50.163  1.00  0.00     0.131 A 
BRANCH  11  16
HETATM   16  N1  UNL     1      25.890   1.807  52.316  1.00  0.00    -0.374 N 
HETATM   17  H12 UNL     1      25.290   1.928  53.173  1.00  0.00     0.161 HD
BRANCH  16  18
HETATM   18  C6  UNL     1      26.774   0.650  52.244  1.00  0.00     0.125 C 
BRANCH  18  19
HETATM   19  C5  UNL     1      26.045  -0.595  52.714  1.00  0.00     0.046 C 
BRANCH  19  20
HETATM   20  C4  UNL     1      24.753  -0.201  53.353  1.00  0.00    -0.029 C 
HETATM   21  C3  UNL     1      23.553  -0.752  53.432  1.00  0.00    -0.031 C 
BRANCH  21  22
HETATM   22  C2  UNL     1      22.350  -0.185  54.141  1.00  0.00     0.022 C 
HETATM   23  C1  UNL     1      21.185  -1.122  54.125  1.00  0.00     0.009 C 
ENDBRANCH  21  22
ENDBRANCH  19  20
ENDBRANCH  18  19
ENDBRANCH  16  18
ENDBRANCH  11  16
ENDBRANCH   9  10
BRANCH   9  24
HETATM   24  N4  UNL     1      22.978   4.823  52.352  1.00  0.00     0.091 N 
HETATM   25  H16 UNL     1      23.199   5.160  53.293  1.00  0.00     0.314 HD
HETATM   26  H17 UNL     1      23.245   5.446  51.564  1.00  0.00     0.314 HD
ENDBRANCH   9  24
ENDBRANCH   1   9
TORSDOF 8
ENDMDL
MODEL 7
REMARK VINA RESULT:      -6.7      2.023      6.211
REMARK  8 active torsions:
REMARK  status: ('A' for Active; 'I' for Inactive)
REMARK    1  A    between atoms: C2_2  and  C3_3 
REMARK    2  A    between atoms: C4_4  and  C5_5 
REMARK    3  A    between atoms: C5_5  and  C6_6 
REMARK    4  A    between atoms: C6_6  and  N1_7 
REMARK    5  A    between atoms: N1_7  and  C7_8 
REMARK    6  A    between atoms: C10_13  and  C11_14 
REMARK    7  A    between atoms: C11_14  and  N4_15 
REMARK    8  A    between atoms: C11_14  and  C12_16 
ROOT
HETATM    1  C12 UNL     1      25.485   1.498  53.025  1.00  0.00    -0.021 A 
HETATM    2  C13 UNL     1      25.809   0.710  51.920  1.00  0.00     0.011 A 
HETATM    3  C14 UNL     1      26.764  -0.302  52.008  1.00  0.00     0.023 A 
HETATM    4  C15 UNL     1      27.421  -0.558  53.190  1.00  0.00     0.044 A 
HETATM    5  C16 UNL     1      28.405  -1.599  53.279  1.00  0.00     0.099 C 
HETATM    6  N5  UNL     1      29.210  -2.424  53.354  1.00  0.00    -0.191 NA
HETATM    7  C17 UNL     1      27.087   0.231  54.269  1.00  0.00     0.023 A 
HETATM    8  C18 UNL     1      26.137   1.244  54.201  1.00  0.00     0.011 A 
ENDROOT
BRANCH   1   9
HETATM    9  C11 UNL     1      24.461   2.488  52.684  1.00  0.00     0.289 C 
BRANCH   9  10
HETATM   10  C10 UNL     1      23.076   1.990  52.685  1.00  0.00     0.042 A 
HETATM   11  C7  UNL     1      22.070   2.613  51.938  1.00  0.00     0.135 A 
HETATM   12  N2  UNL     1      20.832   2.090  51.995  1.00  0.00    -0.224 NA
HETATM   13  C8  UNL     1      20.523   1.002  52.735  1.00  0.00     0.234 A 
HETATM   14  N3  UNL     1      21.509   0.418  53.445  1.00  0.00    -0.253 NA
HETATM   15  C9  UNL     1      22.767   0.864  53.452  1.00  0.00     0.131 A 
BRANCH  11  16
HETATM   16  N1  UNL     1      22.347   3.751  51.155  1.00  0.00    -0.374 N 
HETATM   17  H12 UNL     1      22.784   4.586  51.625  1.00  0.00     0.161 HD
BRANCH  16  18
HETATM   18  C6  UNL     1      22.058   3.829  49.728  1.00  0.00     0.125 C 
BRANCH  18  19
HETATM   19  C5  UNL     1      23.091   3.043  48.942  1.00  0.00     0.046 C 
BRANCH  19  20
HETATM   20  C4  UNL     1      24.424   3.704  49.078  1.00  0.00    -0.029 C 
HETATM   21  C3  UNL     1      25.629   3.292  49.437  1.00  0.00    -0.031 C 
BRANCH  21  22
HETATM   22  C2  UNL     1      26.879   4.131  49.512  1.00  0.00     0.022 C 
HETATM   23  C1  UNL     1      26.747   5.419  48.766  1.00  0.00     0.009 C 
ENDBRANCH  21  22
ENDBRANCH  19  20
ENDBRANCH  18  19
ENDBRANCH  16  18
ENDBRANCH  11  16
ENDBRANCH   9  10
BRANCH   9  24
HETATM   24  N4  UNL     1      24.582   3.607  53.603  1.00  0.00     0.091 N 
HETATM   25  H16 UNL     1      23.662   3.891  53.951  1.00  0.00     0.314 HD
HETATM   26  H17 UNL     1      25.298   3.381  54.321  1.00  0.00     0.314 HD
ENDBRANCH   9  24
ENDBRANCH   1   9
TORSDOF 8
ENDMDL
MODEL 8
REMARK VINA RESULT:      -6.7      1.903      6.167
REMARK  8 active torsions:
REMARK  status: ('A' for Active; 'I' for Inactive)
REMARK    1  A    between atoms: C2_2  and  C3_3 
REMARK    2  A    between atoms: C4_4  and  C5_5 
REMARK    3  A    between atoms: C5_5  and  C6_6 
REMARK    4  A    between atoms: C6_6  and  N1_7 
REMARK    5  A    between atoms: N1_7  and  C7_8 
REMARK    6  A    between atoms: C10_13  and  C11_14 
REMARK    7  A    between atoms: C11_14  and  N4_15 
REMARK    8  A    between atoms: C11_14  and  C12_16 
ROOT
HETATM    1  C12 UNL     1      25.222   3.269  51.354  1.00  0.00    -0.021 A 
HETATM    2  C13 UNL     1      26.167   2.271  51.115  1.00  0.00     0.011 A 
HETATM    3  C14 UNL     1      26.434   1.286  52.065  1.00  0.00     0.023 A 
HETATM    4  C15 UNL     1      25.774   1.265  53.272  1.00  0.00     0.044 A 
HETATM    5  C16 UNL     1      26.050   0.250  54.249  1.00  0.00     0.099 C 
HETATM    6  N5  UNL     1      26.280  -0.552  55.047  1.00  0.00    -0.191 NA
HETATM    7  C17 UNL     1      24.844   2.258  53.488  1.00  0.00     0.023 A 
HETATM    8  C18 UNL     1      24.564   3.249  52.552  1.00  0.00     0.011 A 
ENDROOT
BRANCH   1   9
HETATM    9  C11 UNL     1      25.121   4.183  50.213  1.00  0.00     0.289 C 
BRANCH   9  10
HETATM   10  C10 UNL     1      24.108   5.242  50.339  1.00  0.00     0.042 A 
HETATM   11  C7  UNL     1      22.774   5.030  49.973  1.00  0.00     0.135 A 
HETATM   12  N2  UNL     1      21.912   6.052  50.124  1.00  0.00    -0.224 NA
HETATM   13  C8  UNL     1      22.278   7.260  50.607  1.00  0.00     0.234 A 
HETATM   14  N3  UNL     1      23.568   7.440  50.954  1.00  0.00    -0.253 NA
HETATM   15  C9  UNL     1      24.494   6.487  50.841  1.00  0.00     0.131 A 
BRANCH  11  16
HETATM   16  N1  UNL     1      22.349   3.787  49.464  1.00  0.00    -0.374 N 
HETATM   17  H12 UNL     1      22.618   3.536  48.476  1.00  0.00     0.161 HD
BRANCH  16  18
HETATM   18  C6  UNL     1      21.558   2.835  50.233  1.00  0.00     0.125 C 
BRANCH  18  19
HETATM   19  C5  UNL     1      22.170   1.449  50.136  1.00  0.00     0.046 C 
BRANCH  19  20
HETATM   20  C4  UNL     1      22.088   0.778  51.469  1.00  0.00    -0.029 C 
HETATM   21  C3  UNL     1      21.505   1.071  52.619  1.00  0.00    -0.031 C 
BRANCH  21  22
HETATM   22  C2  UNL     1      21.539   0.245  53.879  1.00  0.00     0.022 C 
HETATM   23  C1  UNL     1      22.530  -0.872  53.803  1.00  0.00     0.009 C 
ENDBRANCH  21  22
ENDBRANCH  19  20
ENDBRANCH  18  19
ENDBRANCH  16  18
ENDBRANCH  11  16
ENDBRANCH   9  10
BRANCH   9  24
HETATM   24  N4  UNL     1      26.427   4.777  49.987  1.00  0.00     0.091 N 
HETATM   25  H16 UNL     1      26.801   4.497  49.076  1.00  0.00     0.314 HD
HETATM   26  H17 UNL     1      26.372   5.799  50.170  1.00  0.00     0.314 HD
ENDBRANCH   9  24
ENDBRANCH   1   9
TORSDOF 8
ENDMDL
MODEL 9
REMARK VINA RESULT:      -6.7      2.519      6.901
REMARK  8 active torsions:
REMARK  status: ('A' for Active; 'I' for Inactive)
REMARK    1  A    between atoms: C2_2  and  C3_3 
REMARK    2  A    between atoms: C4_4  and  C5_5 
REMARK    3  A    between atoms: C5_5  and  C6_6 
REMARK    4  A    between atoms: C6_6  and  N1_7 
REMARK    5  A    between atoms: N1_7  and  C7_8 
REMARK    6  A    between atoms: C10_13  and  C11_14 
REMARK    7  A    between atoms: C11_14  and  N4_15 
REMARK    8  A    between atoms: C11_14  and  C12_16 
ROOT
HETATM    1  C12 UNL     1      23.384   1.382  52.763  1.00  0.00    -0.021 A 
HETATM    2  C13 UNL     1      24.412   2.290  53.018  1.00  0.00     0.011 A 
HETATM    3  C14 UNL     1      25.622   1.878  53.575  1.00  0.00     0.023 A 
HETATM    4  C15 UNL     1      25.843   0.557  53.894  1.00  0.00     0.044 A 
HETATM    5  C16 UNL     1      27.088   0.133  54.469  1.00  0.00     0.099 C 
HETATM    6  N5  UNL     1      28.080  -0.212  54.947  1.00  0.00    -0.191 NA
HETATM    7  C17 UNL     1      24.816  -0.324  53.634  1.00  0.00     0.023 A 
HETATM    8  C18 UNL     1      23.603   0.069  53.079  1.00  0.00     0.011 A 
ENDROOT
BRANCH   1   9
HETATM    9  C11 UNL     1      22.220   2.053  52.180  1.00  0.00     0.289 C 
BRANCH   9  10
HETATM   10  C10 UNL     1      22.135   2.009  50.712  1.00  0.00     0.042 A 
HETATM   11  C7  UNL     1      22.609   3.056  49.915  1.00  0.00     0.135 A 
HETATM   12  N2  UNL     1      22.493   2.932  48.581  1.00  0.00    -0.224 NA
HETATM   13  C8  UNL     1      21.944   1.850  47.985  1.00  0.00     0.234 A 
HETATM   14  N3  UNL     1      21.496   0.852  48.773  1.00  0.00    -0.253 NA
HETATM   15  C9  UNL     1      21.568   0.885  50.105  1.00  0.00     0.131 A 
BRANCH  11  16
HETATM   16  N1  UNL     1      23.186   4.204  50.494  1.00  0.00    -0.374 N 
HETATM   17  H12 UNL     1      22.603   4.773  51.162  1.00  0.00     0.161 HD
BRANCH  16  18
HETATM   18  C6  UNL     1      24.548   4.642  50.213  1.00  0.00     0.125 C 
BRANCH  18  19
HETATM   19  C5  UNL     1      25.442   3.442  49.964  1.00  0.00     0.046 C 
BRANCH  19  20
HETATM   20  C4  UNL     1      26.723   3.898  49.346  1.00  0.00    -0.029 C 
HETATM   21  C3  UNL     1      27.173   5.059  48.897  1.00  0.00    -0.031 C 
BRANCH  21  22
HETATM   22  C2  UNL     1      28.529   5.324  48.294  1.00  0.00     0.022 C 
HETATM   23  C1  UNL     1      28.655   6.717  47.766  1.00  0.00     0.009 C 
ENDBRANCH  21  22
ENDBRANCH  19  20
ENDBRANCH  18  19
ENDBRANCH  16  18
ENDBRANCH  11  16
ENDBRANCH   9  10
BRANCH   9  24
HETATM   24  N4  UNL     1      21.021   1.475  52.760  1.00  0.00     0.091 N 
HETATM   25  H16 UNL     1      20.183   1.830  52.290  1.00  0.00     0.314 HD
HETATM   26  H17 UNL     1      21.127   0.442  52.799  1.00  0.00     0.314 HD
ENDBRANCH   9  24
ENDBRANCH   1   9
TORSDOF 8
ENDMDL
