MODEL 1
REMARK VINA RESULT:      -6.5      0.000      0.000
REMARK  9 active torsions:
REMARK  status: ('A' for Active; 'I' for Inactive)
REMARK    1  A    between atoms: C2_2  and  C3_4 
REMARK    2  A    between atoms: C3_4  and  C4_5 
REMARK    3  A    between atoms: C11_13  and  C12_14 
REMARK    4  A    between atoms: C12_14  and  C13_15 
REMARK    5  A    between atoms: C13_15  and  N2_16 
REMARK       I    between atoms: N2_16  and  C14_17 
REMARK    6  A    between atoms: C14_17  and  C15_19 
REMARK    7  A    between atoms: C15_19  and  C16_20 
REMARK    8  A    between atoms: C16_20  and  C17_21 
REMARK    9  A    between atoms: C17_21  and  N3_22 
ROOT
HETATM    1  C4  UNL     1      23.898   3.938  51.221  1.00  0.00     0.049 C 
HETATM    2  C5  UNL     1      23.885   3.190  52.627  1.00  0.00     0.019 C 
HETATM    3  C6  UNL     1      23.762   2.009  51.487  1.00  0.00     0.041 A 
HETATM    4  C7  UNL     1      22.691   1.656  50.514  1.00  0.00     0.182 A 
HETATM    5  N1  UNL     1      22.433   1.925  49.275  1.00  0.00    -0.025 N 
HETATM    6  C8  UNL     1      22.706   2.580  48.199  1.00  0.00     0.260 A 
HETATM    7  C9  UNL     1      23.495   2.799  49.315  1.00  0.00     0.264 A 
HETATM    8  C10 UNL     1      23.391   2.218  50.579  1.00  0.00     0.180 A 
HETATM    9  C11 UNL     1      22.753   1.243  51.685  1.00  0.00     0.045 A 
ENDROOT
BRANCH   9  10
HETATM   10  C12 UNL     1      21.512   0.535  51.585  1.00  0.00     0.024 C 
BRANCH  10  11
HETATM   11  C13 UNL     1      21.425  -0.271  52.766  1.00  0.00     0.128 C 
BRANCH  11  12
HETATM   12  N2  UNL     1      22.683  -0.420  53.472  1.00  0.00    -0.361 N 
HETATM   13  C14 UNL     1      22.862  -1.090  54.711  1.00  0.00     0.217 C 
HETATM   14  O1  UNL     1      21.780  -1.549  55.151  1.00  0.00    -0.274 OA
HETATM   15  H14 UNL     1      23.538  -0.005  53.029  1.00  0.00     0.162 HD
BRANCH  13  16
HETATM   16  C15 UNL     1      24.248  -1.145  55.280  1.00  0.00     0.104 C 
BRANCH  16  17
HETATM   17  C16 UNL     1      25.256  -0.571  54.320  1.00  0.00     0.039 C 
BRANCH  17  18
HETATM   18  C17 UNL     1      26.394   0.102  55.053  1.00  0.00     0.271 C 
BRANCH  18  19
HETATM   19  N3  UNL     1      27.474   0.299  54.099  1.00  0.00     0.080 N 
HETATM   20  C18 UNL     1      28.768   0.435  54.761  1.00  0.00     0.309 C 
HETATM   21  C19 UNL     1      27.537  -0.797  53.133  1.00  0.00     0.309 C 
ENDBRANCH  18  19
ENDBRANCH  17  18
ENDBRANCH  16  17
ENDBRANCH  13  16
ENDBRANCH  11  12
ENDBRANCH  10  11
ENDBRANCH   9  10
BRANCH   1  22
HETATM   22  C3  UNL     1      22.905   4.762  50.921  1.00  0.00    -0.005 C 
BRANCH  22  23
HETATM   23  C2  UNL     1      21.773   5.439  50.915  1.00  0.00    -0.019 C 
HETATM   24  C1  UNL     1      21.551   6.943  50.912  1.00  0.00     0.056 C 
HETATM   25 BR1  UNL     1      20.094   4.469  50.863  1.00  0.00    -0.057 Br
ENDBRANCH  22  23
ENDBRANCH   1  22
TORSDOF 9
ENDMDL
MODEL 2
REMARK VINA RESULT:      -6.2      2.463      2.902
REMARK  9 active torsions:
REMARK  status: ('A' for Active; 'I' for Inactive)
REMARK    1  A    between atoms: C2_2  and  C3_4 
REMARK    2  A    between atoms: C3_4  and  C4_5 
REMARK    3  A    between atoms: C11_13  and  C12_14 
REMARK    4  A    between atoms: C12_14  and  C13_15 
REMARK    5  A    between atoms: C13_15  and  N2_16 
REMARK       I    between atoms: N2_16  and  C14_17 
REMARK    6  A    between atoms: C14_17  and  C15_19 
REMARK    7  A    between atoms: C15_19  and  C16_20 
REMARK    8  A    between atoms: C16_20  and  C17_21 
REMARK    9  A    between atoms: C17_21  and  N3_22 
ROOT
HETATM    1  C4  UNL     1      25.667   4.463  49.210  1.00  0.00     0.049 C 
HETATM    2  C5  UNL     1      26.115   3.375  50.283  1.00  0.00     0.019 C 
HETATM    3  C6  UNL     1      24.561   3.004  49.887  1.00  0.00     0.041 A 
HETATM    4  C7  UNL     1      23.267   3.704  50.121  1.00  0.00     0.182 A 
HETATM    5  N1  UNL     1      22.516   4.521  49.456  1.00  0.00    -0.025 N 
HETATM    6  C8  UNL     1      22.331   5.270  48.423  1.00  0.00     0.260 A 
HETATM    7  C9  UNL     1      23.521   4.570  48.517  1.00  0.00     0.264 A 
HETATM    8  C10 UNL     1      23.946   3.712  49.530  1.00  0.00     0.180 A 
HETATM    9  C11 UNL     1      23.803   2.914  50.918  1.00  0.00     0.045 A 
ENDROOT
BRANCH   9  10
HETATM   10  C12 UNL     1      22.794   3.109  51.915  1.00  0.00     0.024 C 
BRANCH  10  11
HETATM   11  C13 UNL     1      22.716   1.877  52.640  1.00  0.00     0.128 C 
BRANCH  11  12
HETATM   12  N2  UNL     1      23.941   1.101  52.617  1.00  0.00    -0.361 N 
HETATM   13  C14 UNL     1      24.174  -0.101  53.336  1.00  0.00     0.217 C 
HETATM   14  O1  UNL     1      23.177  -0.430  54.025  1.00  0.00    -0.274 OA
HETATM   15  H14 UNL     1      24.723   1.450  52.012  1.00  0.00     0.162 HD
BRANCH  13  16
HETATM   16  C15 UNL     1      25.508  -0.764  53.174  1.00  0.00     0.104 C 
BRANCH  16  17
HETATM   17  C16 UNL     1      26.393   0.011  52.234  1.00  0.00     0.039 C 
BRANCH  17  18
HETATM   18  C17 UNL     1      27.822   0.047  52.725  1.00  0.00     0.271 C 
BRANCH  18  19
HETATM   19  N3  UNL     1      27.866   0.929  53.881  1.00  0.00     0.080 N 
HETATM   20  C18 UNL     1      28.684   0.376  54.957  1.00  0.00     0.309 C 
HETATM   21  C19 UNL     1      28.371   2.253  53.520  1.00  0.00     0.309 C 
ENDBRANCH  18  19
ENDBRANCH  17  18
ENDBRANCH  16  17
ENDBRANCH  13  16
ENDBRANCH  11  12
ENDBRANCH  10  11
ENDBRANCH   9  10
BRANCH   1  22
HETATM   22  C3  UNL     1      25.598   5.735  49.572  1.00  0.00    -0.005 C 
BRANCH  22  23
HETATM   23  C2  UNL     1      25.354   6.863  50.211  1.00  0.00    -0.019 C 
HETATM   24  C1  UNL     1      24.260   7.183  51.217  1.00  0.00     0.056 C 
HETATM   25 BR1  UNL     1      26.527   8.381  49.926  1.00  0.00    -0.057 Br
ENDBRANCH  22  23
ENDBRANCH   1  22
TORSDOF 9
ENDMDL
MODEL 3
REMARK VINA RESULT:      -6.1      5.001      7.592
REMARK  9 active torsions:
REMARK  status: ('A' for Active; 'I' for Inactive)
REMARK    1  A    between atoms: C2_2  and  C3_4 
REMARK    2  A    between atoms: C3_4  and  C4_5 
REMARK    3  A    between atoms: C11_13  and  C12_14 
REMARK    4  A    between atoms: C12_14  and  C13_15 
REMARK    5  A    between atoms: C13_15  and  N2_16 
REMARK       I    between atoms: N2_16  and  C14_17 
REMARK    6  A    between atoms: C14_17  and  C15_19 
REMARK    7  A    between atoms: C15_19  and  C16_20 
REMARK    8  A    between atoms: C16_20  and  C17_21 
REMARK    9  A    between atoms: C17_21  and  N3_22 
ROOT
HETATM    1  C4  UNL     1      26.176   1.039  54.049  1.00  0.00     0.049 C 
HETATM    2  C5  UNL     1      26.610   2.458  53.471  1.00  0.00     0.019 C 
HETATM    3  C6  UNL     1      24.981   2.364  53.255  1.00  0.00     0.041 A 
HETATM    4  C7  UNL     1      24.129   1.503  52.388  1.00  0.00     0.182 A 
HETATM    5  N1  UNL     1      23.483   0.390  52.526  1.00  0.00    -0.025 N 
HETATM    6  C8  UNL     1      23.192  -0.645  53.238  1.00  0.00     0.260 A 
HETATM    7  C9  UNL     1      24.066   0.287  53.769  1.00  0.00     0.264 A 
HETATM    8  C10 UNL     1      24.529   1.470  53.193  1.00  0.00     0.180 A 
HETATM    9  C11 UNL     1      24.637   2.583  52.039  1.00  0.00     0.045 A 
ENDROOT
BRANCH   9  10
HETATM   10  C12 UNL     1      24.145   2.473  50.699  1.00  0.00     0.024 C 
BRANCH  10  11
HETATM   11  C13 UNL     1      24.358   3.755  50.097  1.00  0.00     0.128 C 
BRANCH  11  12
HETATM   12  N2  UNL     1      25.626   3.878  49.405  1.00  0.00    -0.361 N 
HETATM   13  C14 UNL     1      26.419   5.054  49.333  1.00  0.00     0.217 C 
HETATM   14  O1  UNL     1      25.886   6.011  49.945  1.00  0.00    -0.274 OA
HETATM   15  H14 UNL     1      25.997   3.026  48.921  1.00  0.00     0.162 HD
BRANCH  13  16
HETATM   16  C15 UNL     1      27.710   4.980  48.575  1.00  0.00     0.104 C 
BRANCH  16  17
HETATM   17  C16 UNL     1      28.113   6.332  48.048  1.00  0.00     0.039 C 
BRANCH  17  18
HETATM   18  C17 UNL     1      29.541   6.665  48.416  1.00  0.00     0.271 C 
BRANCH  18  19
HETATM   19  N3  UNL     1      29.689   8.109  48.338  1.00  0.00     0.080 N 
HETATM   20  C18 UNL     1      29.757   8.577  46.957  1.00  0.00     0.309 C 
HETATM   21  C19 UNL     1      28.595   8.793  49.028  1.00  0.00     0.309 C 
ENDBRANCH  18  19
ENDBRANCH  17  18
ENDBRANCH  16  17
ENDBRANCH  13  16
ENDBRANCH  11  12
ENDBRANCH  10  11
ENDBRANCH   9  10
BRANCH   1  22
HETATM   22  C3  UNL     1      26.629  -0.060  53.466  1.00  0.00    -0.005 C 
BRANCH  22  23
HETATM   23  C2  UNL     1      27.372  -1.077  53.076  1.00  0.00    -0.019 C 
HETATM   24  C1  UNL     1      26.969  -2.323  52.301  1.00  0.00     0.056 C 
HETATM   25 BR1  UNL     1      29.273  -1.061  53.461  1.00  0.00    -0.057 Br
ENDBRANCH  22  23
ENDBRANCH   1  22
TORSDOF 9
ENDMDL
MODEL 4
REMARK VINA RESULT:      -6.1      2.315      4.843
REMARK  9 active torsions:
REMARK  status: ('A' for Active; 'I' for Inactive)
REMARK    1  A    between atoms: C2_2  and  C3_4 
REMARK    2  A    between atoms: C3_4  and  C4_5 
REMARK    3  A    between atoms: C11_13  and  C12_14 
REMARK    4  A    between atoms: C12_14  and  C13_15 
REMARK    5  A    between atoms: C13_15  and  N2_16 
REMARK       I    between atoms: N2_16  and  C14_17 
REMARK    6  A    between atoms: C14_17  and  C15_19 
REMARK    7  A    between atoms: C15_19  and  C16_20 
REMARK    8  A    between atoms: C16_20  and  C17_21 
REMARK    9  A    between atoms: C17_21  and  N3_22 
ROOT
HETATM    1  C4  UNL     1      22.644   3.482  51.374  1.00  0.00     0.049 C 
HETATM    2  C5  UNL     1      22.179   2.707  52.685  1.00  0.00     0.019 C 
HETATM    3  C6  UNL     1      23.819   2.803  52.778  1.00  0.00     0.041 A 
HETATM    4  C7  UNL     1      24.911   2.189  51.971  1.00  0.00     0.182 A 
HETATM    5  N1  UNL     1      25.633   2.544  50.958  1.00  0.00    -0.025 N 
HETATM    6  C8  UNL     1      25.892   3.387  50.018  1.00  0.00     0.260 A 
HETATM    7  C9  UNL     1      24.836   3.663  50.870  1.00  0.00     0.264 A 
HETATM    8  C10 UNL     1      24.368   2.907  51.944  1.00  0.00     0.180 A 
HETATM    9  C11 UNL     1      24.366   1.656  52.953  1.00  0.00     0.045 A 
ENDROOT
BRANCH   9  10
HETATM   10  C12 UNL     1      25.116   0.444  52.812  1.00  0.00     0.024 C 
BRANCH  10  11
HETATM   11  C13 UNL     1      24.606  -0.450  53.809  1.00  0.00     0.128 C 
BRANCH  11  12
HETATM   12  N2  UNL     1      23.194  -0.747  53.667  1.00  0.00    -0.361 N 
HETATM   13  C14 UNL     1      22.360  -1.305  54.672  1.00  0.00     0.217 C 
HETATM   14  O1  UNL     1      22.997  -1.529  55.730  1.00  0.00    -0.274 OA
HETATM   15  H14 UNL     1      22.744  -0.525  52.746  1.00  0.00     0.162 HD
BRANCH  13  16
HETATM   16  C15 UNL     1      20.918  -1.532  54.335  1.00  0.00     0.104 C 
BRANCH  16  17
HETATM   17  C16 UNL     1      20.252  -0.255  53.892  1.00  0.00     0.039 C 
BRANCH  17  18
HETATM   18  C17 UNL     1      19.872  -0.309  52.431  1.00  0.00     0.271 C 
BRANCH  18  19
HETATM   19  N3  UNL     1      18.455   0.003  52.335  1.00  0.00     0.080 N 
HETATM   20  C18 UNL     1      18.037   0.219  50.953  1.00  0.00     0.309 C 
HETATM   21  C19 UNL     1      17.637  -1.054  52.929  1.00  0.00     0.309 C 
ENDBRANCH  18  19
ENDBRANCH  17  18
ENDBRANCH  16  17
ENDBRANCH  13  16
ENDBRANCH  11  12
ENDBRANCH  10  11
ENDBRANCH   9  10
BRANCH   1  22
HETATM   22  C3  UNL     1      22.432   2.927  50.190  1.00  0.00    -0.005 C 
BRANCH  22  23
HETATM   23  C2  UNL     1      22.099   2.109  49.212  1.00  0.00    -0.019 C 
HETATM   24  C1  UNL     1      21.381   0.769  49.279  1.00  0.00     0.056 C 
HETATM   25 BR1  UNL     1      22.502   2.610  47.382  1.00  0.00    -0.057 Br
ENDBRANCH  22  23
ENDBRANCH   1  22
TORSDOF 9
ENDMDL
MODEL 5
REMARK VINA RESULT:      -6.0      2.233      3.261
REMARK  9 active torsions:
REMARK  status: ('A' for Active; 'I' for Inactive)
REMARK    1  A    between atoms: C2_2  and  C3_4 
REMARK    2  A    between atoms: C3_4  and  C4_5 
REMARK    3  A    between atoms: C11_13  and  C12_14 
REMARK    4  A    between atoms: C12_14  and  C13_15 
REMARK    5  A    between atoms: C13_15  and  N2_16 
REMARK       I    between atoms: N2_16  and  C14_17 
REMARK    6  A    between atoms: C14_17  and  C15_19 
REMARK    7  A    between atoms: C15_19  and  C16_20 
REMARK    8  A    between atoms: C16_20  and  C17_21 
REMARK    9  A    between atoms: C17_21  and  N3_22 
ROOT
HETATM    1  C4  UNL     1      20.741   1.542  50.155  1.00  0.00     0.049 C 
HETATM    2  C5  UNL     1      22.236   1.319  50.653  1.00  0.00     0.019 C 
HETATM    3  C6  UNL     1      21.351   0.107  51.330  1.00  0.00     0.041 A 
HETATM    4  C7  UNL     1      20.278   0.101  52.363  1.00  0.00     0.182 A 
HETATM    5  N1  UNL     1      18.984   0.116  52.362  1.00  0.00    -0.025 N 
HETATM    6  C8  UNL     1      17.874   0.220  51.715  1.00  0.00     0.260 A 
HETATM    7  C9  UNL     1      19.056   0.299  51.000  1.00  0.00     0.264 A 
HETATM    8  C10 UNL     1      20.365   0.221  51.475  1.00  0.00     0.180 A 
HETATM    9  C11 UNL     1      21.497   0.050  52.603  1.00  0.00     0.045 A 
ENDROOT
BRANCH   9  10
HETATM   10  C12 UNL     1      21.299   0.077  54.021  1.00  0.00     0.024 C 
BRANCH  10  11
HETATM   11  C13 UNL     1      22.355  -0.714  54.579  1.00  0.00     0.128 C 
BRANCH  11  12
HETATM   12  N2  UNL     1      23.623  -0.576  53.888  1.00  0.00    -0.361 N 
HETATM   13  C14 UNL     1      24.898  -0.896  54.425  1.00  0.00     0.217 C 
HETATM   14  O1  UNL     1      24.811  -1.318  55.604  1.00  0.00    -0.274 OA
HETATM   15  H14 UNL     1      23.600  -0.216  52.903  1.00  0.00     0.162 HD
BRANCH  13  16
HETATM   16  C15 UNL     1      26.096  -0.692  53.549  1.00  0.00     0.104 C 
BRANCH  16  17
HETATM   17  C16 UNL     1      26.845   0.559  53.928  1.00  0.00     0.039 C 
BRANCH  17  18
HETATM   18  C17 UNL     1      27.953   0.262  54.911  1.00  0.00     0.271 C 
BRANCH  18  19
HETATM   19  N3  UNL     1      29.163   0.897  54.413  1.00  0.00     0.080 N 
HETATM   20  C18 UNL     1      29.903   0.025  53.506  1.00  0.00     0.309 C 
HETATM   21  C19 UNL     1      28.860   2.157  53.734  1.00  0.00     0.309 C 
ENDBRANCH  18  19
ENDBRANCH  17  18
ENDBRANCH  16  17
ENDBRANCH  13  16
ENDBRANCH  11  12
ENDBRANCH  10  11
ENDBRANCH   9  10
BRANCH   1  22
HETATM   22  C3  UNL     1      20.096   2.639  50.524  1.00  0.00    -0.005 C 
BRANCH  22  23
HETATM   23  C2  UNL     1      19.636   3.872  50.618  1.00  0.00    -0.019 C 
HETATM   24  C1  UNL     1      18.207   4.354  50.809  1.00  0.00     0.056 C 
HETATM   25 BR1  UNL     1      20.887   5.353  50.556  1.00  0.00    -0.057 Br
ENDBRANCH  22  23
ENDBRANCH   1  22
TORSDOF 9
ENDMDL
MODEL 6
REMARK VINA RESULT:      -5.9      4.055      6.947
REMARK  9 active torsions:
REMARK  status: ('A' for Active; 'I' for Inactive)
REMARK    1  A    between atoms: C2_2  and  C3_4 
REMARK    2  A    between atoms: C3_4  and  C4_5 
REMARK    3  A    between atoms: C11_13  and  C12_14 
REMARK    4  A    between atoms: C12_14  and  C13_15 
REMARK    5  A    between atoms: C13_15  and  N2_16 
REMARK       I    between atoms: N2_16  and  C14_17 
REMARK    6  A    between atoms: C14_17  and  C15_19 
REMARK    7  A    between atoms: C15_19  and  C16_20 
REMARK    8  A    between atoms: C16_20  and  C17_21 
REMARK    9  A    between atoms: C17_21  and  N3_22 
ROOT
HETATM    1  C4  UNL     1      25.082   1.314  53.559  1.00  0.00     0.049 C 
HETATM    2  C5  UNL     1      25.096   2.628  52.661  1.00  0.00     0.019 C 
HETATM    3  C6  UNL     1      23.533   2.113  52.682  1.00  0.00     0.041 A 
HETATM    4  C7  UNL     1      22.862   0.907  52.121  1.00  0.00     0.182 A 
HETATM    5  N1  UNL     1      22.534  -0.265  52.559  1.00  0.00    -0.025 N 
HETATM    6  C8  UNL     1      22.572  -1.154  53.492  1.00  0.00     0.260 A 
HETATM    7  C9  UNL     1      23.218   0.050  53.711  1.00  0.00     0.264 A 
HETATM    8  C10 UNL     1      23.319   1.148  52.858  1.00  0.00     0.180 A 
HETATM    9  C11 UNL     1      23.050   1.969  51.503  1.00  0.00     0.045 A 
ENDROOT
BRANCH   9  10
HETATM   10  C12 UNL     1      22.500   1.452  50.286  1.00  0.00     0.024 C 
BRANCH  10  11
HETATM   11  C13 UNL     1      22.588   2.517  49.332  1.00  0.00     0.128 C 
BRANCH  11  12
HETATM   12  N2  UNL     1      23.894   3.143  49.267  1.00  0.00    -0.361 N 
HETATM   13  C14 UNL     1      24.143   4.541  49.259  1.00  0.00     0.217 C 
HETATM   14  O1  UNL     1      23.077   5.202  49.308  1.00  0.00    -0.274 OA
HETATM   15  H14 UNL     1      24.731   2.512  49.230  1.00  0.00     0.162 HD
BRANCH  13  16
HETATM   16  C15 UNL     1      25.569   4.996  49.196  1.00  0.00     0.104 C 
BRANCH  16  17
HETATM   17  C16 UNL     1      25.671   6.406  48.677  1.00  0.00     0.039 C 
BRANCH  17  18
HETATM   18  C17 UNL     1      26.018   7.377  49.782  1.00  0.00     0.271 C 
BRANCH  18  19
HETATM   19  N3  UNL     1      27.277   8.013  49.428  1.00  0.00     0.080 N 
HETATM   20  C18 UNL     1      27.398   8.218  47.987  1.00  0.00     0.309 C 
HETATM   21  C19 UNL     1      27.437   9.295  50.114  1.00  0.00     0.309 C 
ENDBRANCH  18  19
ENDBRANCH  17  18
ENDBRANCH  16  17
ENDBRANCH  13  16
ENDBRANCH  11  12
ENDBRANCH  10  11
ENDBRANCH   9  10
BRANCH   1  22
HETATM   22  C3  UNL     1      25.754   0.248  53.151  1.00  0.00    -0.005 C 
BRANCH  22  23
HETATM   23  C2  UNL     1      26.677  -0.672  52.948  1.00  0.00    -0.019 C 
HETATM   24  C1  UNL     1      26.562  -2.014  52.243  1.00  0.00     0.056 C 
HETATM   25 BR1  UNL     1      28.487  -0.345  53.565  1.00  0.00    -0.057 Br
ENDBRANCH  22  23
ENDBRANCH   1  22
TORSDOF 9
ENDMDL
MODEL 7
REMARK VINA RESULT:      -5.9      1.982      2.969
REMARK  9 active torsions:
REMARK  status: ('A' for Active; 'I' for Inactive)
REMARK    1  A    between atoms: C2_2  and  C3_4 
REMARK    2  A    between atoms: C3_4  and  C4_5 
REMARK    3  A    between atoms: C11_13  and  C12_14 
REMARK    4  A    between atoms: C12_14  and  C13_15 
REMARK    5  A    between atoms: C13_15  and  N2_16 
REMARK       I    between atoms: N2_16  and  C14_17 
REMARK    6  A    between atoms: C14_17  and  C15_19 
REMARK    7  A    between atoms: C15_19  and  C16_20 
REMARK    8  A    between atoms: C16_20  and  C17_21 
REMARK    9  A    between atoms: C17_21  and  N3_22 
ROOT
HETATM    1  C4  UNL     1      22.662   2.979  49.052  1.00  0.00     0.049 C 
HETATM    2  C5  UNL     1      22.076   1.500  49.122  1.00  0.00     0.019 C 
HETATM    3  C6  UNL     1      21.124   2.409  50.110  1.00  0.00     0.041 A 
HETATM    4  C7  UNL     1      21.385   3.104  51.402  1.00  0.00     0.182 A 
HETATM    5  N1  UNL     1      21.720   4.299  51.765  1.00  0.00    -0.025 N 
HETATM    6  C8  UNL     1      22.095   5.492  51.452  1.00  0.00     0.260 A 
HETATM    7  C9  UNL     1      21.877   4.587  50.428  1.00  0.00     0.264 A 
HETATM    8  C10 UNL     1      21.478   3.254  50.519  1.00  0.00     0.180 A 
HETATM    9  C11 UNL     1      21.034   1.916  51.290  1.00  0.00     0.045 A 
ENDROOT
BRANCH   9  10
HETATM   10  C12 UNL     1      21.113   1.678  52.700  1.00  0.00     0.024 C 
BRANCH  10  11
HETATM   11  C13 UNL     1      21.618   0.345  52.845  1.00  0.00     0.128 C 
BRANCH  11  12
HETATM   12  N2  UNL     1      23.055   0.277  53.033  1.00  0.00    -0.361 N 
HETATM   13  C14 UNL     1      23.728  -0.541  53.979  1.00  0.00     0.217 C 
HETATM   14  O1  UNL     1      22.921  -1.217  54.664  1.00  0.00    -0.274 OA
HETATM   15  H14 UNL     1      23.652   0.876  52.414  1.00  0.00     0.162 HD
BRANCH  13  16
HETATM   16  C15 UNL     1      25.224  -0.479  54.015  1.00  0.00     0.104 C 
BRANCH  16  17
HETATM   17  C16 UNL     1      25.779   0.095  52.738  1.00  0.00     0.039 C 
BRANCH  17  18
HETATM   18  C17 UNL     1      27.290   0.099  52.746  1.00  0.00     0.271 C 
BRANCH  18  19
HETATM   19  N3  UNL     1      27.721   0.891  53.888  1.00  0.00     0.080 N 
HETATM   20  C18 UNL     1      28.780   0.228  54.642  1.00  0.00     0.309 C 
HETATM   21  C19 UNL     1      28.177   2.217  53.474  1.00  0.00     0.309 C 
ENDBRANCH  18  19
ENDBRANCH  17  18
ENDBRANCH  16  17
ENDBRANCH  13  16
ENDBRANCH  11  12
ENDBRANCH  10  11
ENDBRANCH   9  10
BRANCH   1  22
HETATM   22  C3  UNL     1      23.885   3.210  49.505  1.00  0.00    -0.005 C 
BRANCH  22  23
HETATM   23  C2  UNL     1      25.127   3.628  49.655  1.00  0.00    -0.019 C 
HETATM   24  C1  UNL     1      26.338   2.879  50.189  1.00  0.00     0.056 C 
HETATM   25 BR1  UNL     1      25.588   5.431  49.107  1.00  0.00    -0.057 Br
ENDBRANCH  22  23
ENDBRANCH   1  22
TORSDOF 9
ENDMDL
MODEL 8
REMARK VINA RESULT:      -5.7      1.797      2.542
REMARK  9 active torsions:
REMARK  status: ('A' for Active; 'I' for Inactive)
REMARK    1  A    between atoms: C2_2  and  C3_4 
REMARK    2  A    between atoms: C3_4  and  C4_5 
REMARK    3  A    between atoms: C11_13  and  C12_14 
REMARK    4  A    between atoms: C12_14  and  C13_15 
REMARK    5  A    between atoms: C13_15  and  N2_16 
REMARK       I    between atoms: N2_16  and  C14_17 
REMARK    6  A    between atoms: C14_17  and  C15_19 
REMARK    7  A    between atoms: C15_19  and  C16_20 
REMARK    8  A    between atoms: C16_20  and  C17_21 
REMARK    9  A    between atoms: C17_21  and  N3_22 
ROOT
HETATM    1  C4  UNL     1      20.269   4.483  50.920  1.00  0.00     0.049 C 
HETATM    2  C5  UNL     1      19.107   3.426  51.181  1.00  0.00     0.019 C 
HETATM    3  C6  UNL     1      20.263   3.112  52.309  1.00  0.00     0.041 A 
HETATM    4  C7  UNL     1      21.654   2.589  52.207  1.00  0.00     0.182 A 
HETATM    5  N1  UNL     1      22.840   3.102  52.134  1.00  0.00    -0.025 N 
HETATM    6  C8  UNL     1      23.596   4.140  52.018  1.00  0.00     0.260 A 
HETATM    7  C9  UNL     1      22.226   4.331  52.034  1.00  0.00     0.264 A 
HETATM    8  C10 UNL     1      21.218   3.373  52.143  1.00  0.00     0.180 A 
HETATM    9  C11 UNL     1      20.634   1.884  52.299  1.00  0.00     0.045 A 
ENDROOT
BRANCH   9  10
HETATM   10  C12 UNL     1      21.371   0.662  52.180  1.00  0.00     0.024 C 
BRANCH  10  11
HETATM   11  C13 UNL     1      21.350   0.064  53.482  1.00  0.00     0.128 C 
BRANCH  11  12
HETATM   12  N2  UNL     1      22.667  -0.177  54.041  1.00  0.00    -0.361 N 
HETATM   13  C14 UNL     1      22.994  -1.189  54.983  1.00  0.00     0.217 C 
HETATM   14  O1  UNL     1      21.988  -1.871  55.298  1.00  0.00    -0.274 OA
HETATM   15  H14 UNL     1      23.449   0.441  53.718  1.00  0.00     0.162 HD
BRANCH  13  16
HETATM   16  C15 UNL     1      24.418  -1.285  55.436  1.00  0.00     0.104 C 
BRANCH  16  17
HETATM   17  C16 UNL     1      25.357  -0.693  54.419  1.00  0.00     0.039 C 
BRANCH  17  18
HETATM   18  C17 UNL     1      26.374   0.216  55.070  1.00  0.00     0.271 C 
BRANCH  18  19
HETATM   19  N3  UNL     1      27.447   0.431  54.112  1.00  0.00     0.080 N 
HETATM   20  C18 UNL     1      28.733  -0.040  54.619  1.00  0.00     0.309 C 
HETATM   21  C19 UNL     1      27.160  -0.225  52.837  1.00  0.00     0.309 C 
ENDBRANCH  18  19
ENDBRANCH  17  18
ENDBRANCH  16  17
ENDBRANCH  13  16
ENDBRANCH  11  12
ENDBRANCH  10  11
ENDBRANCH   9  10
BRANCH   1  22
HETATM   22  C3  UNL     1      20.934   4.439  49.775  1.00  0.00    -0.005 C 
BRANCH  22  23
HETATM   23  C2  UNL     1      21.554   4.045  48.680  1.00  0.00    -0.019 C 
HETATM   24  C1  UNL     1      22.305   4.872  47.648  1.00  0.00     0.056 C 
HETATM   25 BR1  UNL     1      21.607   2.154  48.254  1.00  0.00    -0.057 Br
ENDBRANCH  22  23
ENDBRANCH   1  22
TORSDOF 9
ENDMDL
MODEL 9
REMARK VINA RESULT:      -5.7      3.399      6.450
REMARK  9 active torsions:
REMARK  status: ('A' for Active; 'I' for Inactive)
REMARK    1  A    between atoms: C2_2  and  C3_4 
REMARK    2  A    between atoms: C3_4  and  C4_5 
REMARK    3  A    between atoms: C11_13  and  C12_14 
REMARK    4  A    between atoms: C12_14  and  C13_15 
REMARK    5  A    between atoms: C13_15  and  N2_16 
REMARK       I    between atoms: N2_16  and  C14_17 
REMARK    6  A    between atoms: C14_17  and  C15_19 
REMARK    7  A    between atoms: C15_19  and  C16_20 
REMARK    8  A    between atoms: C16_20  and  C17_21 
REMARK    9  A    between atoms: C17_21  and  N3_22 
ROOT
HETATM    1  C4  UNL     1      24.097   2.261  53.250  1.00  0.00     0.049 C 
HETATM    2  C5  UNL     1      23.755   3.407  52.199  1.00  0.00     0.019 C 
HETATM    3  C6  UNL     1      22.458   2.394  52.199  1.00  0.00     0.041 A 
HETATM    4  C7  UNL     1      22.282   0.983  51.755  1.00  0.00     0.182 A 
HETATM    5  N1  UNL     1      22.323  -0.183  52.316  1.00  0.00    -0.025 N 
HETATM    6  C8  UNL     1      22.569  -0.909  53.352  1.00  0.00     0.260 A 
HETATM    7  C9  UNL     1      22.755   0.458  53.456  1.00  0.00     0.264 A 
HETATM    8  C10 UNL     1      22.563   1.436  52.480  1.00  0.00     0.180 A 
HETATM    9  C11 UNL     1      22.162   1.980  51.022  1.00  0.00     0.045 A 
ENDROOT
BRANCH   9  10
HETATM   10  C12 UNL     1      21.931   1.189  49.850  1.00  0.00     0.024 C 
BRANCH  10  11
HETATM   11  C13 UNL     1      21.286   2.059  48.912  1.00  0.00     0.128 C 
BRANCH  11  12
HETATM   12  N2  UNL     1      21.888   3.376  48.820  1.00  0.00    -0.361 N 
HETATM   13  C14 UNL     1      22.297   4.016  47.620  1.00  0.00     0.217 C 
HETATM   14  O1  UNL     1      22.083   3.297  46.614  1.00  0.00    -0.274 OA
HETATM   15  H14 UNL     1      22.028   3.907  49.713  1.00  0.00     0.162 HD
BRANCH  13  16
HETATM   16  C15 UNL     1      22.893   5.387  47.729  1.00  0.00     0.104 C 
BRANCH  16  17
HETATM   17  C16 UNL     1      23.384   5.660  49.127  1.00  0.00     0.039 C 
BRANCH  17  18
HETATM   18  C17 UNL     1      24.894   5.692  49.184  1.00  0.00     0.271 C 
BRANCH  18  19
HETATM   19  N3  UNL     1      25.272   6.495  50.336  1.00  0.00     0.080 N 
HETATM   20  C18 UNL     1      26.138   7.609  49.965  1.00  0.00     0.309 C 
HETATM   21  C19 UNL     1      24.094   7.008  51.035  1.00  0.00     0.309 C 
ENDBRANCH  18  19
ENDBRANCH  17  18
ENDBRANCH  16  17
ENDBRANCH  13  16
ENDBRANCH  11  12
ENDBRANCH  10  11
ENDBRANCH   9  10
BRANCH   1  22
HETATM   22  C3  UNL     1      25.120   1.454  53.013  1.00  0.00    -0.005 C 
BRANCH  22  23
HETATM   23  C2  UNL     1      26.302   0.958  52.702  1.00  0.00    -0.019 C 
HETATM   24  C1  UNL     1      26.643  -0.330  51.968  1.00  0.00     0.056 C 
HETATM   25 BR1  UNL     1      27.898   1.957  53.168  1.00  0.00    -0.057 Br
ENDBRANCH  22  23
ENDBRANCH   1  22
TORSDOF 9
ENDMDL
