MODEL 1
REMARK VINA RESULT:      -9.0      0.000      0.000
REMARK  5 active torsions:
REMARK  status: ('A' for Active; 'I' for Inactive)
REMARK    1  A    between atoms: O1_2  and  C2_3 
REMARK    2  A    between atoms: C4_5  and  C5_6 
REMARK    3  A    between atoms: N1_8  and  C7_9 
REMARK    4  A    between atoms: C12_16  and  C13_17 
REMARK    5  A    between atoms: C20_28  and  N5_29 
ROOT
HETATM    1  C5  UNL     1      23.541   2.018  52.644  1.00  0.00     0.024 A 
HETATM    2  C6  UNL     1      24.847   1.906  53.118  1.00  0.00     0.127 A 
HETATM    3  N1  UNL     1      25.006   0.588  53.413  1.00  0.00    -0.275 N 
HETATM    4  N3  UNL     1      23.894  -0.034  53.140  1.00  0.00    -0.171 NA
HETATM    5  C12 UNL     1      22.940   0.777  52.661  1.00  0.00     0.103 A 
ENDROOT
BRANCH   1   6
HETATM    6  C4  UNL     1      23.101   3.358  52.245  1.00  0.00    -0.002 A 
HETATM    7  C3  UNL     1      24.154   4.052  51.676  1.00  0.00     0.054 A 
HETATM    8  C2  UNL     1      23.956   5.362  51.225  1.00  0.00     0.114 A 
HETATM    9  C20 UNL     1      22.698   5.918  51.367  1.00  0.00     0.154 A 
HETATM   10  N4  UNL     1      21.699   5.215  51.926  1.00  0.00    -0.240 NA
HETATM   11  C19 UNL     1      21.868   3.959  52.364  1.00  0.00     0.131 A 
BRANCH   8  12
HETATM   12  O1  UNL     1      24.862   6.216  50.636  1.00  0.00    -0.352 OA
HETATM   13  C1  UNL     1      25.667   5.708  49.585  1.00  0.00     0.210 C 
ENDBRANCH   8  12
BRANCH   9  14
HETATM   14  N5  UNL     1      22.334   7.243  50.958  1.00  0.00    -0.382 N 
HETATM   15  H19 UNL     1      21.554   7.452  50.294  1.00  0.00     0.157 HD
HETATM   16  H20 UNL     1      22.776   8.159  51.253  1.00  0.00     0.157 HD
ENDBRANCH   9  14
ENDBRANCH   1   6
BRANCH   5  17
HETATM   17  C13 UNL     1      21.563   0.591  52.220  1.00  0.00     0.042 A 
HETATM   18  C14 UNL     1      20.709   0.167  53.218  1.00  0.00     0.048 A 
HETATM   19 CL1  UNL     1      21.168  -0.151  54.881  1.00  0.00    -0.083 Cl
HETATM   20  C15 UNL     1      19.356  -0.047  52.945  1.00  0.00     0.028 A 
HETATM   21  C16 UNL     1      18.942   0.185  51.650  1.00  0.00     0.046 A 
HETATM   22  C17 UNL     1      19.772   0.609  50.631  1.00  0.00     0.139 A 
HETATM   23  F1  UNL     1      19.351   0.832  49.374  1.00  0.00    -0.204 F 
HETATM   24  C18 UNL     1      21.118   0.816  50.933  1.00  0.00     0.086 A 
HETATM   25 CL2  UNL     1      22.292   1.357  49.736  1.00  0.00    -0.080 Cl
ENDBRANCH   5  17
BRANCH   3  26
HETATM   26  C7  UNL     1      26.194  -0.035  53.942  1.00  0.00     0.113 C 
HETATM   27  C8  UNL     1      26.691  -1.169  53.074  1.00  0.00     0.057 C 
HETATM   28  C9  UNL     1      28.190  -1.076  52.893  1.00  0.00     0.271 C 
HETATM   29  N2  UNL     1      28.773  -0.961  54.208  1.00  0.00     0.083 N 
HETATM   30  C10 UNL     1      28.530   0.379  54.679  1.00  0.00     0.271 C 
HETATM   31  H11 UNL     1      28.296  -1.630  54.833  1.00  0.00     0.315 HD
HETATM   32  C11 UNL     1      27.267   1.004  54.160  1.00  0.00     0.057 C 
ENDBRANCH   3  26
TORSDOF 5
ENDMDL
MODEL 2
REMARK VINA RESULT:      -8.8      2.996      5.233
REMARK  5 active torsions:
REMARK  status: ('A' for Active; 'I' for Inactive)
REMARK    1  A    between atoms: O1_2  and  C2_3 
REMARK    2  A    between atoms: C4_5  and  C5_6 
REMARK    3  A    between atoms: N1_8  and  C7_9 
REMARK    4  A    between atoms: C12_16  and  C13_17 
REMARK    5  A    between atoms: C20_28  and  N5_29 
ROOT
HETATM    1  C5  UNL     1      23.997   1.873  51.581  1.00  0.00     0.024 A 
HETATM    2  C6  UNL     1      24.521   0.824  52.336  1.00  0.00     0.127 A 
HETATM    3  N1  UNL     1      25.709   1.287  52.808  1.00  0.00    -0.275 N 
HETATM    4  N3  UNL     1      25.881   2.503  52.376  1.00  0.00    -0.171 NA
HETATM    5  C12 UNL     1      24.870   2.940  51.611  1.00  0.00     0.103 A 
ENDROOT
BRANCH   1   6
HETATM    6  C4  UNL     1      22.696   1.638  50.949  1.00  0.00    -0.002 A 
HETATM    7  C3  UNL     1      21.786   1.188  51.889  1.00  0.00     0.054 A 
HETATM    8  C2  UNL     1      20.475   0.896  51.498  1.00  0.00     0.114 A 
HETATM    9  C20 UNL     1      20.135   1.071  50.170  1.00  0.00     0.154 A 
HETATM   10  N4  UNL     1      21.044   1.510  49.283  1.00  0.00    -0.240 NA
HETATM   11  C19 UNL     1      22.306   1.796  49.637  1.00  0.00     0.131 A 
BRANCH   8  12
HETATM   12  O1  UNL     1      19.427   0.441  52.269  1.00  0.00    -0.352 OA
HETATM   13  C1  UNL     1      19.732  -0.379  53.385  1.00  0.00     0.210 C 
ENDBRANCH   8  12
BRANCH   9  14
HETATM   14  N5  UNL     1      18.838   0.818  49.612  1.00  0.00    -0.382 N 
HETATM   15  H19 UNL     1      18.246  -0.004  49.868  1.00  0.00     0.157 HD
HETATM   16  H20 UNL     1      18.315   1.396  48.895  1.00  0.00     0.157 HD
ENDBRANCH   9  14
ENDBRANCH   1   6
BRANCH   5  17
HETATM   17  C13 UNL     1      24.582   4.181  50.902  1.00  0.00     0.042 A 
HETATM   18  C14 UNL     1      25.346   4.366  49.768  1.00  0.00     0.048 A 
HETATM   19 CL1  UNL     1      26.576   3.263  49.179  1.00  0.00    -0.083 Cl
HETATM   20  C15 UNL     1      25.176   5.509  48.982  1.00  0.00     0.028 A 
HETATM   21  C16 UNL     1      24.222   6.412  49.403  1.00  0.00     0.046 A 
HETATM   22  C17 UNL     1      23.443   6.254  50.532  1.00  0.00     0.139 A 
HETATM   23  F1  UNL     1      22.517   7.145  50.926  1.00  0.00    -0.204 F 
HETATM   24  C18 UNL     1      23.634   5.103  51.296  1.00  0.00     0.086 A 
HETATM   25 CL2  UNL     1      22.713   4.766  52.760  1.00  0.00    -0.080 Cl
ENDBRANCH   5  17
BRANCH   3  26
HETATM   26  C7  UNL     1      26.638   0.568  53.646  1.00  0.00     0.113 C 
HETATM   27  C8  UNL     1      26.955  -0.810  53.112  1.00  0.00     0.057 C 
HETATM   28  C9  UNL     1      28.443  -1.073  53.182  1.00  0.00     0.271 C 
HETATM   29  N2  UNL     1      28.865  -0.785  54.530  1.00  0.00     0.083 N 
HETATM   30  C10 UNL     1      28.893   0.647  54.685  1.00  0.00     0.271 C 
HETATM   31  H11 UNL     1      28.168  -1.182  55.180  1.00  0.00     0.315 HD
HETATM   32  C11 UNL     1      27.891   1.385  53.844  1.00  0.00     0.057 C 
ENDBRANCH   3  26
TORSDOF 5
ENDMDL
MODEL 3
REMARK VINA RESULT:      -8.8      2.991      4.958
REMARK  5 active torsions:
REMARK  status: ('A' for Active; 'I' for Inactive)
REMARK    1  A    between atoms: O1_2  and  C2_3 
REMARK    2  A    between atoms: C4_5  and  C5_6 
REMARK    3  A    between atoms: N1_8  and  C7_9 
REMARK    4  A    between atoms: C12_16  and  C13_17 
REMARK    5  A    between atoms: C20_28  and  N5_29 
ROOT
HETATM    1  C5  UNL     1      23.854   1.651  52.139  1.00  0.00     0.024 A 
HETATM    2  C6  UNL     1      24.960   0.910  52.552  1.00  0.00     0.127 A 
HETATM    3  N1  UNL     1      26.040   1.642  52.169  1.00  0.00    -0.275 N 
HETATM    4  N3  UNL     1      25.619   2.724  51.580  1.00  0.00    -0.171 NA
HETATM    5  C12 UNL     1      24.282   2.807  51.520  1.00  0.00     0.103 A 
ENDROOT
BRANCH   1   6
HETATM    6  C4  UNL     1      22.537   1.081  52.434  1.00  0.00    -0.002 A 
HETATM    7  C3  UNL     1      22.636   0.169  53.470  1.00  0.00     0.054 A 
HETATM    8  C2  UNL     1      21.491  -0.501  53.914  1.00  0.00     0.114 A 
HETATM    9  C20 UNL     1      20.289  -0.221  53.293  1.00  0.00     0.154 A 
HETATM   10  N4  UNL     1      20.228   0.670  52.289  1.00  0.00    -0.240 NA
HETATM   11  C19 UNL     1      21.314   1.323  51.849  1.00  0.00     0.131 A 
BRANCH   8  12
HETATM   12  O1  UNL     1      21.376  -1.436  54.920  1.00  0.00    -0.352 OA
HETATM   13  C1  UNL     1      22.568  -1.922  55.514  1.00  0.00     0.210 C 
ENDBRANCH   8  12
BRANCH   9  14
HETATM   14  N5  UNL     1      19.030  -0.820  53.629  1.00  0.00    -0.382 N 
HETATM   15  H19 UNL     1      18.934  -1.688  54.203  1.00  0.00     0.157 HD
HETATM   16  H20 UNL     1      18.060  -0.489  53.360  1.00  0.00     0.157 HD
ENDBRANCH   9  14
ENDBRANCH   1   6
BRANCH   5  17
HETATM   17  C13 UNL     1      23.338   3.777  50.981  1.00  0.00     0.042 A 
HETATM   18  C14 UNL     1      23.001   4.782  51.867  1.00  0.00     0.048 A 
HETATM   19 CL1  UNL     1      23.605   4.934  53.507  1.00  0.00    -0.083 Cl
HETATM   20  C15 UNL     1      22.110   5.788  51.487  1.00  0.00     0.028 A 
HETATM   21  C16 UNL     1      21.603   5.714  50.206  1.00  0.00     0.046 A 
HETATM   22  C17 UNL     1      21.920   4.722  49.299  1.00  0.00     0.139 A 
HETATM   23  F1  UNL     1      21.417   4.667  48.053  1.00  0.00    -0.204 F 
HETATM   24  C18 UNL     1      22.814   3.732  49.706  1.00  0.00     0.086 A 
HETATM   25 CL2  UNL     1      23.312   2.406  48.656  1.00  0.00    -0.080 Cl
ENDBRANCH   5  17
BRANCH   3  26
HETATM   26  C7  UNL     1      27.427   1.295  52.370  1.00  0.00     0.113 C 
HETATM   27  C8  UNL     1      28.177   2.336  53.168  1.00  0.00     0.057 C 
HETATM   28  C9  UNL     1      29.033   1.675  54.224  1.00  0.00     0.271 C 
HETATM   29  N2  UNL     1      29.826   0.668  53.563  1.00  0.00     0.083 N 
HETATM   30  C10 UNL     1      28.960  -0.444  53.262  1.00  0.00     0.271 C 
HETATM   31  H11 UNL     1      30.185   1.066  52.680  1.00  0.00     0.315 HD
HETATM   32  C11 UNL     1      27.528  -0.069  53.008  1.00  0.00     0.057 C 
ENDBRANCH   3  26
TORSDOF 5
ENDMDL
MODEL 4
REMARK VINA RESULT:      -8.7      0.841      1.894
REMARK  5 active torsions:
REMARK  status: ('A' for Active; 'I' for Inactive)
REMARK    1  A    between atoms: O1_2  and  C2_3 
REMARK    2  A    between atoms: C4_5  and  C5_6 
REMARK    3  A    between atoms: N1_8  and  C7_9 
REMARK    4  A    between atoms: C12_16  and  C13_17 
REMARK    5  A    between atoms: C20_28  and  N5_29 
ROOT
HETATM    1  C5  UNL     1      23.328   2.283  52.434  1.00  0.00     0.024 A 
HETATM    2  C6  UNL     1      24.589   2.148  53.012  1.00  0.00     0.127 A 
HETATM    3  N1  UNL     1      24.729   0.816  53.250  1.00  0.00    -0.275 N 
HETATM    4  N3  UNL     1      23.649   0.208  52.850  1.00  0.00    -0.171 NA
HETATM    5  C12 UNL     1      22.734   1.042  52.334  1.00  0.00     0.103 A 
ENDROOT
BRANCH   1   6
HETATM    6  C4  UNL     1      22.916   3.642  52.070  1.00  0.00    -0.002 A 
HETATM    7  C3  UNL     1      24.002   4.353  51.591  1.00  0.00     0.054 A 
HETATM    8  C2  UNL     1      23.835   5.682  51.187  1.00  0.00     0.114 A 
HETATM    9  C20 UNL     1      22.573   6.240  51.283  1.00  0.00     0.154 A 
HETATM   10  N4  UNL     1      21.541   5.519  51.753  1.00  0.00    -0.240 NA
HETATM   11  C19 UNL     1      21.680   4.244  52.146  1.00  0.00     0.131 A 
BRANCH   8  12
HETATM   12  O1  UNL     1      24.776   6.555  50.686  1.00  0.00    -0.352 OA
HETATM   13  C1  UNL     1      25.667   6.073  49.694  1.00  0.00     0.210 C 
ENDBRANCH   8  12
BRANCH   9  14
HETATM   14  N5  UNL     1      22.237   7.583  50.911  1.00  0.00    -0.382 N 
HETATM   15  H19 UNL     1      22.723   8.429  51.287  1.00  0.00     0.157 HD
HETATM   16  H20 UNL     1      21.487   7.902  50.235  1.00  0.00     0.157 HD
ENDBRANCH   9  14
ENDBRANCH   1   6
BRANCH   5  17
HETATM   17  C13 UNL     1      21.401   0.878  51.768  1.00  0.00     0.042 A 
HETATM   18  C14 UNL     1      21.332   1.144  50.415  1.00  0.00     0.048 A 
HETATM   19 CL1  UNL     1      22.677   1.648  49.408  1.00  0.00    -0.083 Cl
HETATM   20  C15 UNL     1      20.118   1.022  49.734  1.00  0.00     0.028 A 
HETATM   21  C16 UNL     1      19.026   0.631  50.481  1.00  0.00     0.046 A 
HETATM   22  C17 UNL     1      19.065   0.359  51.834  1.00  0.00     0.139 A 
HETATM   23  F1  UNL     1      17.990  -0.023  52.545  1.00  0.00    -0.204 F 
HETATM   24  C18 UNL     1      20.290   0.487  52.487  1.00  0.00     0.086 A 
HETATM   25 CL2  UNL     1      20.491   0.171  54.210  1.00  0.00    -0.080 Cl
ENDBRANCH   5  17
BRANCH   3  26
HETATM   26  C7  UNL     1      25.872   0.167  53.845  1.00  0.00     0.113 C 
HETATM   27  C8  UNL     1      26.298  -1.070  53.088  1.00  0.00     0.057 C 
HETATM   28  C9  UNL     1      27.800  -1.091  52.916  1.00  0.00     0.271 C 
HETATM   29  N2  UNL     1      28.383  -0.896  54.220  1.00  0.00     0.083 N 
HETATM   30  C10 UNL     1      28.226   0.494  54.567  1.00  0.00     0.271 C 
HETATM   31  H11 UNL     1      27.860  -1.474  54.899  1.00  0.00     0.315 HD
HETATM   32  C11 UNL     1      27.009   1.150  53.981  1.00  0.00     0.057 C 
ENDBRANCH   3  26
TORSDOF 5
ENDMDL
MODEL 5
REMARK VINA RESULT:      -8.5      3.081      5.103
REMARK  5 active torsions:
REMARK  status: ('A' for Active; 'I' for Inactive)
REMARK    1  A    between atoms: O1_2  and  C2_3 
REMARK    2  A    between atoms: C4_5  and  C5_6 
REMARK    3  A    between atoms: N1_8  and  C7_9 
REMARK    4  A    between atoms: C12_16  and  C13_17 
REMARK    5  A    between atoms: C20_28  and  N5_29 
ROOT
HETATM    1  C5  UNL     1      24.011   2.077  51.383  1.00  0.00     0.024 A 
HETATM    2  C6  UNL     1      24.456   0.976  52.112  1.00  0.00     0.127 A 
HETATM    3  N1  UNL     1      25.632   1.372  52.669  1.00  0.00    -0.275 N 
HETATM    4  N3  UNL     1      25.869   2.600  52.306  1.00  0.00    -0.171 NA
HETATM    5  C12 UNL     1      24.917   3.109  51.512  1.00  0.00     0.103 A 
ENDROOT
BRANCH   1   6
HETATM    6  C4  UNL     1      22.740   1.921  50.671  1.00  0.00    -0.002 A 
HETATM    7  C3  UNL     1      21.728   1.625  51.567  1.00  0.00     0.054 A 
HETATM    8  C2  UNL     1      20.424   1.429  51.099  1.00  0.00     0.114 A 
HETATM    9  C20 UNL     1      20.194   1.542  49.740  1.00  0.00     0.154 A 
HETATM   10  N4  UNL     1      21.201   1.830  48.898  1.00  0.00    -0.240 NA
HETATM   11  C19 UNL     1      22.457   2.022  49.326  1.00  0.00     0.131 A 
BRANCH   8  12
HETATM   12  O1  UNL     1      19.287   1.130  51.817  1.00  0.00    -0.352 OA
HETATM   13  C1  UNL     1      19.264  -0.085  52.548  1.00  0.00     0.210 C 
ENDBRANCH   8  12
BRANCH   9  14
HETATM   14  N5  UNL     1      18.921   1.372  49.104  1.00  0.00    -0.382 N 
HETATM   15  H19 UNL     1      18.697   0.586  48.451  1.00  0.00     0.157 HD
HETATM   16  H20 UNL     1      18.061   1.984  49.196  1.00  0.00     0.157 HD
ENDBRANCH   9  14
ENDBRANCH   1   6
BRANCH   5  17
HETATM   17  C13 UNL     1      24.711   4.392  50.850  1.00  0.00     0.042 A 
HETATM   18  C14 UNL     1      23.744   5.178  51.444  1.00  0.00     0.048 A 
HETATM   19 CL1  UNL     1      22.803   4.738  52.857  1.00  0.00    -0.083 Cl
HETATM   20  C15 UNL     1      23.442   6.439  50.923  1.00  0.00     0.028 A 
HETATM   21  C16 UNL     1      24.153   6.834  49.809  1.00  0.00     0.046 A 
HETATM   22  C17 UNL     1      25.124   6.070  49.193  1.00  0.00     0.139 A 
HETATM   23  F1  UNL     1      25.808   6.472  48.107  1.00  0.00    -0.204 F 
HETATM   24  C18 UNL     1      25.405   4.816  49.736  1.00  0.00     0.086 A 
HETATM   25 CL2  UNL     1      26.620   3.733  49.058  1.00  0.00    -0.080 Cl
ENDBRANCH   5  17
BRANCH   3  26
HETATM   26  C7  UNL     1      26.488   0.580  53.519  1.00  0.00     0.113 C 
HETATM   27  C8  UNL     1      26.810  -0.771  52.923  1.00  0.00     0.057 C 
HETATM   28  C9  UNL     1      28.284  -1.074  53.071  1.00  0.00     0.271 C 
HETATM   29  N2  UNL     1      28.623  -0.879  54.459  1.00  0.00     0.083 N 
HETATM   30  C10 UNL     1      28.671   0.540  54.704  1.00  0.00     0.271 C 
HETATM   31  H11 UNL     1      27.876  -1.297  55.037  1.00  0.00     0.315 HD
HETATM   32  C11 UNL     1      27.743   1.352  53.847  1.00  0.00     0.057 C 
ENDBRANCH   3  26
TORSDOF 5
ENDMDL
MODEL 6
REMARK VINA RESULT:      -8.4      3.241      5.530
REMARK  5 active torsions:
REMARK  status: ('A' for Active; 'I' for Inactive)
REMARK    1  A    between atoms: O1_2  and  C2_3 
REMARK    2  A    between atoms: C4_5  and  C5_6 
REMARK    3  A    between atoms: N1_8  and  C7_9 
REMARK    4  A    between atoms: C12_16  and  C13_17 
REMARK    5  A    between atoms: C20_28  and  N5_29 
ROOT
HETATM    1  C5  UNL     1      23.790   2.615  50.605  1.00  0.00     0.024 A 
HETATM    2  C6  UNL     1      24.014   1.387  51.224  1.00  0.00     0.127 A 
HETATM    3  N1  UNL     1      25.091   1.587  52.029  1.00  0.00    -0.275 N 
HETATM    4  N3  UNL     1      25.478   2.824  51.904  1.00  0.00    -0.171 NA
HETATM    5  C12 UNL     1      24.727   3.527  51.044  1.00  0.00     0.103 A 
ENDROOT
BRANCH   1   6
HETATM    6  C4  UNL     1      22.664   2.681  49.669  1.00  0.00    -0.002 A 
HETATM    7  C3  UNL     1      21.608   1.924  50.144  1.00  0.00     0.054 A 
HETATM    8  C2  UNL     1      20.426   1.843  49.401  1.00  0.00     0.114 A 
HETATM    9  C20 UNL     1      20.358   2.533  48.205  1.00  0.00     0.154 A 
HETATM   10  N4  UNL     1      21.403   3.259  47.773  1.00  0.00    -0.240 NA
HETATM   11  C19 UNL     1      22.545   3.350  48.471  1.00  0.00     0.131 A 
BRANCH   8  12
HETATM   12  O1  UNL     1      19.270   1.151  49.693  1.00  0.00    -0.352 OA
HETATM   13  C1  UNL     1      19.105   0.663  51.014  1.00  0.00     0.210 C 
ENDBRANCH   8  12
BRANCH   9  14
HETATM   14  N5  UNL     1      19.222   2.553  47.330  1.00  0.00    -0.382 N 
HETATM   15  H19 UNL     1      18.233   2.623  47.661  1.00  0.00     0.157 HD
HETATM   16  H20 UNL     1      19.216   2.502  46.271  1.00  0.00     0.157 HD
ENDBRANCH   9  14
ENDBRANCH   1   6
BRANCH   5  17
HETATM   17  C13 UNL     1      24.739   4.902  50.559  1.00  0.00     0.042 A 
HETATM   18  C14 UNL     1      25.755   5.171  49.665  1.00  0.00     0.048 A 
HETATM   19 CL1  UNL     1      26.965   4.021  49.125  1.00  0.00    -0.083 Cl
HETATM   20  C15 UNL     1      25.888   6.446  49.110  1.00  0.00     0.028 A 
HETATM   21  C16 UNL     1      24.963   7.391  49.504  1.00  0.00     0.046 A 
HETATM   22  C17 UNL     1      23.936   7.152  50.396  1.00  0.00     0.139 A 
HETATM   23  F1  UNL     1      23.042   8.085  50.767  1.00  0.00    -0.204 F 
HETATM   24  C18 UNL     1      23.828   5.869  50.932  1.00  0.00     0.086 A 
HETATM   25 CL2  UNL     1      22.568   5.417  52.079  1.00  0.00    -0.080 Cl
ENDBRANCH   5  17
BRANCH   3  26
HETATM   26  C7  UNL     1      25.717   0.607  52.884  1.00  0.00     0.113 C 
HETATM   27  C8  UNL     1      26.740  -0.233  52.154  1.00  0.00     0.057 C 
HETATM   28  C9  UNL     1      27.998  -0.369  52.982  1.00  0.00     0.271 C 
HETATM   29  N2  UNL     1      27.601  -0.822  54.292  1.00  0.00     0.083 N 
HETATM   30  C10 UNL     1      27.010   0.295  54.982  1.00  0.00     0.271 C 
HETATM   31  H11 UNL     1      26.890  -1.563  54.177  1.00  0.00     0.315 HD
HETATM   32  C11 UNL     1      26.321   1.287  54.089  1.00  0.00     0.057 C 
ENDBRANCH   3  26
TORSDOF 5
ENDMDL
MODEL 7
REMARK VINA RESULT:      -8.3      3.130      6.999
REMARK  5 active torsions:
REMARK  status: ('A' for Active; 'I' for Inactive)
REMARK    1  A    between atoms: O1_2  and  C2_3 
REMARK    2  A    between atoms: C4_5  and  C5_6 
REMARK    3  A    between atoms: N1_8  and  C7_9 
REMARK    4  A    between atoms: C12_16  and  C13_17 
REMARK    5  A    between atoms: C20_28  and  N5_29 
ROOT
HETATM    1  C5  UNL     1      22.925   1.692  51.947  1.00  0.00     0.024 A 
HETATM    2  C6  UNL     1      21.941   0.838  52.443  1.00  0.00     0.127 A 
HETATM    3  N1  UNL     1      20.761   1.418  52.097  1.00  0.00    -0.275 N 
HETATM    4  N3  UNL     1      21.014   2.520  51.451  1.00  0.00    -0.171 NA
HETATM    5  C12 UNL     1      22.326   2.762  51.315  1.00  0.00     0.103 A 
ENDROOT
BRANCH   1   6
HETATM    6  C4  UNL     1      24.316   1.297  52.183  1.00  0.00    -0.002 A 
HETATM    7  C3  UNL     1      24.390   0.461  53.283  1.00  0.00     0.054 A 
HETATM    8  C2  UNL     1      25.633  -0.035  53.692  1.00  0.00     0.114 A 
HETATM    9  C20 UNL     1      26.753   0.334  52.971  1.00  0.00     0.154 A 
HETATM   10  N4  UNL     1      26.644   1.148  51.908  1.00  0.00    -0.240 NA
HETATM   11  C19 UNL     1      25.463   1.634  51.499  1.00  0.00     0.131 A 
BRANCH   8  12
HETATM   12  O1  UNL     1      25.921  -0.871  54.749  1.00  0.00    -0.352 OA
HETATM   13  C1  UNL     1      24.875  -1.179  55.656  1.00  0.00     0.210 C 
ENDBRANCH   8  12
BRANCH   9  14
HETATM   14  N5  UNL     1      28.093  -0.087  53.260  1.00  0.00    -0.382 N 
HETATM   15  H19 UNL     1      28.941   0.485  53.046  1.00  0.00     0.157 HD
HETATM   16  H20 UNL     1      28.407  -0.993  53.710  1.00  0.00     0.157 HD
ENDBRANCH   9  14
ENDBRANCH   1   6
BRANCH   5  17
HETATM   17  C13 UNL     1      23.115   3.823  50.700  1.00  0.00     0.042 A 
HETATM   18  C14 UNL     1      23.269   3.685  49.335  1.00  0.00     0.048 A 
HETATM   19 CL1  UNL     1      22.617   2.376  48.365  1.00  0.00    -0.083 Cl
HETATM   20  C15 UNL     1      23.996   4.631  48.608  1.00  0.00     0.028 A 
HETATM   21  C16 UNL     1      24.534   5.681  49.324  1.00  0.00     0.046 A 
HETATM   22  C17 UNL     1      24.397   5.845  50.688  1.00  0.00     0.139 A 
HETATM   23  F1  UNL     1      24.927   6.876  51.369  1.00  0.00    -0.204 F 
HETATM   24  C18 UNL     1      23.664   4.886  51.387  1.00  0.00     0.086 A 
HETATM   25 CL2  UNL     1      23.404   4.966  53.128  1.00  0.00    -0.080 Cl
ENDBRANCH   5  17
BRANCH   3  26
HETATM   26  C7  UNL     1      19.440   0.915  52.389  1.00  0.00     0.113 C 
HETATM   27  C8  UNL     1      18.513   0.993  51.198  1.00  0.00     0.057 C 
HETATM   28  C9  UNL     1      17.738  -0.298  51.048  1.00  0.00     0.271 C 
HETATM   29  N2  UNL     1      17.133  -0.583  52.326  1.00  0.00     0.083 N 
HETATM   30  C10 UNL     1      18.170  -1.057  53.206  1.00  0.00     0.271 C 
HETATM   31  H11 UNL     1      16.743   0.295  52.704  1.00  0.00     0.315 HD
HETATM   32  C11 UNL     1      19.533  -0.493  52.925  1.00  0.00     0.057 C 
ENDBRANCH   3  26
TORSDOF 5
ENDMDL
MODEL 8
REMARK VINA RESULT:      -8.2      3.096      4.979
REMARK  5 active torsions:
REMARK  status: ('A' for Active; 'I' for Inactive)
REMARK    1  A    between atoms: O1_2  and  C2_3 
REMARK    2  A    between atoms: C4_5  and  C5_6 
REMARK    3  A    between atoms: N1_8  and  C7_9 
REMARK    4  A    between atoms: C12_16  and  C13_17 
REMARK    5  A    between atoms: C20_28  and  N5_29 
ROOT
HETATM    1  C5  UNL     1      22.356   2.192  51.464  1.00  0.00     0.024 A 
HETATM    2  C6  UNL     1      22.871   1.254  52.357  1.00  0.00     0.127 A 
HETATM    3  N1  UNL     1      24.201   1.195  52.080  1.00  0.00    -0.275 N 
HETATM    4  N3  UNL     1      24.459   2.023  51.109  1.00  0.00    -0.171 NA
HETATM    5  C12 UNL     1      23.375   2.678  50.671  1.00  0.00     0.103 A 
ENDROOT
BRANCH   1   6
HETATM    6  C4  UNL     1      20.917   2.455  51.549  1.00  0.00    -0.002 A 
HETATM    7  C3  UNL     1      20.206   1.317  51.213  1.00  0.00     0.054 A 
HETATM    8  C2  UNL     1      18.807   1.345  51.225  1.00  0.00     0.114 A 
HETATM    9  C20 UNL     1      18.181   2.527  51.576  1.00  0.00     0.154 A 
HETATM   10  N4  UNL     1      18.903   3.614  51.895  1.00  0.00    -0.240 NA
HETATM   11  C19 UNL     1      20.244   3.608  51.891  1.00  0.00     0.131 A 
BRANCH   8  12
HETATM   12  O1  UNL     1      17.923   0.332  50.927  1.00  0.00    -0.352 OA
HETATM   13  C1  UNL     1      17.746  -0.698  51.885  1.00  0.00     0.210 C 
ENDBRANCH   8  12
BRANCH   9  14
HETATM   14  N5  UNL     1      16.762   2.720  51.635  1.00  0.00    -0.382 N 
HETATM   15  H19 UNL     1      16.219   2.768  52.527  1.00  0.00     0.157 HD
HETATM   16  H20 UNL     1      16.088   2.837  50.827  1.00  0.00     0.157 HD
ENDBRANCH   9  14
ENDBRANCH   1   6
BRANCH   5  17
HETATM   17  C13 UNL     1      23.127   3.677  49.639  1.00  0.00     0.042 A 
HETATM   18  C14 UNL     1      23.365   4.974  50.046  1.00  0.00     0.048 A 
HETATM   19 CL1  UNL     1      23.907   5.454  51.645  1.00  0.00    -0.083 Cl
HETATM   20  C15 UNL     1      23.177   6.038  49.161  1.00  0.00     0.028 A 
HETATM   21  C16 UNL     1      22.748   5.715  47.889  1.00  0.00     0.046 A 
HETATM   22  C17 UNL     1      22.501   4.429  47.453  1.00  0.00     0.139 A 
HETATM   23  F1  UNL     1      22.085   4.134  46.209  1.00  0.00    -0.204 F 
HETATM   24  C18 UNL     1      22.699   3.387  48.359  1.00  0.00     0.086 A 
HETATM   25 CL2  UNL     1      22.426   1.696  47.943  1.00  0.00    -0.080 Cl
ENDBRANCH   5  17
BRANCH   3  26
HETATM   26  C7  UNL     1      25.178   0.360  52.737  1.00  0.00     0.113 C 
HETATM   27  C8  UNL     1      26.444   0.200  51.928  1.00  0.00     0.057 C 
HETATM   28  C9  UNL     1      27.660   0.368  52.813  1.00  0.00     0.271 C 
HETATM   29  N2  UNL     1      27.493  -0.516  53.940  1.00  0.00     0.083 N 
HETATM   30  C10 UNL     1      26.509   0.070  54.815  1.00  0.00     0.271 C 
HETATM   31  H11 UNL     1      27.140  -1.422  53.593  1.00  0.00     0.315 HD
HETATM   32  C11 UNL     1      25.469   0.899  54.117  1.00  0.00     0.057 C 
ENDBRANCH   3  26
TORSDOF 5
ENDMDL
MODEL 9
REMARK VINA RESULT:      -8.1      3.478      5.383
REMARK  5 active torsions:
REMARK  status: ('A' for Active; 'I' for Inactive)
REMARK    1  A    between atoms: O1_2  and  C2_3 
REMARK    2  A    between atoms: C4_5  and  C5_6 
REMARK    3  A    between atoms: N1_8  and  C7_9 
REMARK    4  A    between atoms: C12_16  and  C13_17 
REMARK    5  A    between atoms: C20_28  and  N5_29 
ROOT
HETATM    1  C5  UNL     1      23.170   1.990  50.840  1.00  0.00     0.024 A 
HETATM    2  C6  UNL     1      23.036   0.759  51.481  1.00  0.00     0.127 A 
HETATM    3  N1  UNL     1      23.971   0.770  52.468  1.00  0.00    -0.275 N 
HETATM    4  N3  UNL     1      24.608   1.905  52.422  1.00  0.00    -0.171 NA
HETATM    5  C12 UNL     1      24.174   2.715  51.446  1.00  0.00     0.103 A 
ENDROOT
BRANCH   1   6
HETATM    6  C4  UNL     1      22.263   2.246  49.717  1.00  0.00    -0.002 A 
HETATM    7  C3  UNL     1      20.949   2.186  50.146  1.00  0.00     0.054 A 
HETATM    8  C2  UNL     1      19.912   2.398  49.231  1.00  0.00     0.114 A 
HETATM    9  C20 UNL     1      20.246   2.662  47.916  1.00  0.00     0.154 A 
HETATM   10  N4  UNL     1      21.533   2.712  47.534  1.00  0.00    -0.240 NA
HETATM   11  C19 UNL     1      22.542   2.512  48.395  1.00  0.00     0.131 A 
BRANCH   8  12
HETATM   12  O1  UNL     1      18.552   2.382  49.452  1.00  0.00    -0.352 OA
HETATM   13  C1  UNL     1      18.019   3.313  50.379  1.00  0.00     0.210 C 
ENDBRANCH   8  12
BRANCH   9  14
HETATM   14  N5  UNL     1      19.305   2.900  46.860  1.00  0.00    -0.382 N 
HETATM   15  H19 UNL     1      19.129   3.841  46.440  1.00  0.00     0.157 HD
HETATM   16  H20 UNL     1      18.682   2.195  46.374  1.00  0.00     0.157 HD
ENDBRANCH   9  14
ENDBRANCH   1   6
BRANCH   5  17
HETATM   17  C13 UNL     1      24.540   4.047  50.980  1.00  0.00     0.042 A 
HETATM   18  C14 UNL     1      23.761   5.057  51.509  1.00  0.00     0.048 A 
HETATM   19 CL1  UNL     1      22.431   4.834  52.632  1.00  0.00    -0.083 Cl
HETATM   20  C15 UNL     1      23.999   6.388  51.159  1.00  0.00     0.028 A 
HETATM   21  C16 UNL     1      25.033   6.620  50.275  1.00  0.00     0.046 A 
HETATM   22  C17 UNL     1      25.828   5.632  49.730  1.00  0.00     0.139 A 
HETATM   23  F1  UNL     1      26.833   5.876  48.871  1.00  0.00    -0.204 F 
HETATM   24  C18 UNL     1      25.568   4.312  50.099  1.00  0.00     0.086 A 
HETATM   25 CL2  UNL     1      26.501   2.948  49.486  1.00  0.00    -0.080 Cl
ENDBRANCH   5  17
BRANCH   3  26
HETATM   26  C7  UNL     1      24.232  -0.287  53.414  1.00  0.00     0.113 C 
HETATM   27  C8  UNL     1      25.587  -0.159  54.071  1.00  0.00     0.057 C 
HETATM   28  C9  UNL     1      25.476  -0.393  55.561  1.00  0.00     0.271 C 
HETATM   29  N2  UNL     1      24.780  -1.642  55.746  1.00  0.00     0.083 N 
HETATM   30  C10 UNL     1      23.386  -1.414  55.460  1.00  0.00     0.271 C 
HETATM   31  H11 UNL     1      25.156  -2.327  55.071  1.00  0.00     0.315 HD
HETATM   32  C11 UNL     1      23.126  -0.344  54.440  1.00  0.00     0.057 C 
ENDBRANCH   3  26
TORSDOF 5
ENDMDL
