MODEL 1
REMARK VINA RESULT:      -8.7      0.000      0.000
REMARK  6 active torsions:
REMARK  status: ('A' for Active; 'I' for Inactive)
REMARK    1  A    between atoms: N2_5  and  C4_6 
REMARK    2  A    between atoms: C7_9  and  N3_10 
REMARK    3  A    between atoms: N3_10  and  O1_11 
REMARK    4  A    between atoms: O1_11  and  C8_12 
REMARK    5  A    between atoms: C9_13  and  C10_14 
REMARK    6  A    between atoms: C18_24  and  O2_25 
ROOT
HETATM    1  N3  UNL     1      25.719   2.810  53.320  1.00  0.00    -0.258 N 
HETATM    2  H10 UNL     1      25.795   3.518  54.111  1.00  0.00     0.195 HD
ENDROOT
BRANCH   1   3
HETATM    3  C7  UNL     1      25.015   3.029  52.107  1.00  0.00     0.088 A 
HETATM    4  C6  UNL     1      23.640   2.991  52.203  1.00  0.00     0.036 A 
HETATM    5  C5  UNL     1      22.961   3.211  51.007  1.00  0.00     0.032 A 
HETATM    6  C4  UNL     1      23.679   3.444  49.846  1.00  0.00     0.033 A 
HETATM    7  C19 UNL     1      25.056   3.464  49.851  1.00  0.00     0.068 A 
HETATM    8  C18 UNL     1      25.795   3.253  50.997  1.00  0.00     0.096 A 
BRANCH   6   9
HETATM    9  N2  UNL     1      22.934   3.665  48.647  1.00  0.00    -0.377 N 
HETATM   10  C3  UNL     1      22.996   5.024  48.087  1.00  0.00     0.153 C 
HETATM   11  C2  UNL     1      22.199   5.117  46.811  1.00  0.00     0.291 C 
HETATM   12  N1  UNL     1      20.885   4.568  47.057  1.00  0.00     0.087 N 
HETATM   13  C1  UNL     1      20.137   5.228  48.078  1.00  0.00     0.310 C 
HETATM   14  C21 UNL     1      21.005   3.155  47.179  1.00  0.00     0.291 C 
HETATM   15  C20 UNL     1      22.149   2.648  47.981  1.00  0.00     0.153 C 
ENDBRANCH   6   9
BRANCH   8  16
HETATM   16  O2  UNL     1      27.168   3.264  51.045  1.00  0.00    -0.358 OA
HETATM   17  H20 UNL     1      27.661   4.129  50.921  1.00  0.00     0.217 HD
ENDBRANCH   8  16
ENDBRANCH   1   3
BRANCH   1  18
HETATM   18  O1  UNL     1      26.466   2.125  54.193  1.00  0.00    -0.239 OA
BRANCH  18  19
HETATM   19  C8  UNL     1      27.555   1.323  53.963  1.00  0.00     0.106 A 
HETATM   20  C9  UNL     1      27.251   0.035  53.956  1.00  0.00     0.027 A 
HETATM   21  C15 UNL     1      28.325  -0.950  53.712  1.00  0.00     0.033 A 
HETATM   22  C16 UNL     1      29.585  -0.607  53.499  1.00  0.00     0.084 A 
HETATM   23  N5  UNL     1      29.855   0.789  53.517  1.00  0.00    -0.393 N 
HETATM   24  C17 UNL     1      28.926   1.856  53.746  1.00  0.00     0.187 A 
HETATM   25  H17 UNL     1      30.827   1.156  53.351  1.00  0.00     0.159 HD
BRANCH  20  26
HETATM   26  C10 UNL     1      25.868  -0.378  54.181  1.00  0.00     0.069 A 
HETATM   27  C11 UNL     1      24.898  -0.366  53.195  1.00  0.00     0.032 A 
HETATM   28  C12 UNL     1      23.594  -0.746  53.382  1.00  0.00     0.004 A 
HETATM   29  C13 UNL     1      23.236  -1.168  54.639  1.00  0.00     0.019 A 
HETATM   30  C14 UNL     1      24.188  -1.189  55.637  1.00  0.00     0.117 A 
HETATM   31  N4  UNL     1      25.459  -0.799  55.384  1.00  0.00    -0.260 NA
ENDBRANCH  20  26
ENDBRANCH  18  19
ENDBRANCH   1  18
TORSDOF 6
ENDMDL
MODEL 2
REMARK VINA RESULT:      -8.4      3.400      5.196
REMARK  6 active torsions:
REMARK  status: ('A' for Active; 'I' for Inactive)
REMARK    1  A    between atoms: N2_5  and  C4_6 
REMARK    2  A    between atoms: C7_9  and  N3_10 
REMARK    3  A    between atoms: N3_10  and  O1_11 
REMARK    4  A    between atoms: O1_11  and  C8_12 
REMARK    5  A    between atoms: C9_13  and  C10_14 
REMARK    6  A    between atoms: C18_24  and  O2_25 
ROOT
HETATM    1  N3  UNL     1      24.882   2.343  51.203  1.00  0.00    -0.258 N 
HETATM    2  H10 UNL     1      23.847   2.181  51.394  1.00  0.00     0.195 HD
ENDROOT
BRANCH   1   3
HETATM    3  C7  UNL     1      25.402   3.439  50.467  1.00  0.00     0.088 A 
HETATM    4  C6  UNL     1      26.548   3.178  49.745  1.00  0.00     0.036 A 
HETATM    5  C5  UNL     1      27.047   4.262  49.024  1.00  0.00     0.032 A 
HETATM    6  C4  UNL     1      26.390   5.479  49.077  1.00  0.00     0.033 A 
HETATM    7  C19 UNL     1      25.249   5.642  49.830  1.00  0.00     0.068 A 
HETATM    8  C18 UNL     1      24.698   4.615  50.569  1.00  0.00     0.096 A 
BRANCH   6   9
HETATM    9  N2  UNL     1      26.943   6.556  48.319  1.00  0.00    -0.377 N 
HETATM   10  C3  UNL     1      28.394   6.505  48.081  1.00  0.00     0.153 C 
HETATM   11  C2  UNL     1      28.844   7.675  47.245  1.00  0.00     0.291 C 
HETATM   12  N1  UNL     1      28.319   8.884  47.839  1.00  0.00     0.087 N 
HETATM   13  C1  UNL     1      28.741   9.129  49.181  1.00  0.00     0.310 C 
HETATM   14  C21 UNL     1      26.916   8.927  47.603  1.00  0.00     0.291 C 
HETATM   15  C20 UNL     1      26.167   7.658  47.793  1.00  0.00     0.153 C 
ENDBRANCH   6   9
BRANCH   8  16
HETATM   16  O2  UNL     1      23.562   4.734  51.333  1.00  0.00    -0.358 OA
HETATM   17  H20 UNL     1      22.740   4.216  51.083  1.00  0.00     0.217 HD
ENDBRANCH   8  16
ENDBRANCH   1   3
BRANCH   1  18
HETATM   18  O1  UNL     1      24.936   1.211  51.915  1.00  0.00    -0.239 OA
BRANCH  18  19
HETATM   19  C8  UNL     1      23.973   0.636  52.704  1.00  0.00     0.106 A 
HETATM   20  C9  UNL     1      24.479  -0.176  53.620  1.00  0.00     0.027 A 
HETATM   21  C15 UNL     1      23.559  -0.864  54.549  1.00  0.00     0.033 A 
HETATM   22  C16 UNL     1      22.245  -0.709  54.512  1.00  0.00     0.084 A 
HETATM   23  N5  UNL     1      21.757   0.174  53.510  1.00  0.00    -0.393 N 
HETATM   24  C17 UNL     1      22.520   0.902  52.539  1.00  0.00     0.187 A 
HETATM   25  H17 UNL     1      20.727   0.364  53.410  1.00  0.00     0.159 HD
BRANCH  20  26
HETATM   26  C10 UNL     1      25.925  -0.365  53.693  1.00  0.00     0.069 A 
HETATM   27  C11 UNL     1      26.615  -1.275  52.912  1.00  0.00     0.032 A 
HETATM   28  C12 UNL     1      27.971  -1.473  52.964  1.00  0.00     0.004 A 
HETATM   29  C13 UNL     1      28.685  -0.710  53.856  1.00  0.00     0.019 A 
HETATM   30  C14 UNL     1      28.016   0.204  54.644  1.00  0.00     0.117 A 
HETATM   31  N4  UNL     1      26.675   0.349  54.542  1.00  0.00    -0.260 NA
ENDBRANCH  20  26
ENDBRANCH  18  19
ENDBRANCH   1  18
TORSDOF 6
ENDMDL
MODEL 3
REMARK VINA RESULT:      -8.3      2.801      4.544
REMARK  6 active torsions:
REMARK  status: ('A' for Active; 'I' for Inactive)
REMARK    1  A    between atoms: N2_5  and  C4_6 
REMARK    2  A    between atoms: C7_9  and  N3_10 
REMARK    3  A    between atoms: N3_10  and  O1_11 
REMARK    4  A    between atoms: O1_11  and  C8_12 
REMARK    5  A    between atoms: C9_13  and  C10_14 
REMARK    6  A    between atoms: C18_24  and  O2_25 
ROOT
HETATM    1  N3  UNL     1      24.501   2.097  51.186  1.00  0.00    -0.258 N 
HETATM    2  H10 UNL     1      23.616   1.511  51.109  1.00  0.00     0.195 HD
ENDROOT
BRANCH   1   3
HETATM    3  C7  UNL     1      24.769   3.256  50.412  1.00  0.00     0.088 A 
HETATM    4  C6  UNL     1      23.692   3.774  49.725  1.00  0.00     0.036 A 
HETATM    5  C5  UNL     1      23.967   4.914  48.972  1.00  0.00     0.032 A 
HETATM    6  C4  UNL     1      25.250   5.432  48.962  1.00  0.00     0.033 A 
HETATM    7  C19 UNL     1      26.265   4.843  49.684  1.00  0.00     0.068 A 
HETATM    8  C18 UNL     1      26.066   3.713  50.451  1.00  0.00     0.096 A 
BRANCH   6   9
HETATM    9  N2  UNL     1      25.479   6.603  48.176  1.00  0.00    -0.377 N 
HETATM   10  C3  UNL     1      26.873   7.065  48.090  1.00  0.00     0.153 C 
HETATM   11  C2  UNL     1      26.984   8.282  47.209  1.00  0.00     0.291 C 
HETATM   12  N1  UNL     1      25.999   9.246  47.643  1.00  0.00     0.087 N 
HETATM   13  C1  UNL     1      26.137   9.683  48.995  1.00  0.00     0.310 C 
HETATM   14  C21 UNL     1      24.710   8.774  47.263  1.00  0.00     0.291 C 
HETATM   15  C20 UNL     1      24.437   7.330  47.483  1.00  0.00     0.153 C 
ENDBRANCH   6   9
BRANCH   8  16
HETATM   16  O2  UNL     1      27.048   3.093  51.185  1.00  0.00    -0.358 OA
HETATM   17  H20 UNL     1      27.798   3.638  51.568  1.00  0.00     0.217 HD
ENDBRANCH   8  16
ENDBRANCH   1   3
BRANCH   1  18
HETATM   18  O1  UNL     1      24.748   1.156  52.105  1.00  0.00    -0.239 OA
BRANCH  18  19
HETATM   19  C8  UNL     1      23.870   0.498  52.929  1.00  0.00     0.106 A 
HETATM   20  C9  UNL     1      24.479  -0.286  53.805  1.00  0.00     0.027 A 
HETATM   21  C15 UNL     1      23.660  -1.054  54.764  1.00  0.00     0.033 A 
HETATM   22  C16 UNL     1      22.338  -0.998  54.793  1.00  0.00     0.084 A 
HETATM   23  N5  UNL     1      21.737  -0.141  53.832  1.00  0.00    -0.393 N 
HETATM   24  C17 UNL     1      22.394   0.656  52.838  1.00  0.00     0.187 A 
HETATM   25  H17 UNL     1      20.692  -0.028  53.784  1.00  0.00     0.159 HD
BRANCH  20  26
HETATM   26  C10 UNL     1      25.938  -0.366  53.805  1.00  0.00     0.069 A 
HETATM   27  C11 UNL     1      26.655  -1.207  52.973  1.00  0.00     0.032 A 
HETATM   28  C12 UNL     1      28.022  -1.303  52.956  1.00  0.00     0.004 A 
HETATM   29  C13 UNL     1      28.720  -0.504  53.829  1.00  0.00     0.019 A 
HETATM   30  C14 UNL     1      28.025   0.343  54.667  1.00  0.00     0.117 A 
HETATM   31  N4  UNL     1      26.672   0.387  54.633  1.00  0.00    -0.260 NA
ENDBRANCH  20  26
ENDBRANCH  18  19
ENDBRANCH   1  18
TORSDOF 6
ENDMDL
MODEL 4
REMARK VINA RESULT:      -7.9      2.235      4.034
REMARK  6 active torsions:
REMARK  status: ('A' for Active; 'I' for Inactive)
REMARK    1  A    between atoms: N2_5  and  C4_6 
REMARK    2  A    between atoms: C7_9  and  N3_10 
REMARK    3  A    between atoms: N3_10  and  O1_11 
REMARK    4  A    between atoms: O1_11  and  C8_12 
REMARK    5  A    between atoms: C9_13  and  C10_14 
REMARK    6  A    between atoms: C18_24  and  O2_25 
ROOT
HETATM    1  N3  UNL     1      24.587   1.757  51.475  1.00  0.00    -0.258 N 
HETATM    2  H10 UNL     1      24.810   0.881  50.914  1.00  0.00     0.195 HD
ENDROOT
BRANCH   1   3
HETATM    3  C7  UNL     1      24.132   2.978  50.913  1.00  0.00     0.088 A 
HETATM    4  C6  UNL     1      23.897   2.957  49.555  1.00  0.00     0.036 A 
HETATM    5  C5  UNL     1      23.448   4.161  49.016  1.00  0.00     0.032 A 
HETATM    6  C4  UNL     1      23.275   5.257  49.844  1.00  0.00     0.033 A 
HETATM    7  C19 UNL     1      23.537   5.181  51.194  1.00  0.00     0.068 A 
HETATM    8  C18 UNL     1      23.984   4.022  51.796  1.00  0.00     0.096 A 
BRANCH   6   9
HETATM    9  N2  UNL     1      22.811   6.467  49.242  1.00  0.00    -0.377 N 
HETATM   10  C3  UNL     1      22.991   7.695  50.032  1.00  0.00     0.153 C 
HETATM   11  C2  UNL     1      22.494   8.900  49.275  1.00  0.00     0.291 C 
HETATM   12  N1  UNL     1      21.159   8.615  48.799  1.00  0.00     0.087 N 
HETATM   13  C1  UNL     1      20.203   8.327  49.819  1.00  0.00     0.310 C 
HETATM   14  C21 UNL     1      21.253   7.670  47.738  1.00  0.00     0.291 C 
HETATM   15  C20 UNL     1      22.194   6.537  47.935  1.00  0.00     0.153 C 
ENDBRANCH   6   9
BRANCH   8  16
HETATM   16  O2  UNL     1      24.257   3.904  53.137  1.00  0.00    -0.358 OA
HETATM   17  H20 UNL     1      25.102   3.452  53.432  1.00  0.00     0.217 HD
ENDBRANCH   8  16
ENDBRANCH   1   3
BRANCH   1  18
HETATM   18  O1  UNL     1      24.957   0.925  52.455  1.00  0.00    -0.239 OA
BRANCH  18  19
HETATM   19  C8  UNL     1      24.178   0.235  53.348  1.00  0.00     0.106 A 
HETATM   20  C9  UNL     1      24.889  -0.500  54.188  1.00  0.00     0.027 A 
HETATM   21  C15 UNL     1      24.183  -1.295  55.214  1.00  0.00     0.033 A 
HETATM   22  C16 UNL     1      22.866  -1.310  55.336  1.00  0.00     0.084 A 
HETATM   23  N5  UNL     1      22.152  -0.503  54.409  1.00  0.00    -0.393 N 
HETATM   24  C17 UNL     1      22.693   0.311  53.361  1.00  0.00     0.187 A 
HETATM   25  H17 UNL     1      21.102  -0.447  54.434  1.00  0.00     0.159 HD
BRANCH  20  26
HETATM   26  C10 UNL     1      26.346  -0.502  54.086  1.00  0.00     0.069 A 
HETATM   27  C11 UNL     1      27.163   0.345  54.814  1.00  0.00     0.032 A 
HETATM   28  C12 UNL     1      28.532   0.365  54.733  1.00  0.00     0.004 A 
HETATM   29  C13 UNL     1      29.124  -0.523  53.867  1.00  0.00     0.019 A 
HETATM   30  C14 UNL     1      28.328  -1.377  53.132  1.00  0.00     0.117 A 
HETATM   31  N4  UNL     1      26.981  -1.343  53.260  1.00  0.00    -0.260 NA
ENDBRANCH  20  26
ENDBRANCH  18  19
ENDBRANCH   1  18
TORSDOF 6
ENDMDL
MODEL 5
REMARK VINA RESULT:      -7.9      2.163      4.048
REMARK  6 active torsions:
REMARK  status: ('A' for Active; 'I' for Inactive)
REMARK    1  A    between atoms: N2_5  and  C4_6 
REMARK    2  A    between atoms: C7_9  and  N3_10 
REMARK    3  A    between atoms: N3_10  and  O1_11 
REMARK    4  A    between atoms: O1_11  and  C8_12 
REMARK    5  A    between atoms: C9_13  and  C10_14 
REMARK    6  A    between atoms: C18_24  and  O2_25 
ROOT
HETATM    1  N3  UNL     1      25.066   1.873  51.083  1.00  0.00    -0.258 N 
HETATM    2  H10 UNL     1      25.084   0.902  50.647  1.00  0.00     0.195 HD
ENDROOT
BRANCH   1   3
HETATM    3  C7  UNL     1      24.870   3.077  50.358  1.00  0.00     0.088 A 
HETATM    4  C6  UNL     1      23.594   3.278  49.874  1.00  0.00     0.036 A 
HETATM    5  C5  UNL     1      23.413   4.465  49.167  1.00  0.00     0.032 A 
HETATM    6  C4  UNL     1      24.480   5.331  49.001  1.00  0.00     0.033 A 
HETATM    7  C19 UNL     1      25.722   5.042  49.524  1.00  0.00     0.068 A 
HETATM    8  C18 UNL     1      25.975   3.886  50.234  1.00  0.00     0.096 A 
BRANCH   6   9
HETATM    9  N2  UNL     1      24.241   6.535  48.270  1.00  0.00    -0.377 N 
HETATM   10  C3  UNL     1      22.836   6.954  48.151  1.00  0.00     0.153 C 
HETATM   11  C2  UNL     1      22.723   8.249  47.390  1.00  0.00     0.291 C 
HETATM   12  N1  UNL     1      23.474   8.119  46.162  1.00  0.00     0.087 N 
HETATM   13  C1  UNL     1      23.037   7.073  45.294  1.00  0.00     0.310 C 
HETATM   14  C21 UNL     1      24.862   8.133  46.482  1.00  0.00     0.291 C 
HETATM   15  C20 UNL     1      25.283   7.334  47.662  1.00  0.00     0.153 C 
ENDBRANCH   6   9
BRANCH   8  16
HETATM   16  O2  UNL     1      27.196   3.560  50.771  1.00  0.00    -0.358 OA
HETATM   17  H20 UNL     1      27.306   2.692  51.262  1.00  0.00     0.217 HD
ENDBRANCH   8  16
ENDBRANCH   1   3
BRANCH   1  18
HETATM   18  O1  UNL     1      25.275   1.120  52.168  1.00  0.00    -0.239 OA
BRANCH  18  19
HETATM   19  C8  UNL     1      24.362   0.478  52.967  1.00  0.00     0.106 A 
HETATM   20  C9  UNL     1      24.933  -0.307  53.868  1.00  0.00     0.027 A 
HETATM   21  C15 UNL     1      24.072  -1.058  54.805  1.00  0.00     0.033 A 
HETATM   22  C16 UNL     1      22.751  -0.987  54.789  1.00  0.00     0.084 A 
HETATM   23  N5  UNL     1      22.192  -0.128  53.802  1.00  0.00    -0.393 N 
HETATM   24  C17 UNL     1      22.892   0.653  52.826  1.00  0.00     0.187 A 
HETATM   25  H17 UNL     1      21.152  -0.003  53.719  1.00  0.00     0.159 HD
BRANCH  20  26
HETATM   26  C10 UNL     1      26.389  -0.405  53.917  1.00  0.00     0.069 A 
HETATM   27  C11 UNL     1      27.179   0.387  54.731  1.00  0.00     0.032 A 
HETATM   28  C12 UNL     1      28.547   0.316  54.794  1.00  0.00     0.004 A 
HETATM   29  C13 UNL     1      29.167  -0.609  53.989  1.00  0.00     0.019 A 
HETATM   30  C14 UNL     1      28.397  -1.410  53.170  1.00  0.00     0.117 A 
HETATM   31  N4  UNL     1      27.049  -1.287  53.157  1.00  0.00    -0.260 NA
ENDBRANCH  20  26
ENDBRANCH  18  19
ENDBRANCH   1  18
TORSDOF 6
ENDMDL
MODEL 6
REMARK VINA RESULT:      -7.8      4.959      6.454
REMARK  6 active torsions:
REMARK  status: ('A' for Active; 'I' for Inactive)
REMARK    1  A    between atoms: N2_5  and  C4_6 
REMARK    2  A    between atoms: C7_9  and  N3_10 
REMARK    3  A    between atoms: N3_10  and  O1_11 
REMARK    4  A    between atoms: O1_11  and  C8_12 
REMARK    5  A    between atoms: C9_13  and  C10_14 
REMARK    6  A    between atoms: C18_24  and  O2_25 
ROOT
HETATM    1  N3  UNL     1      22.214  -0.094  53.125  1.00  0.00    -0.258 N 
HETATM    2  H10 UNL     1      22.973  -0.745  52.762  1.00  0.00     0.195 HD
ENDROOT
BRANCH   1   3
HETATM    3  C7  UNL     1      20.834  -0.215  52.817  1.00  0.00     0.088 A 
HETATM    4  C6  UNL     1      20.417   0.448  51.682  1.00  0.00     0.036 A 
HETATM    5  C5  UNL     1      19.061   0.318  51.389  1.00  0.00     0.032 A 
HETATM    6  C4  UNL     1      18.252  -0.437  52.221  1.00  0.00     0.033 A 
HETATM    7  C19 UNL     1      18.762  -1.065  53.335  1.00  0.00     0.068 A 
HETATM    8  C18 UNL     1      20.094  -0.980  53.687  1.00  0.00     0.096 A 
BRANCH   6   9
HETATM    9  N2  UNL     1      16.870  -0.540  51.874  1.00  0.00    -0.377 N 
HETATM   10  C3  UNL     1      16.306   0.586  51.113  1.00  0.00     0.153 C 
HETATM   11  C2  UNL     1      14.856   0.340  50.784  1.00  0.00     0.291 C 
HETATM   12  N1  UNL     1      14.173  -0.036  52.000  1.00  0.00     0.087 N 
HETATM   13  C1  UNL     1      14.216   0.938  53.043  1.00  0.00     0.310 C 
HETATM   14  C21 UNL     1      14.580  -1.354  52.354  1.00  0.00     0.291 C 
HETATM   15  C20 UNL     1      16.027  -1.663  52.226  1.00  0.00     0.153 C 
ENDBRANCH   6   9
BRANCH   8  16
HETATM   16  O2  UNL     1      20.643  -1.590  54.789  1.00  0.00    -0.358 OA
HETATM   17  H20 UNL     1      21.616  -1.834  54.787  1.00  0.00     0.217 HD
ENDBRANCH   8  16
ENDBRANCH   1   3
BRANCH   1  18
HETATM   18  O1  UNL     1      23.296   0.446  53.697  1.00  0.00    -0.239 OA
BRANCH  18  19
HETATM   19  C8  UNL     1      24.622   0.202  53.447  1.00  0.00     0.106 A 
HETATM   20  C9  UNL     1      25.151   1.066  52.595  1.00  0.00     0.027 A 
HETATM   21  C15 UNL     1      26.578   0.931  52.235  1.00  0.00     0.033 A 
HETATM   22  C16 UNL     1      27.359  -0.018  52.725  1.00  0.00     0.084 A 
HETATM   23  N5  UNL     1      26.740  -0.918  53.635  1.00  0.00    -0.393 N 
HETATM   24  C17 UNL     1      25.375  -0.918  54.072  1.00  0.00     0.187 A 
HETATM   25  H17 UNL     1      27.285  -1.699  54.081  1.00  0.00     0.159 HD
BRANCH  20  26
HETATM   26  C10 UNL     1      24.318   2.129  52.040  1.00  0.00     0.069 A 
HETATM   27  C11 UNL     1      24.152   3.362  52.645  1.00  0.00     0.032 A 
HETATM   28  C12 UNL     1      23.374   4.375  52.145  1.00  0.00     0.004 A 
HETATM   29  C13 UNL     1      22.718   4.139  50.961  1.00  0.00     0.019 A 
HETATM   30  C14 UNL     1      22.870   2.917  50.341  1.00  0.00     0.117 A 
HETATM   31  N4  UNL     1      23.654   1.959  50.889  1.00  0.00    -0.260 NA
ENDBRANCH  20  26
ENDBRANCH  18  19
ENDBRANCH   1  18
TORSDOF 6
ENDMDL
MODEL 7
REMARK VINA RESULT:      -7.8      4.124      5.847
REMARK  6 active torsions:
REMARK  status: ('A' for Active; 'I' for Inactive)
REMARK    1  A    between atoms: N2_5  and  C4_6 
REMARK    2  A    between atoms: C7_9  and  N3_10 
REMARK    3  A    between atoms: N3_10  and  O1_11 
REMARK    4  A    between atoms: O1_11  and  C8_12 
REMARK    5  A    between atoms: C9_13  and  C10_14 
REMARK    6  A    between atoms: C18_24  and  O2_25 
ROOT
HETATM    1  N3  UNL     1      23.307   1.225  53.109  1.00  0.00    -0.258 N 
HETATM    2  H10 UNL     1      23.898   0.833  53.903  1.00  0.00     0.195 HD
ENDROOT
BRANCH   1   3
HETATM    3  C7  UNL     1      21.991   0.796  52.798  1.00  0.00     0.088 A 
HETATM    4  C6  UNL     1      21.518   1.179  51.561  1.00  0.00     0.036 A 
HETATM    5  C5  UNL     1      20.225   0.749  51.267  1.00  0.00     0.032 A 
HETATM    6  C4  UNL     1      19.526  -0.002  52.197  1.00  0.00     0.033 A 
HETATM    7  C19 UNL     1      20.086  -0.335  53.411  1.00  0.00     0.068 A 
HETATM    8  C18 UNL     1      21.360   0.055  53.770  1.00  0.00     0.096 A 
BRANCH   6   9
HETATM    9  N2  UNL     1      18.206  -0.418  51.845  1.00  0.00    -0.377 N 
HETATM   10  C3  UNL     1      17.722   0.005  50.522  1.00  0.00     0.153 C 
HETATM   11  C2  UNL     1      16.336  -0.524  50.260  1.00  0.00     0.291 C 
HETATM   12  N1  UNL     1      15.506  -0.197  51.397  1.00  0.00     0.087 N 
HETATM   13  C1  UNL     1      15.385   1.198  51.675  1.00  0.00     0.310 C 
HETATM   14  C21 UNL     1      15.892  -1.026  52.488  1.00  0.00     0.291 C 
HETATM   15  C20 UNL     1      17.351  -1.210  52.703  1.00  0.00     0.153 C 
ENDBRANCH   6   9
BRANCH   8  16
HETATM   16  O2  UNL     1      21.955  -0.255  54.968  1.00  0.00    -0.358 OA
HETATM   17  H20 UNL     1      21.959   0.421  55.709  1.00  0.00     0.217 HD
ENDBRANCH   8  16
ENDBRANCH   1   3
BRANCH   1  18
HETATM   18  O1  UNL     1      24.422   1.950  52.967  1.00  0.00    -0.239 OA
BRANCH  18  19
HETATM   19  C8  UNL     1      24.832   2.713  51.903  1.00  0.00     0.106 A 
HETATM   20  C9  UNL     1      26.047   2.397  51.483  1.00  0.00     0.027 A 
HETATM   21  C15 UNL     1      26.618   3.133  50.336  1.00  0.00     0.033 A 
HETATM   22  C16 UNL     1      25.972   4.100  49.704  1.00  0.00     0.084 A 
HETATM   23  N5  UNL     1      24.672   4.397  50.196  1.00  0.00    -0.393 N 
HETATM   24  C17 UNL     1      23.991   3.779  51.296  1.00  0.00     0.187 A 
HETATM   25  H17 UNL     1      24.082   5.145  49.751  1.00  0.00     0.159 HD
BRANCH  20  26
HETATM   26  C10 UNL     1      26.785   1.332  52.155  1.00  0.00     0.069 A 
HETATM   27  C11 UNL     1      26.526  -0.014  51.962  1.00  0.00     0.032 A 
HETATM   28  C12 UNL     1      27.203  -1.032  52.583  1.00  0.00     0.004 A 
HETATM   29  C13 UNL     1      28.206  -0.682  53.454  1.00  0.00     0.019 A 
HETATM   30  C14 UNL     1      28.481   0.654  53.660  1.00  0.00     0.117 A 
HETATM   31  N4  UNL     1      27.773   1.610  53.014  1.00  0.00    -0.260 NA
ENDBRANCH  20  26
ENDBRANCH  18  19
ENDBRANCH   1  18
TORSDOF 6
ENDMDL
MODEL 8
REMARK VINA RESULT:      -7.4      3.292      4.934
REMARK  6 active torsions:
REMARK  status: ('A' for Active; 'I' for Inactive)
REMARK    1  A    between atoms: N2_5  and  C4_6 
REMARK    2  A    between atoms: C7_9  and  N3_10 
REMARK    3  A    between atoms: N3_10  and  O1_11 
REMARK    4  A    between atoms: O1_11  and  C8_12 
REMARK    5  A    between atoms: C9_13  and  C10_14 
REMARK    6  A    between atoms: C18_24  and  O2_25 
ROOT
HETATM    1  N3  UNL     1      25.266   3.611  51.516  1.00  0.00    -0.258 N 
HETATM    2  H10 UNL     1      26.153   3.023  51.487  1.00  0.00     0.195 HD
ENDROOT
BRANCH   1   3
HETATM    3  C7  UNL     1      25.021   4.737  50.688  1.00  0.00     0.088 A 
HETATM    4  C6  UNL     1      25.555   4.670  49.419  1.00  0.00     0.036 A 
HETATM    5  C5  UNL     1      25.305   5.780  48.615  1.00  0.00     0.032 A 
HETATM    6  C4  UNL     1      24.567   6.837  49.120  1.00  0.00     0.033 A 
HETATM    7  C19 UNL     1      24.073   6.812  50.406  1.00  0.00     0.068 A 
HETATM    8  C18 UNL     1      24.282   5.747  51.258  1.00  0.00     0.096 A 
BRANCH   6   9
HETATM    9  N2  UNL     1      24.337   7.950  48.255  1.00  0.00    -0.377 N 
HETATM   10  C3  UNL     1      25.373   8.209  47.243  1.00  0.00     0.153 C 
HETATM   11  C2  UNL     1      24.997   9.384  46.376  1.00  0.00     0.291 C 
HETATM   12  N1  UNL     1      24.634  10.484  47.240  1.00  0.00     0.087 N 
HETATM   13  C1  UNL     1      25.663  10.920  48.128  1.00  0.00     0.310 C 
HETATM   14  C21 UNL     1      23.373  10.192  47.833  1.00  0.00     0.291 C 
HETATM   15  C20 UNL     1      23.172   8.805  48.326  1.00  0.00     0.153 C 
ENDBRANCH   6   9
BRANCH   8  16
HETATM   16  O2  UNL     1      23.808   5.682  52.546  1.00  0.00    -0.358 OA
HETATM   17  H20 UNL     1      24.204   6.276  53.250  1.00  0.00     0.217 HD
ENDBRANCH   8  16
ENDBRANCH   1   3
BRANCH   1  18
HETATM   18  O1  UNL     1      24.992   2.707  52.463  1.00  0.00    -0.239 OA
BRANCH  18  19
HETATM   19  C8  UNL     1      23.866   1.941  52.632  1.00  0.00     0.106 A 
HETATM   20  C9  UNL     1      24.135   0.728  53.088  1.00  0.00     0.027 A 
HETATM   21  C15 UNL     1      23.017  -0.208  53.326  1.00  0.00     0.033 A 
HETATM   22  C16 UNL     1      21.751   0.107  53.103  1.00  0.00     0.084 A 
HETATM   23  N5  UNL     1      21.520   1.422  52.614  1.00  0.00    -0.393 N 
HETATM   24  C17 UNL     1      22.496   2.433  52.330  1.00  0.00     0.187 A 
HETATM   25  H17 UNL     1      20.545   1.763  52.415  1.00  0.00     0.159 HD
BRANCH  20  26
HETATM   26  C10 UNL     1      25.521   0.349  53.350  1.00  0.00     0.069 A 
HETATM   27  C11 UNL     1      26.155   0.568  54.560  1.00  0.00     0.032 A 
HETATM   28  C12 UNL     1      27.455   0.224  54.830  1.00  0.00     0.004 A 
HETATM   29  C13 UNL     1      28.168  -0.379  53.823  1.00  0.00     0.019 A 
HETATM   30  C14 UNL     1      27.555  -0.607  52.608  1.00  0.00     0.117 A 
HETATM   31  N4  UNL     1      26.267  -0.242  52.409  1.00  0.00    -0.260 NA
ENDBRANCH  20  26
ENDBRANCH  18  19
ENDBRANCH   1  18
TORSDOF 6
ENDMDL
MODEL 9
REMARK VINA RESULT:      -7.4      5.620      8.274
REMARK  6 active torsions:
REMARK  status: ('A' for Active; 'I' for Inactive)
REMARK    1  A    between atoms: N2_5  and  C4_6 
REMARK    2  A    between atoms: C7_9  and  N3_10 
REMARK    3  A    between atoms: N3_10  and  O1_11 
REMARK    4  A    between atoms: O1_11  and  C8_12 
REMARK    5  A    between atoms: C9_13  and  C10_14 
REMARK    6  A    between atoms: C18_24  and  O2_25 
ROOT
HETATM    1  N3  UNL     1      27.167   7.347  49.390  1.00  0.00    -0.258 N 
HETATM    2  H10 UNL     1      27.096   8.388  49.600  1.00  0.00     0.195 HD
ENDROOT
BRANCH   1   3
HETATM    3  C7  UNL     1      26.167   6.392  49.707  1.00  0.00     0.088 A 
HETATM    4  C6  UNL     1      25.110   6.865  50.456  1.00  0.00     0.036 A 
HETATM    5  C5  UNL     1      24.133   5.918  50.757  1.00  0.00     0.032 A 
HETATM    6  C4  UNL     1      24.278   4.618  50.306  1.00  0.00     0.033 A 
HETATM    7  C19 UNL     1      25.374   4.239  49.561  1.00  0.00     0.068 A 
HETATM    8  C18 UNL     1      26.380   5.122  49.225  1.00  0.00     0.096 A 
BRANCH   6   9
HETATM    9  N2  UNL     1      23.248   3.687  50.641  1.00  0.00    -0.377 N 
HETATM   10  C3  UNL     1      22.482   3.979  51.863  1.00  0.00     0.153 C 
HETATM   11  C2  UNL     1      21.408   2.945  52.086  1.00  0.00     0.291 C 
HETATM   12  N1  UNL     1      22.014   1.637  51.987  1.00  0.00     0.087 N 
HETATM   13  C1  UNL     1      23.056   1.380  52.929  1.00  0.00     0.310 C 
HETATM   14  C21 UNL     1      22.326   1.388  50.620  1.00  0.00     0.291 C 
HETATM   15  C20 UNL     1      22.932   2.511  49.859  1.00  0.00     0.153 C 
ENDBRANCH   6   9
BRANCH   8  16
HETATM   16  O2  UNL     1      27.488   4.786  48.486  1.00  0.00    -0.358 OA
HETATM   17  H20 UNL     1      27.984   5.499  47.985  1.00  0.00     0.217 HD
ENDBRANCH   8  16
ENDBRANCH   1   3
BRANCH   1  18
HETATM   18  O1  UNL     1      28.336   7.777  48.902  1.00  0.00    -0.239 OA
BRANCH  18  19
HETATM   19  C8  UNL     1      28.897   9.027  48.968  1.00  0.00     0.106 A 
HETATM   20  C9  UNL     1      30.210   9.010  48.803  1.00  0.00     0.027 A 
HETATM   21  C15 UNL     1      30.951  10.287  48.843  1.00  0.00     0.033 A 
HETATM   22  C16 UNL     1      30.364  11.457  49.038  1.00  0.00     0.084 A 
HETATM   23  N5  UNL     1      28.953  11.418  49.209  1.00  0.00    -0.393 N 
HETATM   24  C17 UNL     1      28.103  10.263  49.203  1.00  0.00     0.187 A 
HETATM   25  H17 UNL     1      28.400  12.299  49.362  1.00  0.00     0.159 HD
BRANCH  20  26
HETATM   26  C10 UNL     1      30.890   7.736  48.580  1.00  0.00     0.069 A 
HETATM   27  C11 UNL     1      30.957   7.114  47.346  1.00  0.00     0.032 A 
HETATM   28  C12 UNL     1      31.586   5.918  47.112  1.00  0.00     0.004 A 
HETATM   29  C13 UNL     1      32.188   5.304  48.183  1.00  0.00     0.019 A 
HETATM   30  C14 UNL     1      32.134   5.908  49.422  1.00  0.00     0.117 A 
HETATM   31  N4  UNL     1      31.496   7.090  49.584  1.00  0.00    -0.260 NA
ENDBRANCH  20  26
ENDBRANCH  18  19
ENDBRANCH   1  18
TORSDOF 6
ENDMDL
