MODEL 1
REMARK VINA RESULT:      -8.1      0.000      0.000
REMARK  2 active torsions:
REMARK  status: ('A' for Active; 'I' for Inactive)
REMARK    1  A    between atoms: N1_6  and  C6_7 
REMARK    2  A    between atoms: C10_14  and  C11_15 
ROOT
HETATM    1  C6  UNL     1      24.549  -0.286  54.011  1.00  0.00     0.157 A 
HETATM    2  N2  UNL     1      25.067  -0.976  55.072  1.00  0.00    -0.220 NA
HETATM    3  C7  UNL     1      24.236  -1.631  55.905  1.00  0.00     0.258 A 
HETATM    4  N3  UNL     1      22.915  -1.580  55.664  1.00  0.00    -0.161 NA
HETATM    5  N4  UNL     1      22.392  -0.924  54.651  1.00  0.00    -0.240 N 
HETATM    6  C8  UNL     1      21.130  -0.734  54.237  1.00  0.00     0.119 A 
HETATM    7  C9  UNL     1      21.210   0.059  53.118  1.00  0.00     0.029 A 
HETATM    8  C10 UNL     1      22.539   0.366  52.834  1.00  0.00    -0.018 A 
HETATM    9  C16 UNL     1      23.210  -0.275  53.823  1.00  0.00     0.110 A 
ENDROOT
BRANCH   1  10
HETATM   10  N1  UNL     1      25.630   0.277  53.277  1.00  0.00    -0.360 N 
HETATM   11  C5  UNL     1      26.409   0.085  52.053  1.00  0.00     0.151 C 
HETATM   12  C4  UNL     1      26.723   1.364  51.371  1.00  0.00    -0.011 C 
HETATM   13  C3  UNL     1      27.182   2.425  52.023  1.00  0.00    -0.023 C 
HETATM   14  C2  UNL     1      27.307   2.098  53.471  1.00  0.00     0.022 C 
HETATM   15  C1  UNL     1      28.600   1.374  53.707  1.00  0.00     0.016 C 
HETATM   16  C17 UNL     1      26.100   1.433  54.024  1.00  0.00     0.133 C 
ENDBRANCH   1  10
BRANCH   8  17
HETATM   17  C11 UNL     1      23.020   1.185  51.721  1.00  0.00     0.049 C 
HETATM   18  C12 UNL     1      23.129   2.639  52.153  1.00  0.00     0.013 C 
HETATM   19  C13 UNL     1      22.322   3.568  51.284  1.00  0.00     0.031 C 
HETATM   20  C14 UNL     1      22.478   3.278  49.816  1.00  0.00     0.269 C 
HETATM   21  N5  UNL     1      22.412   1.867  49.510  1.00  0.00     0.084 N 
HETATM   22  C15 UNL     1      21.929   1.088  50.632  1.00  0.00     0.279 C 
HETATM   23  H19 UNL     1      21.736   1.687  48.710  1.00  0.00     0.315 HD
ENDBRANCH   8  17
TORSDOF 2
ENDMDL
MODEL 2
REMARK VINA RESULT:      -8.0      1.703      4.670
REMARK  2 active torsions:
REMARK  status: ('A' for Active; 'I' for Inactive)
REMARK    1  A    between atoms: N1_6  and  C6_7 
REMARK    2  A    between atoms: C10_14  and  C11_15 
ROOT
HETATM    1  C6  UNL     1      22.497   1.781  52.276  1.00  0.00     0.157 A 
HETATM    2  N2  UNL     1      21.155   2.022  52.175  1.00  0.00    -0.220 NA
HETATM    3  C7  UNL     1      20.291   1.260  52.872  1.00  0.00     0.258 A 
HETATM    4  N3  UNL     1      20.782   0.279  53.648  1.00  0.00    -0.161 NA
HETATM    5  N4  UNL     1      22.068   0.027  53.761  1.00  0.00    -0.240 N 
HETATM    6  C8  UNL     1      22.764  -0.888  54.454  1.00  0.00     0.119 A 
HETATM    7  C9  UNL     1      24.088  -0.664  54.161  1.00  0.00     0.029 A 
HETATM    8  C10 UNL     1      24.215   0.404  53.276  1.00  0.00    -0.018 A 
HETATM    9  C16 UNL     1      22.927   0.779  53.074  1.00  0.00     0.110 A 
ENDROOT
BRANCH   1  10
HETATM   10  N1  UNL     1      23.181   2.739  51.477  1.00  0.00    -0.360 N 
HETATM   11  C5  UNL     1      23.901   4.010  51.575  1.00  0.00     0.151 C 
HETATM   12  C4  UNL     1      25.099   4.055  50.702  1.00  0.00    -0.011 C 
HETATM   13  C3  UNL     1      25.072   3.660  49.435  1.00  0.00    -0.023 C 
HETATM   14  C2  UNL     1      23.699   3.196  49.092  1.00  0.00     0.022 C 
HETATM   15  C1  UNL     1      22.842   4.381  48.757  1.00  0.00     0.016 C 
HETATM   16  C17 UNL     1      23.129   2.268  50.103  1.00  0.00     0.133 C 
ENDBRANCH   1  10
BRANCH   8  17
HETATM   17  C11 UNL     1      25.467   0.937  52.738  1.00  0.00     0.049 C 
HETATM   18  C12 UNL     1      26.463  -0.190  52.521  1.00  0.00     0.013 C 
HETATM   19  C13 UNL     1      27.759   0.026  53.258  1.00  0.00     0.031 C 
HETATM   20  C14 UNL     1      28.279   1.432  53.126  1.00  0.00     0.269 C 
HETATM   21  N5  UNL     1      27.250   2.432  53.297  1.00  0.00     0.084 N 
HETATM   22  C15 UNL     1      26.027   1.870  53.834  1.00  0.00     0.279 C 
HETATM   23  H19 UNL     1      27.561   3.178  53.985  1.00  0.00     0.315 HD
ENDBRANCH   8  17
TORSDOF 2
ENDMDL
MODEL 3
REMARK VINA RESULT:      -7.8      1.434      4.672
REMARK  2 active torsions:
REMARK  status: ('A' for Active; 'I' for Inactive)
REMARK    1  A    between atoms: N1_6  and  C6_7 
REMARK    2  A    between atoms: C10_14  and  C11_15 
ROOT
HETATM    1  C6  UNL     1      21.833   0.167  52.852  1.00  0.00     0.157 A 
HETATM    2  N2  UNL     1      20.543  -0.206  53.107  1.00  0.00    -0.220 NA
HETATM    3  C7  UNL     1      20.284  -1.032  54.139  1.00  0.00     0.258 A 
HETATM    4  N3  UNL     1      21.313  -1.466  54.887  1.00  0.00    -0.161 NA
HETATM    5  N4  UNL     1      22.562  -1.122  54.662  1.00  0.00    -0.240 N 
HETATM    6  C8  UNL     1      23.721  -1.438  55.261  1.00  0.00     0.119 A 
HETATM    7  C9  UNL     1      24.704  -0.778  54.564  1.00  0.00     0.029 A 
HETATM    8  C10 UNL     1      24.148  -0.042  53.519  1.00  0.00    -0.018 A 
HETATM    9  C16 UNL     1      22.824  -0.305  53.643  1.00  0.00     0.110 A 
ENDROOT
BRANCH   1  10
HETATM   10  N1  UNL     1      21.826   1.061  51.745  1.00  0.00    -0.360 N 
HETATM   11  C5  UNL     1      22.050   2.466  51.404  1.00  0.00     0.151 C 
HETATM   12  C4  UNL     1      22.781   2.633  50.124  1.00  0.00    -0.011 C 
HETATM   13  C3  UNL     1      22.458   1.960  49.027  1.00  0.00    -0.023 C 
HETATM   14  C2  UNL     1      21.301   1.068  49.318  1.00  0.00     0.022 C 
HETATM   15  C1  UNL     1      20.029   1.858  49.226  1.00  0.00     0.016 C 
HETATM   16  C17 UNL     1      21.470   0.284  50.569  1.00  0.00     0.133 C 
ENDBRANCH   1  10
BRANCH   8  17
HETATM   17  C11 UNL     1      24.879   0.790  52.562  1.00  0.00     0.049 C 
HETATM   18  C12 UNL     1      26.191   0.120  52.186  1.00  0.00     0.013 C 
HETATM   19  C13 UNL     1      27.390   0.991  52.456  1.00  0.00     0.031 C 
HETATM   20  C14 UNL     1      27.193   2.413  52.004  1.00  0.00     0.269 C 
HETATM   21  N5  UNL     1      25.899   2.944  52.362  1.00  0.00     0.084 N 
HETATM   22  C15 UNL     1      25.205   2.099  53.313  1.00  0.00     0.279 C 
HETATM   23  H19 UNL     1      25.998   3.894  52.827  1.00  0.00     0.315 HD
ENDBRANCH   8  17
TORSDOF 2
ENDMDL
MODEL 4
REMARK VINA RESULT:      -7.5      1.288      1.922
REMARK  2 active torsions:
REMARK  status: ('A' for Active; 'I' for Inactive)
REMARK    1  A    between atoms: N1_6  and  C6_7 
REMARK    2  A    between atoms: C10_14  and  C11_15 
ROOT
HETATM    1  C6  UNL     1      23.796  -0.367  54.185  1.00  0.00     0.157 A 
HETATM    2  N2  UNL     1      23.742  -1.338  55.146  1.00  0.00    -0.220 NA
HETATM    3  C7  UNL     1      22.551  -1.866  55.487  1.00  0.00     0.258 A 
HETATM    4  N3  UNL     1      21.448  -1.415  54.866  1.00  0.00    -0.161 NA
HETATM    5  N4  UNL     1      21.474  -0.482  53.939  1.00  0.00    -0.240 N 
HETATM    6  C8  UNL     1      20.515   0.113  53.213  1.00  0.00     0.119 A 
HETATM    7  C9  UNL     1      21.156   1.027  52.411  1.00  0.00     0.029 A 
HETATM    8  C10 UNL     1      22.529   0.998  52.642  1.00  0.00    -0.018 A 
HETATM    9  C16 UNL     1      22.650   0.043  53.598  1.00  0.00     0.110 A 
ENDROOT
BRANCH   1  10
HETATM   10  N1  UNL     1      25.160  -0.011  53.991  1.00  0.00    -0.360 N 
HETATM   11  C5  UNL     1      26.209   0.852  54.536  1.00  0.00     0.151 C 
HETATM   12  C4  UNL     1      27.533   0.186  54.573  1.00  0.00    -0.011 C 
HETATM   13  C3  UNL     1      28.016  -0.496  53.542  1.00  0.00    -0.023 C 
HETATM   14  C2  UNL     1      27.033  -0.461  52.424  1.00  0.00     0.022 C 
HETATM   15  C1  UNL     1      27.187   0.824  51.666  1.00  0.00     0.016 C 
HETATM   16  C17 UNL     1      25.647  -0.779  52.856  1.00  0.00     0.133 C 
ENDBRANCH   1  10
BRANCH   8  17
HETATM   17  C11 UNL     1      23.536   1.825  51.977  1.00  0.00     0.049 C 
HETATM   18  C12 UNL     1      23.776   3.097  52.775  1.00  0.00     0.013 C 
HETATM   19  C13 UNL     1      23.547   4.346  51.965  1.00  0.00     0.031 C 
HETATM   20  C14 UNL     1      24.160   4.273  50.593  1.00  0.00     0.269 C 
HETATM   21  N5  UNL     1      23.923   3.010  49.935  1.00  0.00     0.084 N 
HETATM   22  C15 UNL     1      22.919   2.219  50.617  1.00  0.00     0.279 C 
HETATM   23  H19 UNL     1      23.561   3.161  48.948  1.00  0.00     0.315 HD
ENDBRANCH   8  17
TORSDOF 2
ENDMDL
MODEL 5
REMARK VINA RESULT:      -7.5      1.719      5.943
REMARK  2 active torsions:
REMARK  status: ('A' for Active; 'I' for Inactive)
REMARK    1  A    between atoms: N1_6  and  C6_7 
REMARK    2  A    between atoms: C10_14  and  C11_15 
ROOT
HETATM    1  C6  UNL     1      22.755   1.431  51.222  1.00  0.00     0.157 A 
HETATM    2  N2  UNL     1      21.700   1.651  50.382  1.00  0.00    -0.220 NA
HETATM    3  C7  UNL     1      21.856   2.468  49.322  1.00  0.00     0.258 A 
HETATM    4  N3  UNL     1      23.055   3.044  49.127  1.00  0.00    -0.161 NA
HETATM    5  N4  UNL     1      24.085   2.848  49.921  1.00  0.00    -0.240 N 
HETATM    6  C8  UNL     1      25.342   3.319  49.922  1.00  0.00     0.119 A 
HETATM    7  C9  UNL     1      25.957   2.763  51.018  1.00  0.00     0.029 A 
HETATM    8  C10 UNL     1      25.070   1.938  51.706  1.00  0.00    -0.018 A 
HETATM    9  C16 UNL     1      23.936   2.040  50.970  1.00  0.00     0.110 A 
ENDROOT
BRANCH   1  10
HETATM   10  N1  UNL     1      22.340   0.513  52.226  1.00  0.00    -0.360 N 
HETATM   11  C5  UNL     1      22.594  -0.842  52.718  1.00  0.00     0.151 C 
HETATM   12  C4  UNL     1      22.591  -0.920  54.200  1.00  0.00    -0.011 C 
HETATM   13  C3  UNL     1      21.647  -0.352  54.940  1.00  0.00    -0.023 C 
HETATM   14  C2  UNL     1      20.666   0.331  54.052  1.00  0.00     0.022 C 
HETATM   15  C1  UNL     1      19.678  -0.675  53.537  1.00  0.00     0.016 C 
HETATM   16  C17 UNL     1      21.310   1.174  53.012  1.00  0.00     0.133 C 
ENDBRANCH   1  10
BRANCH   8  17
HETATM   17  C11 UNL     1      25.363   1.175  52.920  1.00  0.00     0.049 C 
HETATM   18  C12 UNL     1      26.228   2.001  53.859  1.00  0.00     0.013 C 
HETATM   19  C13 UNL     1      27.518   1.314  54.221  1.00  0.00     0.031 C 
HETATM   20  C14 UNL     1      27.330  -0.139  54.565  1.00  0.00     0.269 C 
HETATM   21  N5  UNL     1      26.452  -0.827  53.647  1.00  0.00     0.084 N 
HETATM   22  C15 UNL     1      26.187  -0.046  52.457  1.00  0.00     0.279 C 
HETATM   23  H19 UNL     1      26.892  -1.735  53.315  1.00  0.00     0.315 HD
ENDBRANCH   8  17
TORSDOF 2
ENDMDL
MODEL 6
REMARK VINA RESULT:      -7.3      2.019      4.756
REMARK  2 active torsions:
REMARK  status: ('A' for Active; 'I' for Inactive)
REMARK    1  A    between atoms: N1_6  and  C6_7 
REMARK    2  A    between atoms: C10_14  and  C11_15 
ROOT
HETATM    1  C6  UNL     1      24.461   2.289  51.720  1.00  0.00     0.157 A 
HETATM    2  N2  UNL     1      25.660   2.800  51.310  1.00  0.00    -0.220 NA
HETATM    3  C7  UNL     1      26.798   2.151  51.623  1.00  0.00     0.258 A 
HETATM    4  N3  UNL     1      26.714   1.015  52.336  1.00  0.00    -0.161 NA
HETATM    5  N4  UNL     1      25.572   0.504  52.742  1.00  0.00    -0.240 N 
HETATM    6  C8  UNL     1      25.262  -0.589  53.457  1.00  0.00     0.119 A 
HETATM    7  C9  UNL     1      23.892  -0.592  53.574  1.00  0.00     0.029 A 
HETATM    8  C10 UNL     1      23.346   0.511  52.923  1.00  0.00    -0.018 A 
HETATM    9  C16 UNL     1      24.443   1.141  52.434  1.00  0.00     0.110 A 
ENDROOT
BRANCH   1  10
HETATM   10  N1  UNL     1      23.427   3.137  51.233  1.00  0.00    -0.360 N 
HETATM   11  C5  UNL     1      22.559   3.336  50.072  1.00  0.00     0.151 C 
HETATM   12  C4  UNL     1      21.174   3.708  50.451  1.00  0.00    -0.011 C 
HETATM   13  C3  UNL     1      20.911   4.636  51.362  1.00  0.00    -0.023 C 
HETATM   14  C2  UNL     1      22.190   5.188  51.889  1.00  0.00     0.022 C 
HETATM   15  C1  UNL     1      22.705   6.236  50.947  1.00  0.00     0.016 C 
HETATM   16  C17 UNL     1      23.170   4.135  52.259  1.00  0.00     0.133 C 
ENDBRANCH   1  10
BRANCH   8  17
HETATM   17  C11 UNL     1      21.924   0.845  52.829  1.00  0.00     0.049 C 
HETATM   18  C12 UNL     1      21.178   0.284  54.029  1.00  0.00     0.013 C 
HETATM   19  C13 UNL     1      20.046  -0.629  53.638  1.00  0.00     0.031 C 
HETATM   20  C14 UNL     1      19.214  -0.079  52.511  1.00  0.00     0.269 C 
HETATM   21  N5  UNL     1      20.010   0.477  51.442  1.00  0.00     0.084 N 
HETATM   22  C15 UNL     1      21.410   0.125  51.564  1.00  0.00     0.279 C 
HETATM   23  H19 UNL     1      19.691   0.103  50.501  1.00  0.00     0.315 HD
ENDBRANCH   8  17
TORSDOF 2
ENDMDL
MODEL 7
REMARK VINA RESULT:      -7.2      2.061      4.843
REMARK  2 active torsions:
REMARK  status: ('A' for Active; 'I' for Inactive)
REMARK    1  A    between atoms: N1_6  and  C6_7 
REMARK    2  A    between atoms: C10_14  and  C11_15 
ROOT
HETATM    1  C6  UNL     1      25.601   2.578  50.937  1.00  0.00     0.157 A 
HETATM    2  N2  UNL     1      26.812   3.155  50.668  1.00  0.00    -0.220 NA
HETATM    3  C7  UNL     1      26.897   4.101  49.714  1.00  0.00     0.258 A 
HETATM    4  N3  UNL     1      25.780   4.448  49.052  1.00  0.00    -0.161 NA
HETATM    5  N4  UNL     1      24.605   3.908  49.291  1.00  0.00    -0.240 N 
HETATM    6  C8  UNL     1      23.388   4.090  48.756  1.00  0.00     0.119 A 
HETATM    7  C9  UNL     1      22.547   3.224  49.413  1.00  0.00     0.029 A 
HETATM    8  C10 UNL     1      23.252   2.495  50.369  1.00  0.00    -0.018 A 
HETATM    9  C16 UNL     1      24.515   2.971  50.235  1.00  0.00     0.110 A 
ENDROOT
BRANCH   1  10
HETATM   10  N1  UNL     1      25.779   1.648  51.998  1.00  0.00    -0.360 N 
HETATM   11  C5  UNL     1      25.469   1.451  53.415  1.00  0.00     0.151 C 
HETATM   12  C4  UNL     1      25.080   0.054  53.725  1.00  0.00    -0.011 C 
HETATM   13  C3  UNL     1      25.763  -0.991  53.275  1.00  0.00    -0.023 C 
HETATM   14  C2  UNL     1      26.911  -0.514  52.455  1.00  0.00     0.022 C 
HETATM   15  C1  UNL     1      28.048  -0.142  53.360  1.00  0.00     0.016 C 
HETATM   16  C17 UNL     1      26.527   0.522  51.463  1.00  0.00     0.133 C 
ENDBRANCH   1  10
BRANCH   8  17
HETATM   17  C11 UNL     1      22.697   1.479  51.265  1.00  0.00     0.049 C 
HETATM   18  C12 UNL     1      21.761   0.562  50.496  1.00  0.00     0.013 C 
HETATM   19  C13 UNL     1      20.375   0.516  51.083  1.00  0.00     0.031 C 
HETATM   20  C14 UNL     1      20.380   0.388  52.583  1.00  0.00     0.269 C 
HETATM   21  N5  UNL     1      21.337   1.261  53.221  1.00  0.00     0.084 N 
HETATM   22  C15 UNL     1      21.862   2.255  52.307  1.00  0.00     0.279 C 
HETATM   23  H19 UNL     1      20.884   1.799  54.016  1.00  0.00     0.315 HD
ENDBRANCH   8  17
TORSDOF 2
ENDMDL
MODEL 8
REMARK VINA RESULT:      -7.0      1.958      4.652
REMARK  2 active torsions:
REMARK  status: ('A' for Active; 'I' for Inactive)
REMARK    1  A    between atoms: N1_6  and  C6_7 
REMARK    2  A    between atoms: C10_14  and  C11_15 
ROOT
HETATM    1  C6  UNL     1      24.159   0.547  52.824  1.00  0.00     0.157 A 
HETATM    2  N2  UNL     1      23.952  -0.424  53.763  1.00  0.00    -0.220 NA
HETATM    3  C7  UNL     1      24.986  -0.852  54.512  1.00  0.00     0.258 A 
HETATM    4  N3  UNL     1      26.197  -0.305  54.307  1.00  0.00    -0.161 NA
HETATM    5  N4  UNL     1      26.421   0.630  53.410  1.00  0.00    -0.240 N 
HETATM    6  C8  UNL     1      27.526   1.294  53.037  1.00  0.00     0.119 A 
HETATM    7  C9  UNL     1      27.138   2.148  52.032  1.00  0.00     0.029 A 
HETATM    8  C10 UNL     1      25.775   2.011  51.778  1.00  0.00    -0.018 A 
HETATM    9  C16 UNL     1      25.401   1.057  52.667  1.00  0.00     0.110 A 
ENDROOT
BRANCH   1  10
HETATM   10  N1  UNL     1      22.912   0.839  52.205  1.00  0.00    -0.360 N 
HETATM   11  C5  UNL     1      22.289   0.974  50.887  1.00  0.00     0.151 C 
HETATM   12  C4  UNL     1      20.926   0.392  50.838  1.00  0.00    -0.011 C 
HETATM   13  C3  UNL     1      20.019   0.623  51.779  1.00  0.00    -0.023 C 
HETATM   14  C2  UNL     1      20.603   1.517  52.818  1.00  0.00     0.022 C 
HETATM   15  C1  UNL     1      20.511   2.942  52.357  1.00  0.00     0.016 C 
HETATM   16  C17 UNL     1      21.951   1.084  53.268  1.00  0.00     0.133 C 
ENDBRANCH   1  10
BRANCH   8  17
HETATM   17  C11 UNL     1      25.002   2.753  50.781  1.00  0.00     0.049 C 
HETATM   18  C12 UNL     1      25.918   3.242  49.671  1.00  0.00     0.013 C 
HETATM   19  C13 UNL     1      25.860   4.735  49.481  1.00  0.00     0.031 C 
HETATM   20  C14 UNL     1      24.454   5.271  49.494  1.00  0.00     0.269 C 
HETATM   21  N5  UNL     1      23.646   4.710  50.551  1.00  0.00     0.084 N 
HETATM   22  C15 UNL     1      24.442   3.987  51.521  1.00  0.00     0.279 C 
HETATM   23  H19 UNL     1      23.146   5.477  51.090  1.00  0.00     0.315 HD
ENDBRANCH   8  17
TORSDOF 2
ENDMDL
MODEL 9
REMARK VINA RESULT:      -6.9      1.914      4.863
REMARK  2 active torsions:
REMARK  status: ('A' for Active; 'I' for Inactive)
REMARK    1  A    between atoms: N1_6  and  C6_7 
REMARK    2  A    between atoms: C10_14  and  C11_15 
ROOT
HETATM    1  C6  UNL     1      24.703   1.674  52.345  1.00  0.00     0.157 A 
HETATM    2  N2  UNL     1      25.690   1.240  53.185  1.00  0.00    -0.220 NA
HETATM    3  C7  UNL     1      26.969   1.585  52.938  1.00  0.00     0.258 A 
HETATM    4  N3  UNL     1      27.231   2.349  51.864  1.00  0.00    -0.161 NA
HETATM    5  N4  UNL     1      26.299   2.779  51.042  1.00  0.00    -0.240 N 
HETATM    6  C8  UNL     1      26.335   3.527  49.928  1.00  0.00     0.119 A 
HETATM    7  C9  UNL     1      25.035   3.633  49.496  1.00  0.00     0.029 A 
HETATM    8  C10 UNL     1      24.181   2.942  50.353  1.00  0.00    -0.018 A 
HETATM    9  C16 UNL     1      25.033   2.442  51.282  1.00  0.00     0.110 A 
ENDROOT
BRANCH   1  10
HETATM   10  N1  UNL     1      23.456   1.205  52.846  1.00  0.00    -0.360 N 
HETATM   11  C5  UNL     1      22.151   1.683  53.303  1.00  0.00     0.151 C 
HETATM   12  C4  UNL     1      21.034   0.825  52.837  1.00  0.00    -0.011 C 
HETATM   13  C3  UNL     1      21.072  -0.499  52.920  1.00  0.00    -0.023 C 
HETATM   14  C2  UNL     1      22.365  -0.919  53.528  1.00  0.00     0.022 C 
HETATM   15  C1  UNL     1      22.270  -0.812  55.021  1.00  0.00     0.016 C 
HETATM   16  C17 UNL     1      23.541  -0.244  52.919  1.00  0.00     0.133 C 
ENDBRANCH   1  10
BRANCH   8  17
HETATM   17  C11 UNL     1      22.728   2.829  50.220  1.00  0.00     0.049 C 
HETATM   18  C12 UNL     1      22.371   1.561  49.461  1.00  0.00     0.013 C 
HETATM   19  C13 UNL     1      21.539   1.829  48.235  1.00  0.00     0.031 C 
HETATM   20  C14 UNL     1      20.427   2.812  48.487  1.00  0.00     0.269 C 
HETATM   21  N5  UNL     1      20.850   3.957  49.259  1.00  0.00     0.084 N 
HETATM   22  C15 UNL     1      22.292   4.040  49.367  1.00  0.00     0.279 C 
HETATM   23  H19 UNL     1      20.535   4.860  48.797  1.00  0.00     0.315 HD
ENDBRANCH   8  17
TORSDOF 2
ENDMDL
