MODEL 1
REMARK VINA RESULT:      -9.2      0.000      0.000
REMARK  5 active torsions:
REMARK  status: ('A' for Active; 'I' for Inactive)
REMARK    1  A    between atoms: C2_2  and  O1_3 
REMARK    2  A    between atoms: C2_2  and  C15_19 
REMARK    3  A    between atoms: O1_3  and  C3_4 
REMARK    4  A    between atoms: C8_10  and  C9_11 
REMARK    5  A    between atoms: C10_12  and  C11_13 
REMARK       I    between atoms: C11_13  and  N2_14 
ROOT
HETATM    1  C3  UNL     1      24.592   0.478  53.645  1.00  0.00     0.070 A 
HETATM    2  C4  UNL     1      24.790  -0.505  54.625  1.00  0.00     0.039 A 
HETATM    3  C5  UNL     1      23.733  -1.307  55.052  1.00  0.00     0.035 A 
HETATM    4  C6  UNL     1      22.482  -1.166  54.538  1.00  0.00     0.067 A 
HETATM    5  N1  UNL     1      21.399  -1.894  54.886  1.00  0.00    -0.260 NA
HETATM    6  C7  UNL     1      20.218  -1.646  54.293  1.00  0.00     0.128 A 
HETATM    7  C8  UNL     1      19.973  -0.699  53.333  1.00  0.00    -0.018 A 
HETATM    8  C12 UNL     1      21.062   0.057  52.958  1.00  0.00     0.026 A 
HETATM    9  C13 UNL     1      22.293  -0.191  53.569  1.00  0.00    -0.004 A 
HETATM   10  C14 UNL     1      23.319   0.611  53.133  1.00  0.00     0.050 A 
ENDROOT
BRANCH   1  11
HETATM   11  O1  UNL     1      25.786   1.129  53.402  1.00  0.00    -0.344 OA
BRANCH  11  12
HETATM   12  C2  UNL     1      26.723   0.735  52.433  1.00  0.00     0.148 C 
HETATM   13  C1  UNL     1      26.900   1.841  51.474  1.00  0.00     0.042 C 
BRANCH  12  14
HETATM   14  C15 UNL     1      28.084   0.257  53.111  1.00  0.00     0.093 A 
HETATM   15  C16 UNL     1      29.090   1.355  53.815  1.00  0.00     0.128 A 
HETATM   16 CL1  UNL     1      28.202   2.785  53.526  1.00  0.00    -0.103 Cl
HETATM   17  S1  UNL     1      29.275  -0.120  53.719  1.00  0.00    -0.155 SA
HETATM   18  C17 UNL     1      29.399  -1.318  53.626  1.00  0.00     0.025 A 
HETATM   19  C19 UNL     1      28.291  -1.457  52.997  1.00  0.00     0.139 A 
HETATM   20  C18 UNL     1      29.491  -2.415  53.531  1.00  0.00     0.210 A 
HETATM   21  F1  UNL     1      28.743  -3.333  52.996  1.00  0.00    -0.230 F 
HETATM   22 CL2  UNL     1      26.729  -2.062  52.043  1.00  0.00    -0.100 Cl
ENDBRANCH  12  14
ENDBRANCH  11  12
ENDBRANCH   1  11
BRANCH   7  23
HETATM   23  C9  UNL     1      18.662  -0.488  52.733  1.00  0.00     0.018 C 
HETATM   24  C10 UNL     1      17.589  -1.164  53.090  1.00  0.00     0.068 C 
BRANCH  24  25
HETATM   25  C11 UNL     1      16.300  -0.878  52.422  1.00  0.00     0.218 C 
HETATM   26  N2  UNL     1      15.351  -0.253  53.290  1.00  0.00    -0.269 NA
HETATM   27  H10 UNL     1      15.000   0.638  52.851  1.00  0.00     0.127 HD
HETATM   28  H11 UNL     1      15.038   0.611  52.818  1.00  0.00     0.127 HD
HETATM   29  O2  UNL     1      16.109  -1.174  51.215  1.00  0.00    -0.275 OA
ENDBRANCH  24  25
ENDBRANCH   7  23
TORSDOF 5
ENDMDL
MODEL 2
REMARK VINA RESULT:      -8.8      5.272      8.270
REMARK  5 active torsions:
REMARK  status: ('A' for Active; 'I' for Inactive)
REMARK    1  A    between atoms: C2_2  and  O1_3 
REMARK    2  A    between atoms: C2_2  and  C15_19 
REMARK    3  A    between atoms: O1_3  and  C3_4 
REMARK    4  A    between atoms: C8_10  and  C9_11 
REMARK    5  A    between atoms: C10_12  and  C11_13 
REMARK       I    between atoms: C11_13  and  N2_14 
ROOT
HETATM    1  C3  UNL     1      23.675   3.765  51.446  1.00  0.00     0.070 A 
HETATM    2  C4  UNL     1      22.433   3.396  51.982  1.00  0.00     0.039 A 
HETATM    3  C5  UNL     1      22.267   2.163  52.610  1.00  0.00     0.035 A 
HETATM    4  C6  UNL     1      23.294   1.280  52.724  1.00  0.00     0.067 A 
HETATM    5  N1  UNL     1      23.231   0.067  53.314  1.00  0.00    -0.260 NA
HETATM    6  C7  UNL     1      24.331  -0.705  53.356  1.00  0.00     0.128 A 
HETATM    7  C8  UNL     1      25.565  -0.392  52.848  1.00  0.00    -0.018 A 
HETATM    8  C12 UNL     1      25.658   0.841  52.242  1.00  0.00     0.026 A 
HETATM    9  C13 UNL     1      24.521   1.651  52.192  1.00  0.00    -0.004 A 
HETATM   10  C14 UNL     1      24.708   2.860  51.568  1.00  0.00     0.050 A 
ENDROOT
BRANCH   1  11
HETATM   11  O1  UNL     1      23.575   5.022  50.883  1.00  0.00    -0.344 OA
BRANCH  11  12
HETATM   12  C2  UNL     1      24.212   5.414  49.694  1.00  0.00     0.148 C 
HETATM   13  C1  UNL     1      23.271   5.229  48.574  1.00  0.00     0.042 C 
BRANCH  12  14
HETATM   14  C15 UNL     1      24.779   6.899  49.810  1.00  0.00     0.093 A 
HETATM   15  C16 UNL     1      23.812   8.116  50.355  1.00  0.00     0.128 A 
HETATM   16 CL1  UNL     1      22.374   7.238  50.632  1.00  0.00    -0.103 Cl
HETATM   17  S1  UNL     1      25.238   8.205  49.931  1.00  0.00    -0.155 SA
HETATM   18  C17 UNL     1      26.393   8.247  49.582  1.00  0.00     0.025 A 
HETATM   19  C19 UNL     1      26.435   6.994  49.317  1.00  0.00     0.139 A 
HETATM   20  C18 UNL     1      27.450   8.262  49.258  1.00  0.00     0.210 A 
HETATM   21  F1  UNL     1      28.266   7.351  48.823  1.00  0.00    -0.230 F 
HETATM   22 CL2  UNL     1      26.884   5.191  48.806  1.00  0.00    -0.100 Cl
ENDBRANCH  12  14
ENDBRANCH  11  12
ENDBRANCH   1  11
BRANCH   7  23
HETATM   23  C9  UNL     1      26.715  -1.283  52.932  1.00  0.00     0.018 C 
HETATM   24  C10 UNL     1      27.922  -0.872  53.263  1.00  0.00     0.068 C 
BRANCH  24  25
HETATM   25  C11 UNL     1      29.028  -1.852  53.320  1.00  0.00     0.218 C 
HETATM   26  N2  UNL     1      28.608  -3.183  53.005  1.00  0.00    -0.269 NA
HETATM   27  H10 UNL     1      29.208  -3.571  52.231  1.00  0.00     0.127 HD
HETATM   28  H11 UNL     1      29.223  -3.518  52.245  1.00  0.00     0.127 HD
HETATM   29  O2  UNL     1      30.197  -1.502  53.620  1.00  0.00    -0.275 OA
ENDBRANCH  24  25
ENDBRANCH   7  23
TORSDOF 5
ENDMDL
MODEL 3
REMARK VINA RESULT:      -8.7      4.605      8.057
REMARK  5 active torsions:
REMARK  status: ('A' for Active; 'I' for Inactive)
REMARK    1  A    between atoms: C2_2  and  O1_3 
REMARK    2  A    between atoms: C2_2  and  C15_19 
REMARK    3  A    between atoms: O1_3  and  C3_4 
REMARK    4  A    between atoms: C8_10  and  C9_11 
REMARK    5  A    between atoms: C10_12  and  C11_13 
REMARK       I    between atoms: C11_13  and  N2_14 
ROOT
HETATM    1  C3  UNL     1      21.624   0.254  52.024  1.00  0.00     0.070 A 
HETATM    2  C4  UNL     1      20.937  -0.504  52.983  1.00  0.00     0.039 A 
HETATM    3  C5  UNL     1      21.603  -1.019  54.092  1.00  0.00     0.035 A 
HETATM    4  C6  UNL     1      22.933  -0.808  54.285  1.00  0.00     0.067 A 
HETATM    5  N1  UNL     1      23.663  -1.265  55.326  1.00  0.00    -0.260 NA
HETATM    6  C7  UNL     1      24.974  -0.977  55.389  1.00  0.00     0.128 A 
HETATM    7  C8  UNL     1      25.691  -0.243  54.480  1.00  0.00    -0.018 A 
HETATM    8  C12 UNL     1      24.970   0.236  53.408  1.00  0.00     0.026 A 
HETATM    9  C13 UNL     1      23.607  -0.057  53.332  1.00  0.00    -0.004 A 
HETATM   10  C14 UNL     1      22.971   0.461  52.231  1.00  0.00     0.050 A 
ENDROOT
BRANCH   1  11
HETATM   11  O1  UNL     1      20.745   0.644  51.032  1.00  0.00    -0.344 OA
BRANCH  11  12
HETATM   12  C2  UNL     1      20.949   1.736  50.173  1.00  0.00     0.148 C 
HETATM   13  C1  UNL     1      19.881   1.740  49.157  1.00  0.00     0.042 C 
BRANCH  12  14
HETATM   14  C15 UNL     1      21.052   3.099  50.993  1.00  0.00     0.093 A 
HETATM   15  C16 UNL     1      19.807   3.585  51.955  1.00  0.00     0.128 A 
HETATM   16 CL1  UNL     1      18.721   2.293  51.693  1.00  0.00    -0.103 Cl
HETATM   17  S1  UNL     1      21.106   4.277  51.729  1.00  0.00    -0.155 SA
HETATM   18  C17 UNL     1      22.168   4.815  51.527  1.00  0.00     0.025 A 
HETATM   19  C19 UNL     1      22.564   3.896  50.726  1.00  0.00     0.139 A 
HETATM   20  C18 UNL     1      23.146   5.290  51.327  1.00  0.00     0.210 A 
HETATM   21  F1  UNL     1      24.164   4.966  50.589  1.00  0.00    -0.230 F 
HETATM   22 CL2  UNL     1      23.495   2.749  49.488  1.00  0.00    -0.100 Cl
ENDBRANCH  12  14
ENDBRANCH  11  12
ENDBRANCH   1  11
BRANCH   7  23
HETATM   23  C9  UNL     1      27.116   0.028  54.616  1.00  0.00     0.018 C 
HETATM   24  C10 UNL     1      27.791   0.774  53.765  1.00  0.00     0.068 C 
BRANCH  24  25
HETATM   25  C11 UNL     1      29.238   0.992  53.986  1.00  0.00     0.218 C 
HETATM   26  N2  UNL     1      29.520   2.239  54.627  1.00  0.00    -0.269 NA
HETATM   27  H10 UNL     1      30.105   2.073  55.487  1.00  0.00     0.127 HD
HETATM   28  H11 UNL     1      30.092   2.025  55.460  1.00  0.00     0.127 HD
HETATM   29  O2  UNL     1      30.090   0.140  53.629  1.00  0.00    -0.275 OA
ENDBRANCH  24  25
ENDBRANCH   7  23
TORSDOF 5
ENDMDL
MODEL 4
REMARK VINA RESULT:      -8.5      1.702      2.210
REMARK  5 active torsions:
REMARK  status: ('A' for Active; 'I' for Inactive)
REMARK    1  A    between atoms: C2_2  and  O1_3 
REMARK    2  A    between atoms: C2_2  and  C15_19 
REMARK    3  A    between atoms: O1_3  and  C3_4 
REMARK    4  A    between atoms: C8_10  and  C9_11 
REMARK    5  A    between atoms: C10_12  and  C11_13 
REMARK       I    between atoms: C11_13  and  N2_14 
ROOT
HETATM    1  C3  UNL     1      24.374   1.372  53.069  1.00  0.00     0.070 A 
HETATM    2  C4  UNL     1      24.176   2.731  52.789  1.00  0.00     0.039 A 
HETATM    3  C5  UNL     1      22.906   3.220  52.494  1.00  0.00     0.035 A 
HETATM    4  C6  UNL     1      21.819   2.403  52.466  1.00  0.00     0.067 A 
HETATM    5  N1  UNL     1      20.552   2.782  52.192  1.00  0.00    -0.260 NA
HETATM    6  C7  UNL     1      19.571   1.864  52.200  1.00  0.00     0.128 A 
HETATM    7  C8  UNL     1      19.711   0.526  52.466  1.00  0.00    -0.018 A 
HETATM    8  C12 UNL     1      20.994   0.112  52.750  1.00  0.00     0.026 A 
HETATM    9  C13 UNL     1      22.021   1.058  52.743  1.00  0.00    -0.004 A 
HETATM   10  C14 UNL     1      23.264   0.554  53.037  1.00  0.00     0.050 A 
ENDROOT
BRANCH   1  11
HETATM   11  O1  UNL     1      25.712   1.147  53.327  1.00  0.00    -0.344 OA
BRANCH  11  12
HETATM   12  C2  UNL     1      26.609   0.563  52.417  1.00  0.00     0.148 C 
HETATM   13  C1  UNL     1      26.769   1.472  51.266  1.00  0.00     0.042 C 
BRANCH  12  14
HETATM   14  C15 UNL     1      27.986   0.191  53.129  1.00  0.00     0.093 A 
HETATM   15  C16 UNL     1      28.906   1.367  53.824  1.00  0.00     0.128 A 
HETATM   16 CL1  UNL     1      27.932   2.729  53.487  1.00  0.00    -0.103 Cl
HETATM   17  S1  UNL     1      29.188  -0.095  53.764  1.00  0.00    -0.155 SA
HETATM   18  C17 UNL     1      29.391  -1.283  53.702  1.00  0.00     0.025 A 
HETATM   19  C19 UNL     1      28.306  -1.508  53.057  1.00  0.00     0.139 A 
HETATM   20  C18 UNL     1      29.556  -2.374  53.632  1.00  0.00     0.210 A 
HETATM   21  F1  UNL     1      28.879  -3.350  53.106  1.00  0.00    -0.230 F 
HETATM   22 CL2  UNL     1      26.805  -2.235  52.092  1.00  0.00    -0.100 Cl
ENDBRANCH  12  14
ENDBRANCH  11  12
ENDBRANCH   1  11
BRANCH   7  23
HETATM   23  C9  UNL     1      18.597  -0.413  52.457  1.00  0.00     0.018 C 
HETATM   24  C10 UNL     1      18.453  -1.369  53.352  1.00  0.00     0.068 C 
BRANCH  24  25
HETATM   25  C11 UNL     1      17.288  -2.275  53.260  1.00  0.00     0.218 C 
HETATM   26  N2  UNL     1      16.075  -1.590  52.934  1.00  0.00    -0.269 NA
HETATM   27  H10 UNL     1      15.631  -2.036  52.089  1.00  0.00     0.127 HD
HETATM   28  H11 UNL     1      15.680  -2.061  52.104  1.00  0.00     0.127 HD
HETATM   29  O2  UNL     1      17.404  -3.511  53.456  1.00  0.00    -0.275 OA
ENDBRANCH  24  25
ENDBRANCH   7  23
TORSDOF 5
ENDMDL
MODEL 5
REMARK VINA RESULT:      -8.4      4.766      7.484
REMARK  5 active torsions:
REMARK  status: ('A' for Active; 'I' for Inactive)
REMARK    1  A    between atoms: C2_2  and  O1_3 
REMARK    2  A    between atoms: C2_2  and  C15_19 
REMARK    3  A    between atoms: O1_3  and  C3_4 
REMARK    4  A    between atoms: C8_10  and  C9_11 
REMARK    5  A    between atoms: C10_12  and  C11_13 
REMARK       I    between atoms: C11_13  and  N2_14 
ROOT
HETATM    1  C3  UNL     1      21.640   3.325  51.769  1.00  0.00     0.070 A 
HETATM    2  C4  UNL     1      20.471   2.740  52.275  1.00  0.00     0.039 A 
HETATM    3  C5  UNL     1      20.526   1.554  53.003  1.00  0.00     0.035 A 
HETATM    4  C6  UNL     1      21.707   0.925  53.247  1.00  0.00     0.067 A 
HETATM    5  N1  UNL     1      21.861  -0.224  53.941  1.00  0.00    -0.260 NA
HETATM    6  C7  UNL     1      23.093  -0.735  54.107  1.00  0.00     0.128 A 
HETATM    7  C8  UNL     1      24.265  -0.204  53.634  1.00  0.00    -0.018 A 
HETATM    8  C12 UNL     1      24.137   0.970  52.923  1.00  0.00     0.026 A 
HETATM    9  C13 UNL     1      22.861   1.509  52.744  1.00  0.00    -0.004 A 
HETATM   10  C14 UNL     1      22.830   2.678  52.023  1.00  0.00     0.050 A 
ENDROOT
BRANCH   1  11
HETATM   11  O1  UNL     1      21.316   4.484  51.090  1.00  0.00    -0.344 OA
BRANCH  11  12
HETATM   12  C2  UNL     1      21.851   4.852  49.845  1.00  0.00     0.148 C 
HETATM   13  C1  UNL     1      20.816   5.576  49.084  1.00  0.00     0.042 C 
BRANCH  12  14
HETATM   14  C15 UNL     1      23.203   5.678  50.024  1.00  0.00     0.093 A 
HETATM   15  C16 UNL     1      23.173   7.186  50.684  1.00  0.00     0.128 A 
HETATM   16 CL1  UNL     1      21.497   7.339  50.973  1.00  0.00    -0.103 Cl
HETATM   17  S1  UNL     1      24.360   6.426  50.202  1.00  0.00    -0.155 SA
HETATM   18  C17 UNL     1      25.304   5.787  49.804  1.00  0.00     0.025 A 
HETATM   19  C19 UNL     1      24.577   4.788  49.463  1.00  0.00     0.139 A 
HETATM   20  C18 UNL     1      26.153   5.185  49.434  1.00  0.00     0.210 A 
HETATM   21  F1  UNL     1      26.249   4.001  48.908  1.00  0.00    -0.230 F 
HETATM   22 CL2  UNL     1      23.840   3.126  48.824  1.00  0.00    -0.100 Cl
ENDBRANCH  12  14
ENDBRANCH  11  12
ENDBRANCH   1  11
BRANCH   7  23
HETATM   23  C9  UNL     1      25.569  -0.816  53.854  1.00  0.00     0.018 C 
HETATM   24  C10 UNL     1      26.443  -1.015  52.889  1.00  0.00     0.068 C 
BRANCH  24  25
HETATM   25  C11 UNL     1      27.742  -1.645  53.210  1.00  0.00     0.218 C 
HETATM   26  N2  UNL     1      27.842  -2.988  52.728  1.00  0.00    -0.269 NA
HETATM   27  H10 UNL     1      28.709  -3.090  52.137  1.00  0.00     0.127 HD
HETATM   28  H11 UNL     1      28.702  -3.037  52.158  1.00  0.00     0.127 HD
HETATM   29  O2  UNL     1      28.632  -1.024  53.844  1.00  0.00    -0.275 OA
ENDBRANCH  24  25
ENDBRANCH   7  23
TORSDOF 5
ENDMDL
MODEL 6
REMARK VINA RESULT:      -8.4      5.632      7.705
REMARK  5 active torsions:
REMARK  status: ('A' for Active; 'I' for Inactive)
REMARK    1  A    between atoms: C2_2  and  O1_3 
REMARK    2  A    between atoms: C2_2  and  C15_19 
REMARK    3  A    between atoms: O1_3  and  C3_4 
REMARK    4  A    between atoms: C8_10  and  C9_11 
REMARK    5  A    between atoms: C10_12  and  C11_13 
REMARK       I    between atoms: C11_13  and  N2_14 
ROOT
HETATM    1  C3  UNL     1      24.767   4.560  50.234  1.00  0.00     0.070 A 
HETATM    2  C4  UNL     1      26.051   4.240  49.769  1.00  0.00     0.039 A 
HETATM    3  C5  UNL     1      26.692   3.079  50.193  1.00  0.00     0.035 A 
HETATM    4  C6  UNL     1      26.102   2.220  51.067  1.00  0.00     0.067 A 
HETATM    5  N1  UNL     1      26.643   1.073  51.534  1.00  0.00    -0.260 NA
HETATM    6  C7  UNL     1      25.943   0.317  52.397  1.00  0.00     0.128 A 
HETATM    7  C8  UNL     1      24.688   0.584  52.881  1.00  0.00    -0.018 A 
HETATM    8  C12 UNL     1      24.113   1.748  52.420  1.00  0.00     0.026 A 
HETATM    9  C13 UNL     1      24.832   2.541  51.524  1.00  0.00    -0.004 A 
HETATM   10  C14 UNL     1      24.181   3.681  51.119  1.00  0.00     0.050 A 
ENDROOT
BRANCH   1  11
HETATM   11  O1  UNL     1      24.359   5.752  49.668  1.00  0.00    -0.344 OA
BRANCH  11  12
HETATM   12  C2  UNL     1      25.109   6.485  48.733  1.00  0.00     0.148 C 
HETATM   13  C1  UNL     1      24.259   6.755  47.558  1.00  0.00     0.042 C 
BRANCH  12  14
HETATM   14  C15 UNL     1      25.717   7.802  49.394  1.00  0.00     0.093 A 
HETATM   15  C16 UNL     1      24.755   8.814  50.267  1.00  0.00     0.128 A 
HETATM   16 CL1  UNL     1      23.268   7.984  50.130  1.00  0.00    -0.103 Cl
HETATM   17  S1  UNL     1      26.212   8.955  49.990  1.00  0.00    -0.155 SA
HETATM   18  C17 UNL     1      27.392   9.045  49.750  1.00  0.00     0.025 A 
HETATM   19  C19 UNL     1      27.410   7.959  49.069  1.00  0.00     0.139 A 
HETATM   20  C18 UNL     1      28.471   9.106  49.519  1.00  0.00     0.210 A 
HETATM   21  F1  UNL     1      29.285   8.351  48.845  1.00  0.00    -0.230 F 
HETATM   22 CL2  UNL     1      27.832   6.419  47.991  1.00  0.00    -0.100 Cl
ENDBRANCH  12  14
ENDBRANCH  11  12
ENDBRANCH   1  11
BRANCH   7  23
HETATM   23  C9  UNL     1      23.989  -0.286  53.818  1.00  0.00     0.018 C 
HETATM   24  C10 UNL     1      22.680  -0.432  53.825  1.00  0.00     0.068 C 
BRANCH  24  25
HETATM   25  C11 UNL     1      22.060  -1.339  54.816  1.00  0.00     0.218 C 
HETATM   26  N2  UNL     1      20.659  -1.525  54.599  1.00  0.00    -0.269 NA
HETATM   27  H10 UNL     1      20.443  -2.554  54.531  1.00  0.00     0.127 HD
HETATM   28  H11 UNL     1      20.499  -2.544  54.540  1.00  0.00     0.127 HD
HETATM   29  O2  UNL     1      22.737  -1.865  55.735  1.00  0.00    -0.275 OA
ENDBRANCH  24  25
ENDBRANCH   7  23
TORSDOF 5
ENDMDL
MODEL 7
REMARK VINA RESULT:      -8.2      4.573      5.844
REMARK  5 active torsions:
REMARK  status: ('A' for Active; 'I' for Inactive)
REMARK    1  A    between atoms: C2_2  and  O1_3 
REMARK    2  A    between atoms: C2_2  and  C15_19 
REMARK    3  A    between atoms: O1_3  and  C3_4 
REMARK    4  A    between atoms: C8_10  and  C9_11 
REMARK    5  A    between atoms: C10_12  and  C11_13 
REMARK       I    between atoms: C11_13  and  N2_14 
ROOT
HETATM    1  C3  UNL     1      23.825   3.317  51.924  1.00  0.00     0.070 A 
HETATM    2  C4  UNL     1      25.031   2.653  52.186  1.00  0.00     0.039 A 
HETATM    3  C5  UNL     1      25.034   1.379  52.749  1.00  0.00     0.035 A 
HETATM    4  C6  UNL     1      23.877   0.738  53.062  1.00  0.00     0.067 A 
HETATM    5  N1  UNL     1      23.778  -0.494  53.608  1.00  0.00    -0.260 NA
HETATM    6  C7  UNL     1      22.563  -1.007  53.865  1.00  0.00     0.128 A 
HETATM    7  C8  UNL     1      21.357  -0.400  53.629  1.00  0.00    -0.018 A 
HETATM    8  C12 UNL     1      21.428   0.858  53.072  1.00  0.00     0.026 A 
HETATM    9  C13 UNL     1      22.686   1.400  52.801  1.00  0.00    -0.004 A 
HETATM   10  C14 UNL     1      22.659   2.657  52.247  1.00  0.00     0.050 A 
ENDROOT
BRANCH   1  11
HETATM   11  O1  UNL     1      24.094   4.554  51.372  1.00  0.00    -0.344 OA
BRANCH  11  12
HETATM   12  C2  UNL     1      24.545   4.756  50.057  1.00  0.00     0.148 C 
HETATM   13  C1  UNL     1      23.463   4.381  49.127  1.00  0.00     0.042 C 
BRANCH  12  14
HETATM   14  C15 UNL     1      25.070   6.247  49.853  1.00  0.00     0.093 A 
HETATM   15  C16 UNL     1      24.132   7.525  50.298  1.00  0.00     0.128 A 
HETATM   16 CL1  UNL     1      22.767   6.687  50.889  1.00  0.00    -0.103 Cl
HETATM   17  S1  UNL     1      25.495   7.560  49.698  1.00  0.00    -0.155 SA
HETATM   18  C17 UNL     1      26.600   7.559  49.210  1.00  0.00     0.025 A 
HETATM   19  C19 UNL     1      26.654   6.280  49.156  1.00  0.00     0.139 A 
HETATM   20  C18 UNL     1      27.611   7.534  48.764  1.00  0.00     0.210 A 
HETATM   21  F1  UNL     1      28.401   6.573  48.393  1.00  0.00    -0.230 F 
HETATM   22 CL2  UNL     1      27.101   4.422  48.904  1.00  0.00    -0.100 Cl
ENDBRANCH  12  14
ENDBRANCH  11  12
ENDBRANCH   1  11
BRANCH   7  23
HETATM   23  C9  UNL     1      20.074  -1.021  53.936  1.00  0.00     0.018 C 
HETATM   24  C10 UNL     1      19.056  -1.020  53.100  1.00  0.00     0.068 C 
BRANCH  24  25
HETATM   25  C11 UNL     1      17.792  -1.676  53.501  1.00  0.00     0.218 C 
HETATM   26  N2  UNL     1      16.655  -0.817  53.371  1.00  0.00    -0.269 NA
HETATM   27  H10 UNL     1      15.920  -1.288  52.780  1.00  0.00     0.127 HD
HETATM   28  H11 UNL     1      15.967  -1.319  52.786  1.00  0.00     0.127 HD
HETATM   29  O2  UNL     1      17.772  -2.865  53.907  1.00  0.00    -0.275 OA
ENDBRANCH  24  25
ENDBRANCH   7  23
TORSDOF 5
ENDMDL
MODEL 8
REMARK VINA RESULT:      -8.1      5.611      8.016
REMARK  5 active torsions:
REMARK  status: ('A' for Active; 'I' for Inactive)
REMARK    1  A    between atoms: C2_2  and  O1_3 
REMARK    2  A    between atoms: C2_2  and  C15_19 
REMARK    3  A    between atoms: O1_3  and  C3_4 
REMARK    4  A    between atoms: C8_10  and  C9_11 
REMARK    5  A    between atoms: C10_12  and  C11_13 
REMARK       I    between atoms: C11_13  and  N2_14 
ROOT
HETATM    1  C3  UNL     1      24.348   3.936  49.448  1.00  0.00     0.070 A 
HETATM    2  C4  UNL     1      25.741   4.068  49.364  1.00  0.00     0.039 A 
HETATM    3  C5  UNL     1      26.579   3.296  50.165  1.00  0.00     0.035 A 
HETATM    4  C6  UNL     1      26.080   2.392  51.051  1.00  0.00     0.067 A 
HETATM    5  N1  UNL     1      26.809   1.600  51.867  1.00  0.00    -0.260 NA
HETATM    6  C7  UNL     1      26.180   0.748  52.695  1.00  0.00     0.128 A 
HETATM    7  C8  UNL     1      24.825   0.581  52.815  1.00  0.00    -0.018 A 
HETATM    8  C12 UNL     1      24.057   1.377  51.993  1.00  0.00     0.026 A 
HETATM    9  C13 UNL     1      24.700   2.266  51.129  1.00  0.00    -0.004 A 
HETATM   10  C14 UNL     1      23.855   3.017  50.349  1.00  0.00     0.050 A 
ENDROOT
BRANCH   1  11
HETATM   11  O1  UNL     1      23.751   4.807  48.557  1.00  0.00    -0.344 OA
BRANCH  11  12
HETATM   12  C2  UNL     1      22.572   5.525  48.817  1.00  0.00     0.148 C 
HETATM   13  C1  UNL     1      22.511   6.676  47.898  1.00  0.00     0.042 C 
BRANCH  12  14
HETATM   14  C15 UNL     1      21.293   4.576  48.734  1.00  0.00     0.093 A 
HETATM   15  C16 UNL     1      20.886   3.855  47.310  1.00  0.00     0.128 A 
HETATM   16 CL1  UNL     1      22.134   4.461  46.314  1.00  0.00    -0.103 Cl
HETATM   17  S1  UNL     1      20.191   3.738  48.623  1.00  0.00    -0.155 SA
HETATM   18  C17 UNL     1      19.649   3.660  49.699  1.00  0.00     0.025 A 
HETATM   19  C19 UNL     1      20.493   4.443  50.262  1.00  0.00     0.139 A 
HETATM   20  C18 UNL     1      19.169   3.604  50.692  1.00  0.00     0.210 A 
HETATM   21  F1  UNL     1      19.434   4.138  51.846  1.00  0.00    -0.230 F 
HETATM   22 CL2  UNL     1      21.529   5.561  51.441  1.00  0.00    -0.100 Cl
ENDBRANCH  12  14
ENDBRANCH  11  12
ENDBRANCH   1  11
BRANCH   7  23
HETATM   23  C9  UNL     1      24.214  -0.365  53.739  1.00  0.00     0.018 C 
HETATM   24  C10 UNL     1      22.922  -0.388  53.996  1.00  0.00     0.068 C 
BRANCH  24  25
HETATM   25  C11 UNL     1      22.393  -1.387  54.950  1.00  0.00     0.218 C 
HETATM   26  N2  UNL     1      23.358  -1.786  55.928  1.00  0.00    -0.269 NA
HETATM   27  H10 UNL     1      22.960  -1.653  56.895  1.00  0.00     0.127 HD
HETATM   28  H11 UNL     1      22.924  -1.638  56.854  1.00  0.00     0.127 HD
HETATM   29  O2  UNL     1      21.213  -1.811  54.867  1.00  0.00    -0.275 OA
ENDBRANCH  24  25
ENDBRANCH   7  23
TORSDOF 5
ENDMDL
MODEL 9
REMARK VINA RESULT:      -8.1      6.271     10.387
REMARK  5 active torsions:
REMARK  status: ('A' for Active; 'I' for Inactive)
REMARK    1  A    between atoms: C2_2  and  O1_3 
REMARK    2  A    between atoms: C2_2  and  C15_19 
REMARK    3  A    between atoms: O1_3  and  C3_4 
REMARK    4  A    between atoms: C8_10  and  C9_11 
REMARK    5  A    between atoms: C10_12  and  C11_13 
REMARK       I    between atoms: C11_13  and  N2_14 
ROOT
HETATM    1  C3  UNL     1      24.209   4.409  49.959  1.00  0.00     0.070 A 
HETATM    2  C4  UNL     1      23.643   5.617  49.527  1.00  0.00     0.039 A 
HETATM    3  C5  UNL     1      24.416   6.570  48.868  1.00  0.00     0.035 A 
HETATM    4  C6  UNL     1      25.738   6.365  48.622  1.00  0.00     0.067 A 
HETATM    5  N1  UNL     1      26.567   7.227  47.992  1.00  0.00    -0.260 NA
HETATM    6  C7  UNL     1      27.857   6.892  47.816  1.00  0.00     0.128 A 
HETATM    7  C8  UNL     1      28.458   5.728  48.218  1.00  0.00    -0.018 A 
HETATM    8  C12 UNL     1      27.635   4.831  48.862  1.00  0.00     0.026 A 
HETATM    9  C13 UNL     1      26.293   5.168  49.052  1.00  0.00    -0.004 A 
HETATM   10  C14 UNL     1      25.550   4.214  49.703  1.00  0.00     0.050 A 
ENDROOT
BRANCH   1  11
HETATM   11  O1  UNL     1      23.240   3.645  50.578  1.00  0.00    -0.344 OA
BRANCH  11  12
HETATM   12  C2  UNL     1      23.331   3.161  51.894  1.00  0.00     0.148 C 
HETATM   13  C1  UNL     1      23.506   4.307  52.805  1.00  0.00     0.042 C 
BRANCH  12  14
HETATM   14  C15 UNL     1      22.076   2.247  52.256  1.00  0.00     0.093 A 
HETATM   15  C16 UNL     1      20.550   2.862  52.175  1.00  0.00     0.128 A 
HETATM   16 CL1  UNL     1      20.909   4.454  51.671  1.00  0.00    -0.103 Cl
HETATM   17  S1  UNL     1      20.957   1.481  52.558  1.00  0.00    -0.155 SA
HETATM   18  C17 UNL     1      21.315   0.369  52.863  1.00  0.00     0.025 A 
HETATM   19  C19 UNL     1      22.556   0.644  52.698  1.00  0.00     0.139 A 
HETATM   20  C18 UNL     1      21.665  -0.642  53.139  1.00  0.00     0.210 A 
HETATM   21  F1  UNL     1      22.840  -1.191  53.222  1.00  0.00    -0.230 F 
HETATM   22 CL2  UNL     1      24.478   0.671  52.572  1.00  0.00    -0.100 Cl
ENDBRANCH  12  14
ENDBRANCH  11  12
ENDBRANCH   1  11
BRANCH   7  23
HETATM   23  C9  UNL     1      29.867   5.434  47.990  1.00  0.00     0.018 C 
HETATM   24  C10 UNL     1      30.840   5.996  48.678  1.00  0.00     0.068 C 
BRANCH  24  25
HETATM   25  C11 UNL     1      32.241   5.634  48.374  1.00  0.00     0.218 C 
HETATM   26  N2  UNL     1      32.512   4.244  48.573  1.00  0.00    -0.269 NA
HETATM   27  H10 UNL     1      32.929   3.833  47.697  1.00  0.00     0.127 HD
HETATM   28  H11 UNL     1      32.917   3.889  47.691  1.00  0.00     0.127 HD
HETATM   29  O2  UNL     1      33.070   6.495  47.984  1.00  0.00    -0.275 OA
ENDBRANCH  24  25
ENDBRANCH   7  23
TORSDOF 5
ENDMDL
