MODEL 1
REMARK VINA RESULT:      -8.0      0.000      0.000
REMARK  6 active torsions:
REMARK  status: ('A' for Active; 'I' for Inactive)
REMARK    1  A    between atoms: N1_2  and  C2_3 
REMARK    2  A    between atoms: C2_3  and  C3_4 
REMARK    3  A    between atoms: C4_5  and  C5_6 
REMARK    4  A    between atoms: C5_6  and  C6_7 
REMARK       I    between atoms: C6_7  and  N2_9 
REMARK    5  A    between atoms: C11_16  and  N5_17 
REMARK    6  A    between atoms: N5_17  and  C12_18 
ROOT
HETATM    1  C6  UNL     1      25.014   3.117  50.434  1.00  0.00     0.238 C 
HETATM    2  O1  UNL     1      23.824   2.714  50.244  1.00  0.00    -0.272 OA
HETATM    3  N2  UNL     1      25.732   2.390  51.410  1.00  0.00    -0.302 N 
HETATM    4  C7  UNL     1      27.061   2.722  51.749  1.00  0.00     0.098 A 
HETATM    5  C8  UNL     1      27.744   2.051  52.639  1.00  0.00     0.023 A 
HETATM    6  C9  UNL     1      27.150   0.911  53.317  1.00  0.00     0.171 A 
HETATM    7  N3  UNL     1      27.435   0.795  54.724  1.00  0.00    -0.269 NA
HETATM    8  C10 UNL     1      26.590   0.033  55.403  1.00  0.00     0.230 C 
HETATM    9  N4  UNL     1      25.444  -0.655  54.918  1.00  0.00    -0.224 NA
HETATM   10  C11 UNL     1      25.070  -0.567  53.665  1.00  0.00     0.139 C 
HETATM   11  C18 UNL     1      25.774   0.567  52.998  1.00  0.00     0.032 A 
HETATM   12  C19 UNL     1      25.164   1.303  52.082  1.00  0.00     0.113 A 
ENDROOT
BRANCH   1  13
HETATM   13  C5  UNL     1      25.069   4.206  49.493  1.00  0.00     0.197 C 
BRANCH  13  14
HETATM   14  C4  UNL     1      26.437   4.589  49.060  1.00  0.00    -0.096 C 
HETATM   15  C3  UNL     1      27.557   4.888  48.692  1.00  0.00    -0.076 C 
BRANCH  15  16
HETATM   16  C2  UNL     1      28.894   5.264  48.231  1.00  0.00     0.362 C 
BRANCH  16  17
HETATM   17  N1  UNL     1      29.241   6.526  48.880  1.00  0.00     0.089 N 
HETATM   18  C1  UNL     1      30.686   6.755  48.778  1.00  0.00     0.307 C 
HETATM   19  H4  UNL     1      28.691   7.300  48.457  1.00  0.00     0.316 HD
ENDBRANCH  16  17
ENDBRANCH  15  16
ENDBRANCH  13  14
ENDBRANCH   1  13
BRANCH  10  20
HETATM   20  N5  UNL     1      24.012  -1.150  52.929  1.00  0.00    -0.340 N 
HETATM   21  H13 UNL     1      24.120  -1.835  52.159  1.00  0.00     0.167 HD
BRANCH  20  22
HETATM   22  C12 UNL     1      22.743  -0.681  53.379  1.00  0.00     0.035 A 
HETATM   23  C13 UNL     1      22.196  -0.579  54.638  1.00  0.00     0.029 A 
HETATM   24  C14 UNL     1      20.926  -0.080  54.781  1.00  0.00     0.004 A 
HETATM   25  C15 UNL     1      20.172   0.326  53.700  1.00  0.00     0.019 A 
HETATM   26  C16 UNL     1      20.700   0.234  52.425  1.00  0.00     0.013 A 
HETATM   27 BR1  UNL     1      19.611   0.810  50.983  1.00  0.00    -0.051 Br
HETATM   28  C17 UNL     1      21.989  -0.272  52.280  1.00  0.00     0.048 A 
ENDBRANCH  20  22
ENDBRANCH  10  20
TORSDOF 6
ENDMDL
MODEL 2
REMARK VINA RESULT:      -7.9      2.997      4.748
REMARK  6 active torsions:
REMARK  status: ('A' for Active; 'I' for Inactive)
REMARK    1  A    between atoms: N1_2  and  C2_3 
REMARK    2  A    between atoms: C2_3  and  C3_4 
REMARK    3  A    between atoms: C4_5  and  C5_6 
REMARK    4  A    between atoms: C5_6  and  C6_7 
REMARK       I    between atoms: C6_7  and  N2_9 
REMARK    5  A    between atoms: C11_16  and  N5_17 
REMARK    6  A    between atoms: N5_17  and  C12_18 
ROOT
HETATM    1  C6  UNL     1      26.829   5.651  49.002  1.00  0.00     0.238 C 
HETATM    2  O1  UNL     1      27.210   4.536  48.526  1.00  0.00    -0.272 OA
HETATM    3  N2  UNL     1      25.737   5.565  49.896  1.00  0.00    -0.302 N 
HETATM    4  C7  UNL     1      25.185   6.715  50.500  1.00  0.00     0.098 A 
HETATM    5  C8  UNL     1      24.186   6.652  51.340  1.00  0.00     0.023 A 
HETATM    6  C9  UNL     1      23.602   5.369  51.696  1.00  0.00     0.171 A 
HETATM    7  N3  UNL     1      22.166   5.336  51.798  1.00  0.00    -0.269 NA
HETATM    8  C10 UNL     1      21.629   4.127  51.710  1.00  0.00     0.230 C 
HETATM    9  N4  UNL     1      22.291   2.885  51.508  1.00  0.00    -0.224 NA
HETATM   10  C11 UNL     1      23.589   2.818  51.347  1.00  0.00     0.139 C 
HETATM   11  C18 UNL     1      24.143   4.174  51.067  1.00  0.00     0.032 A 
HETATM   12  C19 UNL     1      25.157   4.338  50.232  1.00  0.00     0.113 A 
ENDROOT
BRANCH   1  13
HETATM   13  C5  UNL     1      27.760   6.538  48.355  1.00  0.00     0.197 C 
BRANCH  13  14
HETATM   14  C4  UNL     1      29.125   5.984  48.170  1.00  0.00    -0.096 C 
HETATM   15  C3  UNL     1      30.238   5.523  47.998  1.00  0.00    -0.076 C 
BRANCH  15  16
HETATM   16  C2  UNL     1      31.585   4.993  47.782  1.00  0.00     0.362 C 
BRANCH  16  17
HETATM   17  N1  UNL     1      32.336   5.191  49.020  1.00  0.00     0.089 N 
HETATM   18  C1  UNL     1      33.577   5.920  48.735  1.00  0.00     0.307 C 
HETATM   19  H4  UNL     1      31.743   5.685  49.715  1.00  0.00     0.316 HD
ENDBRANCH  16  17
ENDBRANCH  15  16
ENDBRANCH  13  14
ENDBRANCH   1  13
BRANCH  10  20
HETATM   20  N5  UNL     1      24.485   1.739  51.157  1.00  0.00    -0.340 N 
HETATM   21  H13 UNL     1      25.027   1.551  50.294  1.00  0.00     0.167 HD
BRANCH  20  22
HETATM   22  C12 UNL     1      24.564   0.916  52.319  1.00  0.00     0.035 A 
HETATM   23  C13 UNL     1      23.620   0.157  52.973  1.00  0.00     0.029 A 
HETATM   24  C14 UNL     1      23.982  -0.549  54.092  1.00  0.00     0.004 A 
HETATM   25  C15 UNL     1      25.268  -0.526  54.589  1.00  0.00     0.019 A 
HETATM   26  C16 UNL     1      26.234   0.230  53.950  1.00  0.00     0.013 A 
HETATM   27 BR1  UNL     1      27.983   0.217  54.685  1.00  0.00    -0.051 Br
HETATM   28  C17 UNL     1      25.868   0.946  52.814  1.00  0.00     0.048 A 
ENDBRANCH  20  22
ENDBRANCH  10  20
TORSDOF 6
ENDMDL
MODEL 3
REMARK VINA RESULT:      -7.7      4.118      8.316
REMARK  6 active torsions:
REMARK  status: ('A' for Active; 'I' for Inactive)
REMARK    1  A    between atoms: N1_2  and  C2_3 
REMARK    2  A    between atoms: C2_3  and  C3_4 
REMARK    3  A    between atoms: C4_5  and  C5_6 
REMARK    4  A    between atoms: C5_6  and  C6_7 
REMARK       I    between atoms: C6_7  and  N2_9 
REMARK    5  A    between atoms: C11_16  and  N5_17 
REMARK    6  A    between atoms: N5_17  and  C12_18 
ROOT
HETATM    1  C6  UNL     1      23.634   2.298  52.638  1.00  0.00     0.238 C 
HETATM    2  O1  UNL     1      24.588   2.755  53.341  1.00  0.00    -0.272 OA
HETATM    3  N2  UNL     1      23.047   3.240  51.762  1.00  0.00    -0.302 N 
HETATM    4  C7  UNL     1      21.965   2.895  50.924  1.00  0.00     0.098 A 
HETATM    5  C8  UNL     1      21.421   3.749  50.098  1.00  0.00     0.023 A 
HETATM    6  C9  UNL     1      21.926   5.109  50.005  1.00  0.00     0.171 A 
HETATM    7  N3  UNL     1      20.933   6.145  49.886  1.00  0.00    -0.269 NA
HETATM    8  C10 UNL     1      21.352   7.359  50.214  1.00  0.00     0.230 C 
HETATM    9  N4  UNL     1      22.637   7.748  50.680  1.00  0.00    -0.224 NA
HETATM   10  C11 UNL     1      23.590   6.871  50.875  1.00  0.00     0.139 C 
HETATM   11  C18 UNL     1      23.026   5.491  50.877  1.00  0.00     0.032 A 
HETATM   12  C19 UNL     1      23.513   4.555  51.678  1.00  0.00     0.113 A 
ENDROOT
BRANCH   1  13
HETATM   13  C5  UNL     1      23.601   0.936  53.103  1.00  0.00     0.197 C 
BRANCH  13  14
HETATM   14  C4  UNL     1      24.890   0.208  52.996  1.00  0.00    -0.096 C 
HETATM   15  C3  UNL     1      25.957  -0.371  52.912  1.00  0.00    -0.076 C 
BRANCH  15  16
HETATM   16  C2  UNL     1      27.239  -1.073  52.838  1.00  0.00     0.362 C 
BRANCH  16  17
HETATM   17  N1  UNL     1      27.977  -0.767  54.062  1.00  0.00     0.089 N 
HETATM   18  C1  UNL     1      29.403  -0.614  53.755  1.00  0.00     0.307 C 
HETATM   19  H4  UNL     1      27.579   0.083  54.508  1.00  0.00     0.316 HD
ENDBRANCH  16  17
ENDBRANCH  15  16
ENDBRANCH  13  14
ENDBRANCH   1  13
BRANCH  10  20
HETATM   20  N5  UNL     1      24.936   6.984  51.300  1.00  0.00    -0.340 N 
HETATM   21  H13 UNL     1      25.254   7.036  52.285  1.00  0.00     0.167 HD
BRANCH  20  22
HETATM   22  C12 UNL     1      25.832   7.015  50.191  1.00  0.00     0.035 A 
HETATM   23  C13 UNL     1      26.153   6.070  49.243  1.00  0.00     0.029 A 
HETATM   24  C14 UNL     1      27.068   6.378  48.269  1.00  0.00     0.004 A 
HETATM   25  C15 UNL     1      27.683   7.611  48.205  1.00  0.00     0.019 A 
HETATM   26  C16 UNL     1      27.377   8.577  49.146  1.00  0.00     0.013 A 
HETATM   27 BR1  UNL     1      28.258  10.251  49.000  1.00  0.00    -0.051 Br
HETATM   28  C17 UNL     1      26.447   8.265  50.135  1.00  0.00     0.048 A 
ENDBRANCH  20  22
ENDBRANCH  10  20
TORSDOF 6
ENDMDL
MODEL 4
REMARK VINA RESULT:      -7.7      3.402      6.189
REMARK  6 active torsions:
REMARK  status: ('A' for Active; 'I' for Inactive)
REMARK    1  A    between atoms: N1_2  and  C2_3 
REMARK    2  A    between atoms: C2_3  and  C3_4 
REMARK    3  A    between atoms: C4_5  and  C5_6 
REMARK    4  A    between atoms: C5_6  and  C6_7 
REMARK       I    between atoms: C6_7  and  N2_9 
REMARK    5  A    between atoms: C11_16  and  N5_17 
REMARK    6  A    between atoms: N5_17  and  C12_18 
ROOT
HETATM    1  C6  UNL     1      29.568   6.139  47.865  1.00  0.00     0.238 C 
HETATM    2  O1  UNL     1      30.134   5.108  48.345  1.00  0.00    -0.272 OA
HETATM    3  N2  UNL     1      28.180   6.221  48.122  1.00  0.00    -0.302 N 
HETATM    4  C7  UNL     1      27.402   7.297  47.645  1.00  0.00     0.098 A 
HETATM    5  C8  UNL     1      26.122   7.396  47.887  1.00  0.00     0.023 A 
HETATM    6  C9  UNL     1      25.442   6.386  48.681  1.00  0.00     0.171 A 
HETATM    7  N3  UNL     1      24.135   5.995  48.220  1.00  0.00    -0.269 NA
HETATM    8  C10 UNL     1      23.710   4.825  48.675  1.00  0.00     0.230 C 
HETATM    9  N4  UNL     1      24.390   3.917  49.532  1.00  0.00    -0.224 NA
HETATM   10  C11 UNL     1      25.605   4.156  49.960  1.00  0.00     0.139 C 
HETATM   11  C18 UNL     1      26.221   5.257  49.164  1.00  0.00     0.032 A 
HETATM   12  C19 UNL     1      27.513   5.246  48.870  1.00  0.00     0.113 A 
ENDROOT
BRANCH   1  13
HETATM   13  C5  UNL     1      30.693   6.781  47.238  1.00  0.00     0.197 C 
BRANCH  13  14
HETATM   14  C4  UNL     1      31.958   6.005  47.279  1.00  0.00    -0.096 C 
HETATM   15  C3  UNL     1      33.002   5.383  47.327  1.00  0.00    -0.076 C 
BRANCH  15  16
HETATM   16  C2  UNL     1      34.249   4.619  47.403  1.00  0.00     0.362 C 
BRANCH  16  17
HETATM   17  N1  UNL     1      34.791   4.800  48.748  1.00  0.00     0.089 N 
HETATM   18  C1  UNL     1      35.411   6.125  48.857  1.00  0.00     0.307 C 
HETATM   19  H4  UNL     1      34.038   4.661  49.451  1.00  0.00     0.316 HD
ENDBRANCH  16  17
ENDBRANCH  15  16
ENDBRANCH  13  14
ENDBRANCH   1  13
BRANCH  10  20
HETATM   20  N5  UNL     1      26.484   3.454  50.818  1.00  0.00    -0.340 N 
HETATM   21  H13 UNL     1      27.514   3.562  50.845  1.00  0.00     0.167 HD
BRANCH  20  22
HETATM   22  C12 UNL     1      25.774   2.557  51.670  1.00  0.00     0.035 A 
HETATM   23  C13 UNL     1      24.625   2.712  52.412  1.00  0.00     0.029 A 
HETATM   24  C14 UNL     1      24.158   1.658  53.157  1.00  0.00     0.004 A 
HETATM   25  C15 UNL     1      24.805   0.441  53.188  1.00  0.00     0.019 A 
HETATM   26  C16 UNL     1      25.961   0.261  52.451  1.00  0.00     0.013 A 
HETATM   27 BR1  UNL     1      26.799  -1.438  52.539  1.00  0.00    -0.051 Br
HETATM   28  C17 UNL     1      26.435   1.329  51.695  1.00  0.00     0.048 A 
ENDBRANCH  20  22
ENDBRANCH  10  20
TORSDOF 6
ENDMDL
MODEL 5
REMARK VINA RESULT:      -7.6      3.314      5.455
REMARK  6 active torsions:
REMARK  status: ('A' for Active; 'I' for Inactive)
REMARK    1  A    between atoms: N1_2  and  C2_3 
REMARK    2  A    between atoms: C2_3  and  C3_4 
REMARK    3  A    between atoms: C4_5  and  C5_6 
REMARK    4  A    between atoms: C5_6  and  C6_7 
REMARK       I    between atoms: C6_7  and  N2_9 
REMARK    5  A    between atoms: C11_16  and  N5_17 
REMARK    6  A    between atoms: N5_17  and  C12_18 
ROOT
HETATM    1  C6  UNL     1      27.551   5.691  48.703  1.00  0.00     0.238 C 
HETATM    2  O1  UNL     1      27.610   4.433  48.870  1.00  0.00    -0.272 OA
HETATM    3  N2  UNL     1      26.444   6.314  49.324  1.00  0.00    -0.302 N 
HETATM    4  C7  UNL     1      26.226   7.704  49.223  1.00  0.00     0.098 A 
HETATM    5  C8  UNL     1      25.217   8.299  49.803  1.00  0.00     0.023 A 
HETATM    6  C9  UNL     1      24.270   7.534  50.598  1.00  0.00     0.171 A 
HETATM    7  N3  UNL     1      22.883   7.892  50.445  1.00  0.00    -0.269 NA
HETATM    8  C10 UNL     1      22.022   6.961  50.827  1.00  0.00     0.230 C 
HETATM    9  N4  UNL     1      22.300   5.665  51.341  1.00  0.00    -0.224 NA
HETATM   10  C11 UNL     1      23.528   5.225  51.464  1.00  0.00     0.139 C 
HETATM   11  C18 UNL     1      24.465   6.096  50.697  1.00  0.00     0.032 A 
HETATM   12  C19 UNL     1      25.518   5.586  50.077  1.00  0.00     0.113 A 
ENDROOT
BRANCH   1  13
HETATM   13  C5  UNL     1      28.727   5.900  47.900  1.00  0.00     0.197 C 
BRANCH  13  14
HETATM   14  C4  UNL     1      29.651   6.947  48.405  1.00  0.00    -0.096 C 
HETATM   15  C3  UNL     1      30.397   7.819  48.809  1.00  0.00    -0.076 C 
BRANCH  15  16
HETATM   16  C2  UNL     1      31.279   8.871  49.317  1.00  0.00     0.362 C 
BRANCH  16  17
HETATM   17  N1  UNL     1      30.439   9.856  49.995  1.00  0.00     0.089 N 
HETATM   18  C1  UNL     1      29.727  10.667  49.001  1.00  0.00     0.307 C 
HETATM   19  H4  UNL     1      29.789   9.373  50.646  1.00  0.00     0.316 HD
ENDBRANCH  16  17
ENDBRANCH  15  16
ENDBRANCH  13  14
ENDBRANCH   1  13
BRANCH  10  20
HETATM   20  N5  UNL     1      24.078   4.017  51.956  1.00  0.00    -0.340 N 
HETATM   21  H13 UNL     1      24.930   3.937  52.540  1.00  0.00     0.167 HD
BRANCH  20  22
HETATM   22  C12 UNL     1      23.305   2.889  51.550  1.00  0.00     0.035 A 
HETATM   23  C13 UNL     1      22.914   2.444  50.307  1.00  0.00     0.029 A 
HETATM   24  C14 UNL     1      22.158   1.304  50.209  1.00  0.00     0.004 A 
HETATM   25  C15 UNL     1      21.773   0.582  51.319  1.00  0.00     0.019 A 
HETATM   26  C16 UNL     1      22.154   1.009  52.578  1.00  0.00     0.013 A 
HETATM   27 BR1  UNL     1      21.591  -0.030  54.061  1.00  0.00    -0.051 Br
HETATM   28  C17 UNL     1      22.922   2.166  52.678  1.00  0.00     0.048 A 
ENDBRANCH  20  22
ENDBRANCH  10  20
TORSDOF 6
ENDMDL
MODEL 6
REMARK VINA RESULT:      -7.5      4.561     10.576
REMARK  6 active torsions:
REMARK  status: ('A' for Active; 'I' for Inactive)
REMARK    1  A    between atoms: N1_2  and  C2_3 
REMARK    2  A    between atoms: C2_3  and  C3_4 
REMARK    3  A    between atoms: C4_5  and  C5_6 
REMARK    4  A    between atoms: C5_6  and  C6_7 
REMARK       I    between atoms: C6_7  and  N2_9 
REMARK    5  A    between atoms: C11_16  and  N5_17 
REMARK    6  A    between atoms: N5_17  and  C12_18 
ROOT
HETATM    1  C6  UNL     1      27.084   5.308  48.795  1.00  0.00     0.238 C 
HETATM    2  O1  UNL     1      27.430   4.097  48.962  1.00  0.00    -0.272 OA
HETATM    3  N2  UNL     1      28.149   6.188  48.495  1.00  0.00    -0.302 N 
HETATM    4  C7  UNL     1      27.934   7.568  48.295  1.00  0.00     0.098 A 
HETATM    5  C8  UNL     1      28.904   8.393  48.003  1.00  0.00     0.023 A 
HETATM    6  C9  UNL     1      30.267   7.905  47.861  1.00  0.00     0.171 A 
HETATM    7  N3  UNL     1      31.297   8.739  48.423  1.00  0.00    -0.269 NA
HETATM    8  C10 UNL     1      32.446   8.123  48.659  1.00  0.00     0.230 C 
HETATM    9  N4  UNL     1      32.768   6.754  48.446  1.00  0.00    -0.224 NA
HETATM   10  C11 UNL     1      31.882   5.904  47.991  1.00  0.00     0.139 C 
HETATM   11  C18 UNL     1      30.514   6.489  48.084  1.00  0.00     0.032 A 
HETATM   12  C19 UNL     1      29.466   5.733  48.373  1.00  0.00     0.113 A 
ENDROOT
BRANCH   1  13
HETATM   13  C5  UNL     1      25.664   5.200  49.007  1.00  0.00     0.197 C 
BRANCH  13  14
HETATM   14  C4  UNL     1      25.266   4.336  50.146  1.00  0.00    -0.096 C 
HETATM   15  C3  UNL     1      24.928   3.643  51.087  1.00  0.00    -0.076 C 
BRANCH  15  16
HETATM   16  C2  UNL     1      24.501   2.799  52.205  1.00  0.00     0.362 C 
BRANCH  16  17
HETATM   17  N1  UNL     1      25.633   2.682  53.121  1.00  0.00     0.089 N 
HETATM   18  C1  UNL     1      26.682   1.859  52.510  1.00  0.00     0.307 C 
HETATM   19  H4  UNL     1      25.977   3.629  53.377  1.00  0.00     0.316 HD
ENDBRANCH  16  17
ENDBRANCH  15  16
ENDBRANCH  13  14
ENDBRANCH   1  13
BRANCH  10  20
HETATM   20  N5  UNL     1      31.939   4.526  47.672  1.00  0.00    -0.340 N 
HETATM   21  H13 UNL     1      31.246   3.812  47.961  1.00  0.00     0.167 HD
BRANCH  20  22
HETATM   22  C12 UNL     1      33.086   4.221  46.881  1.00  0.00     0.035 A 
HETATM   23  C13 UNL     1      34.278   3.608  47.193  1.00  0.00     0.029 A 
HETATM   24  C14 UNL     1      35.225   3.441  46.214  1.00  0.00     0.004 A 
HETATM   25  C15 UNL     1      35.022   3.870  44.919  1.00  0.00     0.019 A 
HETATM   26  C16 UNL     1      33.832   4.489  44.582  1.00  0.00     0.013 A 
HETATM   27 BR1  UNL     1      33.619   5.054  42.784  1.00  0.00    -0.051 Br
HETATM   28  C17 UNL     1      32.872   4.658  45.575  1.00  0.00     0.048 A 
ENDBRANCH  20  22
ENDBRANCH  10  20
TORSDOF 6
ENDMDL
MODEL 7
REMARK VINA RESULT:      -7.5      2.966      5.040
REMARK  6 active torsions:
REMARK  status: ('A' for Active; 'I' for Inactive)
REMARK    1  A    between atoms: N1_2  and  C2_3 
REMARK    2  A    between atoms: C2_3  and  C3_4 
REMARK    3  A    between atoms: C4_5  and  C5_6 
REMARK    4  A    between atoms: C5_6  and  C6_7 
REMARK       I    between atoms: C6_7  and  N2_9 
REMARK    5  A    between atoms: C11_16  and  N5_17 
REMARK    6  A    between atoms: N5_17  and  C12_18 
ROOT
HETATM    1  C6  UNL     1      25.049   2.120  51.490  1.00  0.00     0.238 C 
HETATM    2  O1  UNL     1      24.385   2.950  50.796  1.00  0.00    -0.272 OA
HETATM    3  N2  UNL     1      24.271   1.115  52.109  1.00  0.00    -0.302 N 
HETATM    4  C7  UNL     1      24.856   0.125  52.926  1.00  0.00     0.098 A 
HETATM    5  C8  UNL     1      24.154  -0.820  53.492  1.00  0.00     0.023 A 
HETATM    6  C9  UNL     1      22.716  -0.891  53.289  1.00  0.00     0.171 A 
HETATM    7  N3  UNL     1      21.930  -1.223  54.449  1.00  0.00    -0.269 NA
HETATM    8  C10 UNL     1      20.650  -0.888  54.370  1.00  0.00     0.230 C 
HETATM    9  N4  UNL     1      19.979  -0.232  53.302  1.00  0.00    -0.224 NA
HETATM   10  C11 UNL     1      20.618   0.161  52.228  1.00  0.00     0.139 C 
HETATM   11  C18 UNL     1      22.090   0.133  52.468  1.00  0.00     0.032 A 
HETATM   12  C19 UNL     1      22.885   1.048  51.934  1.00  0.00     0.113 A 
ENDROOT
BRANCH   1  13
HETATM   13  C5  UNL     1      26.380   2.636  51.304  1.00  0.00     0.197 C 
BRANCH  13  14
HETATM   14  C4  UNL     1      27.359   2.231  52.344  1.00  0.00    -0.096 C 
HETATM   15  C3  UNL     1      28.177   1.898  53.181  1.00  0.00    -0.076 C 
BRANCH  15  16
HETATM   16  C2  UNL     1      29.165   1.523  54.194  1.00  0.00     0.362 C 
BRANCH  16  17
HETATM   17  N1  UNL     1      30.143   0.651  53.548  1.00  0.00     0.089 N 
HETATM   18  C1  UNL     1      29.737  -0.750  53.703  1.00  0.00     0.307 C 
HETATM   19  H4  UNL     1      30.248   0.920  52.550  1.00  0.00     0.316 HD
ENDBRANCH  16  17
ENDBRANCH  15  16
ENDBRANCH  13  14
ENDBRANCH   1  13
BRANCH  10  20
HETATM   20  N5  UNL     1      20.203   0.799  51.035  1.00  0.00    -0.340 N 
HETATM   21  H13 UNL     1      20.833   1.179  50.305  1.00  0.00     0.167 HD
BRANCH  20  22
HETATM   22  C12 UNL     1      18.781   0.859  50.943  1.00  0.00     0.035 A 
HETATM   23  C13 UNL     1      17.845  -0.081  50.573  1.00  0.00     0.029 A 
HETATM   24  C14 UNL     1      16.515   0.258  50.576  1.00  0.00     0.004 A 
HETATM   25  C15 UNL     1      16.081   1.515  50.940  1.00  0.00     0.019 A 
HETATM   26  C16 UNL     1      17.002   2.475  51.316  1.00  0.00     0.013 A 
HETATM   27 BR1  UNL     1      16.336   4.183  51.805  1.00  0.00    -0.051 Br
HETATM   28  C17 UNL     1      18.351   2.132  51.313  1.00  0.00     0.048 A 
ENDBRANCH  20  22
ENDBRANCH  10  20
TORSDOF 6
ENDMDL
MODEL 8
REMARK VINA RESULT:      -7.5      3.115      6.852
REMARK  6 active torsions:
REMARK  status: ('A' for Active; 'I' for Inactive)
REMARK    1  A    between atoms: N1_2  and  C2_3 
REMARK    2  A    between atoms: C2_3  and  C3_4 
REMARK    3  A    between atoms: C4_5  and  C5_6 
REMARK    4  A    between atoms: C5_6  and  C6_7 
REMARK       I    between atoms: C6_7  and  N2_9 
REMARK    5  A    between atoms: C11_16  and  N5_17 
REMARK    6  A    between atoms: N5_17  and  C12_18 
ROOT
HETATM    1  C6  UNL     1      24.302   0.194  53.082  1.00  0.00     0.238 C 
HETATM    2  O1  UNL     1      25.228   0.514  52.274  1.00  0.00    -0.272 OA
HETATM    3  N2  UNL     1      23.045   0.771  52.792  1.00  0.00    -0.302 N 
HETATM    4  C7  UNL     1      21.915   0.528  53.603  1.00  0.00     0.098 A 
HETATM    5  C8  UNL     1      20.742   1.040  53.341  1.00  0.00     0.023 A 
HETATM    6  C9  UNL     1      20.554   1.890  52.176  1.00  0.00     0.171 A 
HETATM    7  N3  UNL     1      19.718   3.047  52.368  1.00  0.00    -0.269 NA
HETATM    8  C10 UNL     1      19.880   4.006  51.468  1.00  0.00     0.230 C 
HETATM    9  N4  UNL     1      20.780   4.035  50.368  1.00  0.00    -0.224 NA
HETATM   10  C11 UNL     1      21.620   3.055  50.143  1.00  0.00     0.139 C 
HETATM   11  C18 UNL     1      21.710   2.171  51.340  1.00  0.00     0.032 A 
HETATM   12  C19 UNL     1      22.856   1.603  51.685  1.00  0.00     0.113 A 
ENDROOT
BRANCH   1  13
HETATM   13  C5  UNL     1      25.028  -0.668  53.977  1.00  0.00     0.197 C 
BRANCH  13  14
HETATM   14  C4  UNL     1      26.432  -0.259  54.238  1.00  0.00    -0.096 C 
HETATM   15  C3  UNL     1      27.581   0.065  54.469  1.00  0.00    -0.076 C 
BRANCH  15  16
HETATM   16  C2  UNL     1      28.973   0.434  54.733  1.00  0.00     0.362 C 
BRANCH  16  17
HETATM   17  N1  UNL     1      29.427   1.255  53.612  1.00  0.00     0.089 N 
HETATM   18  C1  UNL     1      28.679   2.517  53.588  1.00  0.00     0.307 C 
HETATM   19  H4  UNL     1      30.453   1.409  53.683  1.00  0.00     0.316 HD
ENDBRANCH  16  17
ENDBRANCH  15  16
ENDBRANCH  13  14
ENDBRANCH   1  13
BRANCH  10  20
HETATM   20  N5  UNL     1      22.584   2.821  49.134  1.00  0.00    -0.340 N 
HETATM   21  H13 UNL     1      22.591   2.015  48.483  1.00  0.00     0.167 HD
BRANCH  20  22
HETATM   22  C12 UNL     1      23.572   3.849  49.108  1.00  0.00     0.035 A 
HETATM   23  C13 UNL     1      24.802   3.956  49.718  1.00  0.00     0.029 A 
HETATM   24  C14 UNL     1      25.559   5.082  49.512  1.00  0.00     0.004 A 
HETATM   25  C15 UNL     1      25.128   6.117  48.710  1.00  0.00     0.019 A 
HETATM   26  C16 UNL     1      23.897   6.033  48.087  1.00  0.00     0.013 A 
HETATM   27 BR1  UNL     1      23.366   7.492  46.997  1.00  0.00    -0.051 Br
HETATM   28  C17 UNL     1      23.129   4.891  48.294  1.00  0.00     0.048 A 
ENDBRANCH  20  22
ENDBRANCH  10  20
TORSDOF 6
ENDMDL
MODEL 9
REMARK VINA RESULT:      -7.5      3.644      8.388
REMARK  6 active torsions:
REMARK  status: ('A' for Active; 'I' for Inactive)
REMARK    1  A    between atoms: N1_2  and  C2_3 
REMARK    2  A    between atoms: C2_3  and  C3_4 
REMARK    3  A    between atoms: C4_5  and  C5_6 
REMARK    4  A    between atoms: C5_6  and  C6_7 
REMARK       I    between atoms: C6_7  and  N2_9 
REMARK    5  A    between atoms: C11_16  and  N5_17 
REMARK    6  A    between atoms: N5_17  and  C12_18 
ROOT
HETATM    1  C6  UNL     1      22.368   1.507  51.688  1.00  0.00     0.238 C 
HETATM    2  O1  UNL     1      22.806   2.317  52.563  1.00  0.00    -0.272 OA
HETATM    3  N2  UNL     1      22.419   1.991  50.361  1.00  0.00    -0.302 N 
HETATM    4  C7  UNL     1      21.957   1.219  49.274  1.00  0.00     0.098 A 
HETATM    5  C8  UNL     1      22.011   1.645  48.040  1.00  0.00     0.023 A 
HETATM    6  C9  UNL     1      22.570   2.953  47.736  1.00  0.00     0.171 A 
HETATM    7  N3  UNL     1      21.873   3.720  46.736  1.00  0.00    -0.269 NA
HETATM    8  C10 UNL     1      22.119   5.022  46.761  1.00  0.00     0.230 C 
HETATM    9  N4  UNL     1      22.958   5.740  47.656  1.00  0.00    -0.224 NA
HETATM   10  C11 UNL     1      23.590   5.140  48.634  1.00  0.00     0.139 C 
HETATM   11  C18 UNL     1      23.031   3.774  48.845  1.00  0.00     0.032 A 
HETATM   12  C19 UNL     1      22.938   3.254  50.059  1.00  0.00     0.113 A 
ENDROOT
BRANCH   1  13
HETATM   13  C5  UNL     1      21.999   0.397  52.527  1.00  0.00     0.197 C 
BRANCH  13  14
HETATM   14  C4  UNL     1      23.077  -0.096  53.421  1.00  0.00    -0.096 C 
HETATM   15  C3  UNL     1      23.954  -0.520  54.150  1.00  0.00    -0.076 C 
BRANCH  15  16
HETATM   16  C2  UNL     1      25.026  -1.030  55.007  1.00  0.00     0.362 C 
BRANCH  16  17
HETATM   17  N1  UNL     1      26.284  -0.857  54.283  1.00  0.00     0.089 N 
HETATM   18  C1  UNL     1      26.759   0.521  54.439  1.00  0.00     0.307 C 
HETATM   19  H4  UNL     1      26.979  -1.553  54.618  1.00  0.00     0.316 HD
ENDBRANCH  16  17
ENDBRANCH  15  16
ENDBRANCH  13  14
ENDBRANCH   1  13
BRANCH  10  20
HETATM   20  N5  UNL     1      24.485   5.597  49.631  1.00  0.00    -0.340 N 
HETATM   21  H13 UNL     1      24.220   5.892  50.588  1.00  0.00     0.167 HD
BRANCH  20  22
HETATM   22  C12 UNL     1      25.831   5.603  49.160  1.00  0.00     0.035 A 
HETATM   23  C13 UNL     1      26.767   4.601  49.045  1.00  0.00     0.029 A 
HETATM   24  C14 UNL     1      28.012   4.897  48.548  1.00  0.00     0.004 A 
HETATM   25  C15 UNL     1      28.360   6.173  48.158  1.00  0.00     0.019 A 
HETATM   26  C16 UNL     1      27.436   7.197  48.265  1.00  0.00     0.013 A 
HETATM   27 BR1  UNL     1      27.980   8.927  47.710  1.00  0.00    -0.051 Br
HETATM   28  C17 UNL     1      26.173   6.897  48.768  1.00  0.00     0.048 A 
ENDBRANCH  20  22
ENDBRANCH  10  20
TORSDOF 6
ENDMDL
