MODEL 1
REMARK VINA RESULT:      -8.7      0.000      0.000
REMARK  5 active torsions:
REMARK  status: ('A' for Active; 'I' for Inactive)
REMARK    1  A    between atoms: N1_1  and  C1_2 
REMARK    2  A    between atoms: N2_5  and  C4_6 
REMARK    3  A    between atoms: C4_6  and  C5_7 
REMARK    4  A    between atoms: C9_14  and  N6_15 
REMARK    5  A    between atoms: N6_15  and  C10_16 
ROOT
HETATM    1  C5  UNL     1      21.541   0.448  51.990  1.00  0.00     0.004 A 
HETATM    2  C6  UNL     1      20.189   0.203  52.281  1.00  0.00     0.030 A 
HETATM    3  C7  UNL     1      20.049  -0.495  53.465  1.00  0.00     0.119 A 
HETATM    4  N3  UNL     1      21.308  -0.678  53.898  1.00  0.00    -0.240 N 
HETATM    5  N4  UNL     1      21.659  -1.304  55.011  1.00  0.00    -0.161 NA
HETATM    6  C8  UNL     1      22.970  -1.406  55.315  1.00  0.00     0.258 A 
HETATM    7  N5  UNL     1      23.883  -0.874  54.488  1.00  0.00    -0.220 NA
HETATM    8  C9  UNL     1      23.528  -0.246  53.372  1.00  0.00     0.159 A 
HETATM    9  C16 UNL     1      22.198  -0.134  53.049  1.00  0.00     0.112 A 
ENDROOT
BRANCH   1  10
HETATM   10  C4  UNL     1      22.056   1.157  50.827  1.00  0.00     0.313 C 
BRANCH  10  11
HETATM   11  N2  UNL     1      21.786   2.565  50.770  1.00  0.00     0.092 N 
HETATM   12  C3  UNL     1      22.597   3.178  49.741  1.00  0.00     0.275 C 
HETATM   13  C2  UNL     1      22.965   4.601  50.085  1.00  0.00     0.065 C 
HETATM   14  C1  UNL     1      23.857   4.613  51.288  1.00  0.00     0.221 C 
HETATM   15  C18 UNL     1      23.413   3.525  52.241  1.00  0.00     0.065 C 
HETATM   16  C17 UNL     1      21.956   3.266  52.000  1.00  0.00     0.275 C 
BRANCH  14  17
HETATM   17  N1  UNL     1      25.229   4.424  50.860  1.00  0.00     0.083 N 
HETATM   18  H1  UNL     1      25.227   4.316  49.830  1.00  0.00     0.313 HD
HETATM   19  H2  UNL     1      25.747   5.300  51.092  1.00  0.00     0.313 HD
ENDBRANCH  14  17
ENDBRANCH  10  11
ENDBRANCH   1  10
BRANCH   8  20
HETATM   20  N6  UNL     1      24.549   0.288  52.546  1.00  0.00    -0.339 N 
HETATM   21  H13 UNL     1      24.591   0.840  51.673  1.00  0.00     0.167 HD
BRANCH  20  22
HETATM   22  C10 UNL     1      25.934   0.118  52.850  1.00  0.00     0.036 A 
HETATM   23  C11 UNL     1      26.669  -1.054  52.838  1.00  0.00     0.053 A 
HETATM   24  C12 UNL     1      28.008  -1.185  53.116  1.00  0.00     0.037 A 
HETATM   25 CL1  UNL     1      28.735  -2.793  53.039  1.00  0.00    -0.084 Cl
HETATM   26  C13 UNL     1      28.713  -0.053  53.442  1.00  0.00     0.048 A 
HETATM   27  C14 UNL     1      28.060   1.159  53.478  1.00  0.00     0.037 A 
HETATM   28 CL2  UNL     1      29.051   2.539  53.902  1.00  0.00    -0.084 Cl
HETATM   29  C15 UNL     1      26.713   1.228  53.189  1.00  0.00     0.053 A 
ENDBRANCH  20  22
ENDBRANCH   8  20
TORSDOF 5
ENDMDL
MODEL 2
REMARK VINA RESULT:      -8.5      3.018      5.939
REMARK  5 active torsions:
REMARK  status: ('A' for Active; 'I' for Inactive)
REMARK    1  A    between atoms: N1_1  and  C1_2 
REMARK    2  A    between atoms: N2_5  and  C4_6 
REMARK    3  A    between atoms: C4_6  and  C5_7 
REMARK    4  A    between atoms: C9_14  and  N6_15 
REMARK    5  A    between atoms: N6_15  and  C10_16 
ROOT
HETATM    1  C5  UNL     1      23.896   0.612  53.161  1.00  0.00     0.004 A 
HETATM    2  C6  UNL     1      22.979  -0.357  53.599  1.00  0.00     0.030 A 
HETATM    3  C7  UNL     1      21.928  -0.490  52.714  1.00  0.00     0.119 A 
HETATM    4  N3  UNL     1      22.197   0.393  51.737  1.00  0.00    -0.240 N 
HETATM    5  N4  UNL     1      21.453   0.609  50.664  1.00  0.00    -0.161 NA
HETATM    6  C8  UNL     1      21.858   1.531  49.765  1.00  0.00     0.258 A 
HETATM    7  N5  UNL     1      22.999   2.203  49.978  1.00  0.00    -0.220 NA
HETATM    8  C9  UNL     1      23.744   1.985  51.055  1.00  0.00     0.159 A 
HETATM    9  C16 UNL     1      23.345   1.050  51.979  1.00  0.00     0.112 A 
ENDROOT
BRANCH   1  10
HETATM   10  C4  UNL     1      25.120   1.010  53.843  1.00  0.00     0.313 C 
BRANCH  10  11
HETATM   11  N2  UNL     1      26.231   0.109  53.732  1.00  0.00     0.092 N 
HETATM   12  C3  UNL     1      27.057   0.201  54.916  1.00  0.00     0.275 C 
HETATM   13  C2  UNL     1      28.512  -0.058  54.611  1.00  0.00     0.065 C 
HETATM   14  C1  UNL     1      29.042   1.030  53.729  1.00  0.00     0.221 C 
HETATM   15  C18 UNL     1      27.962   1.444  52.754  1.00  0.00     0.065 C 
HETATM   16  C17 UNL     1      27.037   0.279  52.568  1.00  0.00     0.275 C 
BRANCH  14  17
HETATM   17  N1  UNL     1      29.474   2.140  54.555  1.00  0.00     0.083 N 
HETATM   18  H1  UNL     1      29.583   1.790  55.523  1.00  0.00     0.313 HD
HETATM   19  H2  UNL     1      30.414   2.433  54.210  1.00  0.00     0.313 HD
ENDBRANCH  14  17
ENDBRANCH  10  11
ENDBRANCH   1  10
BRANCH   8  20
HETATM   20  N6  UNL     1      24.937   2.736  51.214  1.00  0.00    -0.339 N 
HETATM   21  H13 UNL     1      25.750   2.720  51.852  1.00  0.00     0.167 HD
BRANCH  20  22
HETATM   22  C10 UNL     1      25.259   3.831  50.357  1.00  0.00     0.036 A 
HETATM   23  C11 UNL     1      24.457   4.901  50.005  1.00  0.00     0.053 A 
HETATM   24  C12 UNL     1      24.802   5.954  49.193  1.00  0.00     0.037 A 
HETATM   25 CL1  UNL     1      23.602   7.213  48.882  1.00  0.00    -0.084 Cl
HETATM   26  C13 UNL     1      26.067   5.970  48.660  1.00  0.00     0.048 A 
HETATM   27  C14 UNL     1      26.935   4.942  48.957  1.00  0.00     0.037 A 
HETATM   28 CL2  UNL     1      28.523   5.060  48.230  1.00  0.00    -0.084 Cl
HETATM   29  C15 UNL     1      26.531   3.912  49.780  1.00  0.00     0.053 A 
ENDBRANCH  20  22
ENDBRANCH   8  20
TORSDOF 5
ENDMDL
MODEL 3
REMARK VINA RESULT:      -8.3      1.495      5.225
REMARK  5 active torsions:
REMARK  status: ('A' for Active; 'I' for Inactive)
REMARK    1  A    between atoms: N1_1  and  C1_2 
REMARK    2  A    between atoms: N2_5  and  C4_6 
REMARK    3  A    between atoms: C4_6  and  C5_7 
REMARK    4  A    between atoms: C9_14  and  N6_15 
REMARK    5  A    between atoms: N6_15  and  C10_16 
ROOT
HETATM    1  C5  UNL     1      23.829   3.933  51.837  1.00  0.00     0.004 A 
HETATM    2  C6  UNL     1      23.391   5.263  51.738  1.00  0.00     0.030 A 
HETATM    3  C7  UNL     1      24.170   5.983  50.854  1.00  0.00     0.119 A 
HETATM    4  N3  UNL     1      25.082   5.100  50.412  1.00  0.00    -0.240 N 
HETATM    5  N4  UNL     1      26.042   5.352  49.536  1.00  0.00    -0.161 NA
HETATM    6  C8  UNL     1      26.884   4.356  49.187  1.00  0.00     0.258 A 
HETATM    7  N5  UNL     1      26.729   3.140  49.732  1.00  0.00    -0.220 NA
HETATM    8  C9  UNL     1      25.765   2.889  50.610  1.00  0.00     0.159 A 
HETATM    9  C16 UNL     1      24.901   3.892  50.976  1.00  0.00     0.112 A 
ENDROOT
BRANCH   1  10
HETATM   10  C4  UNL     1      23.242   2.894  52.671  1.00  0.00     0.313 C 
BRANCH  10  11
HETATM   11  N2  UNL     1      22.249   2.064  52.050  1.00  0.00     0.092 N 
HETATM   12  C3  UNL     1      20.976   2.242  52.714  1.00  0.00     0.275 C 
HETATM   13  C2  UNL     1      20.146   0.983  52.690  1.00  0.00     0.065 C 
HETATM   14  C1  UNL     1      20.819  -0.080  53.503  1.00  0.00     0.221 C 
HETATM   15  C18 UNL     1      22.317   0.034  53.319  1.00  0.00     0.065 C 
HETATM   16  C17 UNL     1      22.570   0.676  51.988  1.00  0.00     0.275 C 
BRANCH  14  17
HETATM   17  N1  UNL     1      20.436   0.076  54.892  1.00  0.00     0.083 N 
HETATM   18  H1  UNL     1      20.127   1.055  55.028  1.00  0.00     0.313 HD
HETATM   19  H2  UNL     1      19.615  -0.547  55.057  1.00  0.00     0.313 HD
ENDBRANCH  14  17
ENDBRANCH  10  11
ENDBRANCH   1  10
BRANCH   8  20
HETATM   20  N6  UNL     1      25.666   1.580  51.146  1.00  0.00    -0.339 N 
HETATM   21  H13 UNL     1      24.982   0.805  51.102  1.00  0.00     0.167 HD
BRANCH  20  22
HETATM   22  C10 UNL     1      26.682   1.026  51.981  1.00  0.00     0.036 A 
HETATM   23  C11 UNL     1      27.569   1.699  52.802  1.00  0.00     0.053 A 
HETATM   24  C12 UNL     1      28.525   1.137  53.612  1.00  0.00     0.037 A 
HETATM   25 CL1  UNL     1      29.552   2.204  54.577  1.00  0.00    -0.084 Cl
HETATM   26  C13 UNL     1      28.636  -0.231  53.628  1.00  0.00     0.048 A 
HETATM   27  C14 UNL     1      27.792  -0.983  52.838  1.00  0.00     0.037 A 
HETATM   28 CL2  UNL     1      28.013  -2.716  52.934  1.00  0.00    -0.084 Cl
HETATM   29  C15 UNL     1      26.850  -0.361  52.046  1.00  0.00     0.053 A 
ENDBRANCH  20  22
ENDBRANCH   8  20
TORSDOF 5
ENDMDL
MODEL 4
REMARK VINA RESULT:      -8.1      3.130      5.975
REMARK  5 active torsions:
REMARK  status: ('A' for Active; 'I' for Inactive)
REMARK    1  A    between atoms: N1_1  and  C1_2 
REMARK    2  A    between atoms: N2_5  and  C4_6 
REMARK    3  A    between atoms: C4_6  and  C5_7 
REMARK    4  A    between atoms: C9_14  and  N6_15 
REMARK    5  A    between atoms: N6_15  and  C10_16 
ROOT
HETATM    1  C5  UNL     1      24.207   0.858  52.347  1.00  0.00     0.004 A 
HETATM    2  C6  UNL     1      23.296   0.164  53.160  1.00  0.00     0.030 A 
HETATM    3  C7  UNL     1      21.993   0.508  52.858  1.00  0.00     0.119 A 
HETATM    4  N3  UNL     1      22.103   1.407  51.865  1.00  0.00    -0.240 N 
HETATM    5  N4  UNL     1      21.096   2.013  51.255  1.00  0.00    -0.161 NA
HETATM    6  C8  UNL     1      21.367   2.895  50.269  1.00  0.00     0.258 A 
HETATM    7  N5  UNL     1      22.643   3.136  49.932  1.00  0.00    -0.220 NA
HETATM    8  C9  UNL     1      23.651   2.528  50.546  1.00  0.00     0.159 A 
HETATM    9  C16 UNL     1      23.392   1.628  51.551  1.00  0.00     0.112 A 
ENDROOT
BRANCH   1  10
HETATM   10  C4  UNL     1      25.659   0.741  52.388  1.00  0.00     0.313 C 
BRANCH  10  11
HETATM   11  N2  UNL     1      26.340   1.600  53.314  1.00  0.00     0.092 N 
HETATM   12  C3  UNL     1      27.543   2.122  52.704  1.00  0.00     0.275 C 
HETATM   13  C2  UNL     1      28.636   2.355  53.719  1.00  0.00     0.065 C 
HETATM   14  C1  UNL     1      29.075   1.045  54.295  1.00  0.00     0.221 C 
HETATM   15  C18 UNL     1      27.871   0.140  54.437  1.00  0.00     0.065 C 
HETATM   16  C17 UNL     1      26.656   1.007  54.572  1.00  0.00     0.275 C 
BRANCH  14  17
HETATM   17  N1  UNL     1      30.083   0.464  53.430  1.00  0.00     0.083 N 
HETATM   18  H1  UNL     1      30.048   0.962  52.524  1.00  0.00     0.313 HD
HETATM   19  H2  UNL     1      31.012   0.655  53.868  1.00  0.00     0.313 HD
ENDBRANCH  14  17
ENDBRANCH  10  11
ENDBRANCH   1  10
BRANCH   8  20
HETATM   20  N6  UNL     1      24.974   2.836  50.137  1.00  0.00    -0.339 N 
HETATM   21  H13 UNL     1      25.834   2.302  49.927  1.00  0.00     0.167 HD
BRANCH  20  22
HETATM   22  C10 UNL     1      25.400   4.179  49.907  1.00  0.00     0.036 A 
HETATM   23  C11 UNL     1      26.490   4.612  49.174  1.00  0.00     0.053 A 
HETATM   24  C12 UNL     1      26.865   5.914  48.952  1.00  0.00     0.037 A 
HETATM   25 CL1  UNL     1      28.306   6.227  47.979  1.00  0.00    -0.084 Cl
HETATM   26  C13 UNL     1      26.096   6.910  49.503  1.00  0.00     0.048 A 
HETATM   27  C14 UNL     1      24.990   6.569  50.250  1.00  0.00     0.037 A 
HETATM   28 CL2  UNL     1      24.078   7.912  50.905  1.00  0.00    -0.084 Cl
HETATM   29  C15 UNL     1      24.664   5.242  50.438  1.00  0.00     0.053 A 
ENDBRANCH  20  22
ENDBRANCH   8  20
TORSDOF 5
ENDMDL
MODEL 5
REMARK VINA RESULT:      -7.9      2.944      5.958
REMARK  5 active torsions:
REMARK  status: ('A' for Active; 'I' for Inactive)
REMARK    1  A    between atoms: N1_1  and  C1_2 
REMARK    2  A    between atoms: N2_5  and  C4_6 
REMARK    3  A    between atoms: C4_6  and  C5_7 
REMARK    4  A    between atoms: C9_14  and  N6_15 
REMARK    5  A    between atoms: N6_15  and  C10_16 
ROOT
HETATM    1  C5  UNL     1      24.198  -0.051  53.311  1.00  0.00     0.004 A 
HETATM    2  C6  UNL     1      23.797  -0.844  54.398  1.00  0.00     0.030 A 
HETATM    3  C7  UNL     1      22.422  -0.875  54.517  1.00  0.00     0.119 A 
HETATM    4  N3  UNL     1      21.980  -0.106  53.507  1.00  0.00    -0.240 N 
HETATM    5  N4  UNL     1      20.711   0.150  53.229  1.00  0.00    -0.161 NA
HETATM    6  C8  UNL     1      20.422   0.944  52.176  1.00  0.00     0.258 A 
HETATM    7  N5  UNL     1      21.421   1.452  51.439  1.00  0.00    -0.220 NA
HETATM    8  C9  UNL     1      22.693   1.194  51.720  1.00  0.00     0.159 A 
HETATM    9  C16 UNL     1      23.003   0.388  52.788  1.00  0.00     0.112 A 
ENDROOT
BRANCH   1  10
HETATM   10  C4  UNL     1      25.569   0.203  52.889  1.00  0.00     0.313 C 
BRANCH  10  11
HETATM   11  N2  UNL     1      26.253   1.271  53.559  1.00  0.00     0.092 N 
HETATM   12  C3  UNL     1      27.321   1.771  52.722  1.00  0.00     0.275 C 
HETATM   13  C2  UNL     1      28.487   2.278  53.536  1.00  0.00     0.065 C 
HETATM   14  C1  UNL     1      29.121   1.137  54.270  1.00  0.00     0.221 C 
HETATM   15  C18 UNL     1      28.041   0.177  54.717  1.00  0.00     0.065 C 
HETATM   16  C17 UNL     1      26.763   0.950  54.851  1.00  0.00     0.275 C 
BRANCH  14  17
HETATM   17  N1  UNL     1      30.085   0.493  53.399  1.00  0.00     0.083 N 
HETATM   18  H1  UNL     1      29.602   0.255  52.515  1.00  0.00     0.313 HD
HETATM   19  H2  UNL     1      30.824   1.198  53.184  1.00  0.00     0.313 HD
ENDBRANCH  14  17
ENDBRANCH  10  11
ENDBRANCH   1  10
BRANCH   8  20
HETATM   20  N6  UNL     1      23.696   1.768  50.897  1.00  0.00    -0.339 N 
HETATM   21  H13 UNL     1      24.620   1.480  50.535  1.00  0.00     0.167 HD
BRANCH  20  22
HETATM   22  C10 UNL     1      23.556   3.074  50.337  1.00  0.00     0.036 A 
HETATM   23  C11 UNL     1      23.884   4.287  50.915  1.00  0.00     0.053 A 
HETATM   24  C12 UNL     1      23.757   5.529  50.344  1.00  0.00     0.037 A 
HETATM   25 CL1  UNL     1      24.242   6.947  51.281  1.00  0.00    -0.084 Cl
HETATM   26  C13 UNL     1      23.256   5.605  49.068  1.00  0.00     0.048 A 
HETATM   27  C14 UNL     1      22.903   4.444  48.415  1.00  0.00     0.037 A 
HETATM   28 CL2  UNL     1      22.278   4.651  46.793  1.00  0.00    -0.084 Cl
HETATM   29  C15 UNL     1      23.053   3.225  49.041  1.00  0.00     0.053 A 
ENDBRANCH  20  22
ENDBRANCH   8  20
TORSDOF 5
ENDMDL
MODEL 6
REMARK VINA RESULT:      -7.4      1.610      2.354
REMARK  5 active torsions:
REMARK  status: ('A' for Active; 'I' for Inactive)
REMARK    1  A    between atoms: N1_1  and  C1_2 
REMARK    2  A    between atoms: N2_5  and  C4_6 
REMARK    3  A    between atoms: C4_6  and  C5_7 
REMARK    4  A    between atoms: C9_14  and  N6_15 
REMARK    5  A    between atoms: N6_15  and  C10_16 
ROOT
HETATM    1  C5  UNL     1      22.333   2.436  50.031  1.00  0.00     0.004 A 
HETATM    2  C6  UNL     1      21.029   2.265  49.537  1.00  0.00     0.030 A 
HETATM    3  C7  UNL     1      20.348   1.295  50.245  1.00  0.00     0.119 A 
HETATM    4  N3  UNL     1      21.228   0.872  51.169  1.00  0.00    -0.240 N 
HETATM    5  N4  UNL     1      21.003  -0.062  52.080  1.00  0.00    -0.161 NA
HETATM    6  C8  UNL     1      21.990  -0.379  52.946  1.00  0.00     0.258 A 
HETATM    7  N5  UNL     1      23.168   0.257  52.865  1.00  0.00    -0.220 NA
HETATM    8  C9  UNL     1      23.391   1.194  51.949  1.00  0.00     0.159 A 
HETATM    9  C16 UNL     1      22.398   1.526  51.062  1.00  0.00     0.112 A 
ENDROOT
BRANCH   1  10
HETATM   10  C4  UNL     1      23.328   3.372  49.528  1.00  0.00     0.313 C 
BRANCH  10  11
HETATM   11  N2  UNL     1      22.918   4.743  49.428  1.00  0.00     0.092 N 
HETATM   12  C3  UNL     1      23.936   5.512  48.745  1.00  0.00     0.275 C 
HETATM   13  C2  UNL     1      23.991   6.938  49.235  1.00  0.00     0.065 C 
HETATM   14  C1  UNL     1      24.434   6.962  50.665  1.00  0.00     0.221 C 
HETATM   15  C18 UNL     1      23.844   5.768  51.384  1.00  0.00     0.065 C 
HETATM   16  C17 UNL     1      22.590   5.371  50.665  1.00  0.00     0.275 C 
BRANCH  14  17
HETATM   17  N1  UNL     1      25.883   6.952  50.710  1.00  0.00     0.083 N 
HETATM   18  H1  UNL     1      26.213   6.180  50.105  1.00  0.00     0.313 HD
HETATM   19  H2  UNL     1      26.210   7.852  50.293  1.00  0.00     0.313 HD
ENDBRANCH  14  17
ENDBRANCH  10  11
ENDBRANCH   1  10
BRANCH   8  20
HETATM   20  N6  UNL     1      24.664   1.820  51.923  1.00  0.00    -0.339 N 
HETATM   21  H13 UNL     1      25.039   2.735  51.621  1.00  0.00     0.167 HD
BRANCH  20  22
HETATM   22  C10 UNL     1      25.839   1.164  52.398  1.00  0.00     0.036 A 
HETATM   23  C11 UNL     1      26.145  -0.183  52.338  1.00  0.00     0.053 A 
HETATM   24  C12 UNL     1      27.295  -0.785  52.786  1.00  0.00     0.037 A 
HETATM   25 CL1  UNL     1      27.463  -2.534  52.603  1.00  0.00    -0.084 Cl
HETATM   26  C13 UNL     1      28.257   0.009  53.359  1.00  0.00     0.048 A 
HETATM   27  C14 UNL     1      28.036   1.366  53.461  1.00  0.00     0.037 A 
HETATM   28 CL2  UNL     1      29.326   2.287  54.204  1.00  0.00    -0.084 Cl
HETATM   29  C15 UNL     1      26.860   1.912  52.992  1.00  0.00     0.053 A 
ENDBRANCH  20  22
ENDBRANCH   8  20
TORSDOF 5
ENDMDL
MODEL 7
REMARK VINA RESULT:      -7.3      3.230      6.223
REMARK  5 active torsions:
REMARK  status: ('A' for Active; 'I' for Inactive)
REMARK    1  A    between atoms: N1_1  and  C1_2 
REMARK    2  A    between atoms: N2_5  and  C4_6 
REMARK    3  A    between atoms: C4_6  and  C5_7 
REMARK    4  A    between atoms: C9_14  and  N6_15 
REMARK    5  A    between atoms: N6_15  and  C10_16 
ROOT
HETATM    1  C5  UNL     1      23.191   1.206  52.569  1.00  0.00     0.004 A 
HETATM    2  C6  UNL     1      22.510   0.460  53.545  1.00  0.00     0.030 A 
HETATM    3  C7  UNL     1      21.263   0.070  53.098  1.00  0.00     0.119 A 
HETATM    4  N3  UNL     1      21.178   0.575  51.856  1.00  0.00    -0.240 N 
HETATM    5  N4  UNL     1      20.144   0.446  51.038  1.00  0.00    -0.161 NA
HETATM    6  C8  UNL     1      20.208   1.009  49.813  1.00  0.00     0.258 A 
HETATM    7  N5  UNL     1      21.310   1.684  49.454  1.00  0.00    -0.220 NA
HETATM    8  C9  UNL     1      22.346   1.813  50.276  1.00  0.00     0.159 A 
HETATM    9  C16 UNL     1      22.296   1.245  51.525  1.00  0.00     0.112 A 
ENDROOT
BRANCH   1  10
HETATM   10  C4  UNL     1      24.526   1.774  52.696  1.00  0.00     0.313 C 
BRANCH  10  11
HETATM   11  N2  UNL     1      25.601   1.003  52.140  1.00  0.00     0.092 N 
HETATM   12  C3  UNL     1      25.998  -0.030  53.072  1.00  0.00     0.275 C 
HETATM   13  C2  UNL     1      27.469  -0.349  52.969  1.00  0.00     0.065 C 
HETATM   14  C1  UNL     1      28.272   0.839  53.401  1.00  0.00     0.221 C 
HETATM   15  C18 UNL     1      27.574   2.100  52.940  1.00  0.00     0.065 C 
HETATM   16  C17 UNL     1      26.744   1.755  51.739  1.00  0.00     0.275 C 
BRANCH  14  17
HETATM   17  N1  UNL     1      28.426   0.808  54.841  1.00  0.00     0.083 N 
HETATM   18  H1  UNL     1      27.761   1.491  55.245  1.00  0.00     0.313 HD
HETATM   19  H2  UNL     1      28.143  -0.145  55.160  1.00  0.00     0.313 HD
ENDBRANCH  14  17
ENDBRANCH  10  11
ENDBRANCH   1  10
BRANCH   8  20
HETATM   20  N6  UNL     1      23.476   2.543  49.827  1.00  0.00    -0.339 N 
HETATM   21  H13 UNL     1      24.485   2.356  49.705  1.00  0.00     0.167 HD
BRANCH  20  22
HETATM   22  C10 UNL     1      23.375   3.899  49.393  1.00  0.00     0.036 A 
HETATM   23  C11 UNL     1      23.020   4.367  48.141  1.00  0.00     0.053 A 
HETATM   24  C12 UNL     1      22.911   5.681  47.756  1.00  0.00     0.037 A 
HETATM   25 CL1  UNL     1      22.441   6.040  46.091  1.00  0.00    -0.084 Cl
HETATM   26  C13 UNL     1      23.178   6.651  48.690  1.00  0.00     0.048 A 
HETATM   27  C14 UNL     1      23.541   6.275  49.965  1.00  0.00     0.037 A 
HETATM   28 CL2  UNL     1      23.856   7.588  51.079  1.00  0.00    -0.084 Cl
HETATM   29  C15 UNL     1      23.632   4.938  50.292  1.00  0.00     0.053 A 
ENDBRANCH  20  22
ENDBRANCH   8  20
TORSDOF 5
ENDMDL
MODEL 8
REMARK VINA RESULT:      -7.3      2.272      5.320
REMARK  5 active torsions:
REMARK  status: ('A' for Active; 'I' for Inactive)
REMARK    1  A    between atoms: N1_1  and  C1_2 
REMARK    2  A    between atoms: N2_5  and  C4_6 
REMARK    3  A    between atoms: C4_6  and  C5_7 
REMARK    4  A    between atoms: C9_14  and  N6_15 
REMARK    5  A    between atoms: N6_15  and  C10_16 
ROOT
HETATM    1  C5  UNL     1      22.113   4.299  51.497  1.00  0.00     0.004 A 
HETATM    2  C6  UNL     1      21.938   5.692  51.523  1.00  0.00     0.030 A 
HETATM    3  C7  UNL     1      23.057   6.347  51.049  1.00  0.00     0.119 A 
HETATM    4  N3  UNL     1      23.915   5.361  50.734  1.00  0.00    -0.240 N 
HETATM    5  N4  UNL     1      25.130   5.525  50.234  1.00  0.00    -0.161 NA
HETATM    6  C8  UNL     1      25.877   4.432  49.965  1.00  0.00     0.258 A 
HETATM    7  N5  UNL     1      25.373   3.213  50.209  1.00  0.00    -0.220 NA
HETATM    8  C9  UNL     1      24.154   3.051  50.711  1.00  0.00     0.159 A 
HETATM    9  C16 UNL     1      23.383   4.153  50.989  1.00  0.00     0.112 A 
ENDROOT
BRANCH   1  10
HETATM   10  C4  UNL     1      21.139   3.301  51.921  1.00  0.00     0.313 C 
BRANCH  10  11
HETATM   11  N2  UNL     1      20.071   3.026  51.004  1.00  0.00     0.092 N 
HETATM   12  C3  UNL     1      18.860   2.728  51.738  1.00  0.00     0.275 C 
HETATM   13  C2  UNL     1      17.981   1.747  51.002  1.00  0.00     0.065 C 
HETATM   14  C1  UNL     1      18.672   0.421  50.914  1.00  0.00     0.221 C 
HETATM   15  C18 UNL     1      20.154   0.650  50.716  1.00  0.00     0.065 C 
HETATM   16  C17 UNL     1      20.331   1.988  50.062  1.00  0.00     0.275 C 
BRANCH  14  17
HETATM   17  N1  UNL     1      18.402  -0.333  52.122  1.00  0.00     0.083 N 
HETATM   18  H1  UNL     1      18.295  -1.328  51.857  1.00  0.00     0.313 HD
HETATM   19  H2  UNL     1      19.247  -0.251  52.731  1.00  0.00     0.313 HD
ENDBRANCH  14  17
ENDBRANCH  10  11
ENDBRANCH   1  10
BRANCH   8  20
HETATM   20  N6  UNL     1      23.691   1.731  50.945  1.00  0.00    -0.339 N 
HETATM   21  H13 UNL     1      23.006   1.092  50.507  1.00  0.00     0.167 HD
BRANCH  20  22
HETATM   22  C10 UNL     1      24.193   0.933  52.016  1.00  0.00     0.036 A 
HETATM   23  C11 UNL     1      25.512   0.658  52.326  1.00  0.00     0.053 A 
HETATM   24  C12 UNL     1      25.967  -0.098  53.378  1.00  0.00     0.037 A 
HETATM   25 CL1  UNL     1      27.710  -0.315  53.574  1.00  0.00    -0.084 Cl
HETATM   26  C13 UNL     1      25.039  -0.651  54.225  1.00  0.00     0.048 A 
HETATM   27  C14 UNL     1      23.699  -0.429  53.991  1.00  0.00     0.037 A 
HETATM   28 CL2  UNL     1      22.600  -1.175  55.131  1.00  0.00    -0.084 Cl
HETATM   29  C15 UNL     1      23.303   0.341  52.918  1.00  0.00     0.053 A 
ENDBRANCH  20  22
ENDBRANCH   8  20
TORSDOF 5
ENDMDL
MODEL 9
REMARK VINA RESULT:      -7.2      3.898      7.198
REMARK  5 active torsions:
REMARK  status: ('A' for Active; 'I' for Inactive)
REMARK    1  A    between atoms: N1_1  and  C1_2 
REMARK    2  A    between atoms: N2_5  and  C4_6 
REMARK    3  A    between atoms: C4_6  and  C5_7 
REMARK    4  A    between atoms: C9_14  and  N6_15 
REMARK    5  A    between atoms: N6_15  and  C10_16 
ROOT
HETATM    1  C5  UNL     1      22.585   4.725  51.323  1.00  0.00     0.004 A 
HETATM    2  C6  UNL     1      21.506   3.859  51.087  1.00  0.00     0.030 A 
HETATM    3  C7  UNL     1      20.452   4.522  50.490  1.00  0.00     0.119 A 
HETATM    4  N3  UNL     1      20.882   5.789  50.360  1.00  0.00    -0.240 N 
HETATM    5  N4  UNL     1      20.194   6.788  49.829  1.00  0.00    -0.161 NA
HETATM    6  C8  UNL     1      20.764   8.010  49.765  1.00  0.00     0.258 A 
HETATM    7  N5  UNL     1      22.007   8.183  50.238  1.00  0.00    -0.220 NA
HETATM    8  C9  UNL     1      22.695   7.180  50.770  1.00  0.00     0.159 A 
HETATM    9  C16 UNL     1      22.129   5.931  50.842  1.00  0.00     0.112 A 
ENDROOT
BRANCH   1  10
HETATM   10  C4  UNL     1      23.858   4.368  51.935  1.00  0.00     0.313 C 
BRANCH  10  11
HETATM   11  N2  UNL     1      24.137   2.965  52.048  1.00  0.00     0.092 N 
HETATM   12  C3  UNL     1      24.577   2.660  53.392  1.00  0.00     0.275 C 
HETATM   13  C2  UNL     1      25.559   1.514  53.419  1.00  0.00     0.065 C 
HETATM   14  C1  UNL     1      26.821   1.918  52.720  1.00  0.00     0.221 C 
HETATM   15  C18 UNL     1      26.472   2.798  51.540  1.00  0.00     0.065 C 
HETATM   16  C17 UNL     1      25.078   2.455  51.106  1.00  0.00     0.275 C 
BRANCH  14  17
HETATM   17  N1  UNL     1      27.684   2.602  53.662  1.00  0.00     0.083 N 
HETATM   18  H1  UNL     1      28.572   2.821  53.177  1.00  0.00     0.313 HD
HETATM   19  H2  UNL     1      27.219   3.505  53.906  1.00  0.00     0.313 HD
ENDBRANCH  14  17
ENDBRANCH  10  11
ENDBRANCH   1  10
BRANCH   8  20
HETATM   20  N6  UNL     1      24.004   7.440  51.252  1.00  0.00    -0.339 N 
HETATM   21  H13 UNL     1      24.438   7.621  52.172  1.00  0.00     0.167 HD
BRANCH  20  22
HETATM   22  C10 UNL     1      25.132   7.501  50.379  1.00  0.00     0.036 A 
HETATM   23  C11 UNL     1      25.855   6.447  49.849  1.00  0.00     0.053 A 
HETATM   24  C12 UNL     1      26.925   6.535  48.994  1.00  0.00     0.037 A 
HETATM   25 CL1  UNL     1      27.697   5.043  48.446  1.00  0.00    -0.084 Cl
HETATM   26  C13 UNL     1      27.344   7.785  48.609  1.00  0.00     0.048 A 
HETATM   27  C14 UNL     1      26.681   8.893  49.091  1.00  0.00     0.037 A 
HETATM   28 CL2  UNL     1      27.291  10.438  48.537  1.00  0.00    -0.084 Cl
HETATM   29  C15 UNL     1      25.611   8.741  49.947  1.00  0.00     0.053 A 
ENDBRANCH  20  22
ENDBRANCH   8  20
TORSDOF 5
ENDMDL
