MODEL 1
REMARK VINA RESULT:      -6.4      0.000      0.000
REMARK  5 active torsions:
REMARK  status: ('A' for Active; 'I' for Inactive)
REMARK    1  A    between atoms: C1_2  and  C2_3 
REMARK    2  A    between atoms: C2_3  and  N1_4 
REMARK    3  A    between atoms: N1_4  and  C3_5 
REMARK    4  A    between atoms: N1_4  and  C5_8 
REMARK    5  A    between atoms: C3_5  and  C4_6 
ROOT
HETATM    1  C5  UNL     1      24.258   0.972  52.322  1.00  0.00     0.015 C 
HETATM    2  C6  UNL     1      25.143   0.726  53.275  1.00  0.00    -0.002 C 
HETATM    3  C7  UNL     1      25.281   1.829  54.330  1.00  0.00     0.308 C 
HETATM    4  N2  UNL     1      25.847   2.898  53.496  1.00  0.00     0.094 N 
HETATM    5  C8  UNL     1      26.362   2.203  52.280  1.00  0.00     0.261 C 
HETATM    6  C9  UNL     1      25.292   1.622  51.437  1.00  0.00     0.095 C 
HETATM    7  C10 UNL     1      27.540   1.342  52.588  1.00  0.00     0.280 C 
HETATM    8  C11 UNL     1      28.385   2.048  53.603  1.00  0.00     0.205 C 
HETATM    9  O1  UNL     1      28.859   1.332  54.660  1.00  0.00    -0.387 OA
HETATM   10  C12 UNL     1      28.780  -0.010  54.657  1.00  0.00     0.198 C 
HETATM   11  C13 UNL     1      28.489  -0.657  53.348  1.00  0.00     0.299 C 
HETATM   12  N3  UNL     1      27.347  -0.050  52.772  1.00  0.00     0.103 N 
HETATM   13  C14 UNL     1      26.111  -0.462  53.380  1.00  0.00     0.311 C 
HETATM   14  H11 UNL     1      25.150   3.596  53.197  1.00  0.00     0.316 HD
ENDROOT
BRANCH   1  15
HETATM   15  N1  UNL     1      22.937   0.952  51.703  1.00  0.00    -0.382 N 
BRANCH  15  16
HETATM   16  C2  UNL     1      21.925   0.048  52.234  1.00  0.00     0.137 C 
BRANCH  16  17
HETATM   17  C1  UNL     1      21.433   0.533  53.593  1.00  0.00     0.134 C 
HETATM   18 CL1  UNL     1      21.922  -0.630  54.871  1.00  0.00    -0.129 Cl
ENDBRANCH  16  17
ENDBRANCH  15  16
BRANCH  15  19
HETATM   19  C3  UNL     1      22.676   1.827  50.611  1.00  0.00     0.137 C 
BRANCH  19  20
HETATM   20  C4  UNL     1      21.795   1.263  49.552  1.00  0.00     0.134 C 
HETATM   21 CL2  UNL     1      22.223   1.701  47.903  1.00  0.00    -0.129 Cl
ENDBRANCH  19  20
ENDBRANCH  15  19
ENDBRANCH   1  15
TORSDOF 5
ENDMDL
MODEL 2
REMARK VINA RESULT:      -6.4      1.173      2.549
REMARK  5 active torsions:
REMARK  status: ('A' for Active; 'I' for Inactive)
REMARK    1  A    between atoms: C1_2  and  C2_3 
REMARK    2  A    between atoms: C2_3  and  N1_4 
REMARK    3  A    between atoms: N1_4  and  C3_5 
REMARK    4  A    between atoms: N1_4  and  C5_8 
REMARK    5  A    between atoms: C3_5  and  C4_6 
ROOT
HETATM    1  C5  UNL     1      24.245   0.903  52.443  1.00  0.00     0.015 C 
HETATM    2  C6  UNL     1      25.163   0.708  53.376  1.00  0.00    -0.002 C 
HETATM    3  C7  UNL     1      25.326   1.860  54.375  1.00  0.00     0.308 C 
HETATM    4  N2  UNL     1      25.855   2.892  53.473  1.00  0.00     0.094 N 
HETATM    5  C8  UNL     1      26.335   2.145  52.274  1.00  0.00     0.261 C 
HETATM    6  C9  UNL     1      25.243   1.519  51.495  1.00  0.00     0.095 C 
HETATM    7  C10 UNL     1      27.531   1.308  52.582  1.00  0.00     0.280 C 
HETATM    8  C11 UNL     1      28.403   2.066  53.535  1.00  0.00     0.205 C 
HETATM    9  O1  UNL     1      28.917   1.403  54.607  1.00  0.00    -0.387 OA
HETATM   10  C12 UNL     1      28.849   0.062  54.669  1.00  0.00     0.198 C 
HETATM   11  C13 UNL     1      28.521  -0.647  53.402  1.00  0.00     0.299 C 
HETATM   12  N3  UNL     1      27.355  -0.076  52.837  1.00  0.00     0.103 N 
HETATM   13  C14 UNL     1      26.143  -0.467  53.504  1.00  0.00     0.311 C 
HETATM   14  H11 UNL     1      25.143   3.572  53.166  1.00  0.00     0.316 HD
ENDROOT
BRANCH   1  15
HETATM   15  N1  UNL     1      22.904   0.846  51.870  1.00  0.00    -0.382 N 
BRANCH  15  16
HETATM   16  C2  UNL     1      22.567   1.744  50.774  1.00  0.00     0.137 C 
BRANCH  16  17
HETATM   17  C1  UNL     1      21.681   2.883  51.267  1.00  0.00     0.134 C 
HETATM   18 CL1  UNL     1      22.658   4.050  52.220  1.00  0.00    -0.129 Cl
ENDBRANCH  16  17
ENDBRANCH  15  16
BRANCH  15  19
HETATM   19  C3  UNL     1      21.974  -0.097  52.392  1.00  0.00     0.137 C 
BRANCH  19  20
HETATM   20  C4  UNL     1      21.539   0.159  53.792  1.00  0.00     0.134 C 
HETATM   21 CL2  UNL     1      22.216  -0.924  55.002  1.00  0.00    -0.129 Cl
ENDBRANCH  19  20
ENDBRANCH  15  19
ENDBRANCH   1  15
TORSDOF 5
ENDMDL
MODEL 3
REMARK VINA RESULT:      -6.3      2.079      2.853
REMARK  5 active torsions:
REMARK  status: ('A' for Active; 'I' for Inactive)
REMARK    1  A    between atoms: C1_2  and  C2_3 
REMARK    2  A    between atoms: C2_3  and  N1_4 
REMARK    3  A    between atoms: N1_4  and  C3_5 
REMARK    4  A    between atoms: N1_4  and  C5_8 
REMARK    5  A    between atoms: C3_5  and  C4_6 
ROOT
HETATM    1  C5  UNL     1      24.979   2.053  51.561  1.00  0.00     0.015 C 
HETATM    2  C6  UNL     1      26.118   1.434  51.830  1.00  0.00    -0.002 C 
HETATM    3  C7  UNL     1      26.022  -0.094  51.909  1.00  0.00     0.308 C 
HETATM    4  N2  UNL     1      25.179  -0.225  53.105  1.00  0.00     0.094 N 
HETATM    5  C8  UNL     1      25.269   1.100  53.785  1.00  0.00     0.261 C 
HETATM    6  C9  UNL     1      24.635   2.198  53.022  1.00  0.00     0.095 C 
HETATM    7  C10 UNL     1      26.630   1.347  54.345  1.00  0.00     0.280 C 
HETATM    8  C11 UNL     1      27.152   0.055  54.895  1.00  0.00     0.205 C 
HETATM    9  O1  UNL     1      28.437  -0.296  54.609  1.00  0.00    -0.387 OA
HETATM   10  C12 UNL     1      29.278   0.601  54.066  1.00  0.00     0.198 C 
HETATM   11  C13 UNL     1      28.857   2.028  54.123  1.00  0.00     0.299 C 
HETATM   12  N3  UNL     1      27.542   2.147  53.612  1.00  0.00     0.103 N 
HETATM   13  C14 UNL     1      27.474   2.066  52.179  1.00  0.00     0.311 C 
HETATM   14  H11 UNL     1      24.187  -0.409  52.889  1.00  0.00     0.316 HD
ENDROOT
BRANCH   1  15
HETATM   15  N1  UNL     1      23.959   2.632  50.694  1.00  0.00    -0.382 N 
BRANCH  15  16
HETATM   16  C2  UNL     1      22.557   2.490  51.063  1.00  0.00     0.137 C 
BRANCH  16  17
HETATM   17  C1  UNL     1      22.004   1.158  50.568  1.00  0.00     0.134 C 
HETATM   18 CL1  UNL     1      21.815   0.024  51.947  1.00  0.00    -0.129 Cl
ENDBRANCH  16  17
ENDBRANCH  15  16
BRANCH  15  19
HETATM   19  C3  UNL     1      24.368   3.331  49.523  1.00  0.00     0.137 C 
BRANCH  19  20
HETATM   20  C4  UNL     1      25.361   4.416  49.754  1.00  0.00     0.134 C 
HETATM   21 CL2  UNL     1      26.986   4.088  49.163  1.00  0.00    -0.129 Cl
ENDBRANCH  19  20
ENDBRANCH  15  19
ENDBRANCH   1  15
TORSDOF 5
ENDMDL
MODEL 4
REMARK VINA RESULT:      -6.2      1.912      2.265
REMARK  5 active torsions:
REMARK  status: ('A' for Active; 'I' for Inactive)
REMARK    1  A    between atoms: C1_2  and  C2_3 
REMARK    2  A    between atoms: C2_3  and  N1_4 
REMARK    3  A    between atoms: N1_4  and  C3_5 
REMARK    4  A    between atoms: N1_4  and  C5_8 
REMARK    5  A    between atoms: C3_5  and  C4_6 
ROOT
HETATM    1  C5  UNL     1      22.804   1.592  52.603  1.00  0.00     0.015 C 
HETATM    2  C6  UNL     1      24.012   1.694  53.135  1.00  0.00    -0.002 C 
HETATM    3  C7  UNL     1      24.490   3.128  53.387  1.00  0.00     0.308 C 
HETATM    4  N2  UNL     1      24.600   3.597  51.999  1.00  0.00     0.094 N 
HETATM    5  C8  UNL     1      24.626   2.354  51.175  1.00  0.00     0.261 C 
HETATM    6  C9  UNL     1      23.348   1.606  51.197  1.00  0.00     0.095 C 
HETATM    7  C10 UNL     1      25.883   1.577  51.379  1.00  0.00     0.280 C 
HETATM    8  C11 UNL     1      27.017   2.546  51.519  1.00  0.00     0.205 C 
HETATM    9  O1  UNL     1      27.922   2.341  52.516  1.00  0.00    -0.387 OA
HETATM   10  C12 UNL     1      27.937   1.176  53.187  1.00  0.00     0.198 C 
HETATM   11  C13 UNL     1      27.187   0.046  52.574  1.00  0.00     0.299 C 
HETATM   12  N3  UNL     1      25.873   0.471  52.266  1.00  0.00     0.103 N 
HETATM   13  C14 UNL     1      25.016   0.566  53.416  1.00  0.00     0.311 C 
HETATM   14  H11 UNL     1      23.797   4.169  51.696  1.00  0.00     0.316 HD
ENDROOT
BRANCH   1  15
HETATM   15  N1  UNL     1      21.350   1.475  52.630  1.00  0.00    -0.382 N 
BRANCH  15  16
HETATM   16  C2  UNL     1      20.727   0.670  53.673  1.00  0.00     0.137 C 
BRANCH  16  17
HETATM   17  C1  UNL     1      21.254  -0.760  53.633  1.00  0.00     0.134 C 
HETATM   18 CL1  UNL     1      22.241  -1.089  55.096  1.00  0.00    -0.129 Cl
ENDBRANCH  16  17
ENDBRANCH  15  16
BRANCH  15  19
HETATM   19  C3  UNL     1      20.586   2.162  51.645  1.00  0.00     0.137 C 
BRANCH  19  20
HETATM   20  C4  UNL     1      20.190   3.549  52.013  1.00  0.00     0.134 C 
HETATM   21 CL2  UNL     1      21.345   4.803  51.580  1.00  0.00    -0.129 Cl
ENDBRANCH  19  20
ENDBRANCH  15  19
ENDBRANCH   1  15
TORSDOF 5
ENDMDL
MODEL 5
REMARK VINA RESULT:      -6.2      3.492      6.006
REMARK  5 active torsions:
REMARK  status: ('A' for Active; 'I' for Inactive)
REMARK    1  A    between atoms: C1_2  and  C2_3 
REMARK    2  A    between atoms: C2_3  and  N1_4 
REMARK    3  A    between atoms: N1_4  and  C3_5 
REMARK    4  A    between atoms: N1_4  and  C5_8 
REMARK    5  A    between atoms: C3_5  and  C4_6 
ROOT
HETATM    1  C5  UNL     1      25.531   2.225  53.069  1.00  0.00     0.015 C 
HETATM    2  C6  UNL     1      24.321   2.758  53.009  1.00  0.00    -0.002 C 
HETATM    3  C7  UNL     1      23.181   1.754  52.801  1.00  0.00     0.308 C 
HETATM    4  N2  UNL     1      23.505   1.292  51.445  1.00  0.00     0.094 N 
HETATM    5  C8  UNL     1      24.428   2.329  50.898  1.00  0.00     0.261 C 
HETATM    6  C9  UNL     1      25.741   2.368  51.582  1.00  0.00     0.095 C 
HETATM    7  C10 UNL     1      23.733   3.628  50.665  1.00  0.00     0.280 C 
HETATM    8  C11 UNL     1      22.356   3.338  50.151  1.00  0.00     0.205 C 
HETATM    9  O1  UNL     1      21.309   4.027  50.683  1.00  0.00    -0.387 OA
HETATM   10  C12 UNL     1      21.532   5.102  51.458  1.00  0.00     0.198 C 
HETATM   11  C13 UNL     1      22.902   5.683  51.414  1.00  0.00     0.299 C 
HETATM   12  N3  UNL     1      23.851   4.656  51.634  1.00  0.00     0.103 N 
HETATM   13  C14 UNL     1      23.945   4.247  53.009  1.00  0.00     0.311 C 
HETATM   14  H11 UNL     1      23.993   0.384  51.427  1.00  0.00     0.316 HD
ENDROOT
BRANCH   1  15
HETATM   15  N1  UNL     1      26.685   1.630  53.734  1.00  0.00    -0.382 N 
BRANCH  15  16
HETATM   16  C2  UNL     1      28.011   2.169  53.460  1.00  0.00     0.137 C 
BRANCH  16  17
HETATM   17  C1  UNL     1      29.057   1.490  54.335  1.00  0.00     0.134 C 
HETATM   18 CL1  UNL     1      29.795   0.113  53.450  1.00  0.00    -0.129 Cl
ENDBRANCH  16  17
ENDBRANCH  15  16
BRANCH  15  19
HETATM   19  C3  UNL     1      26.477   0.551  54.639  1.00  0.00     0.137 C 
BRANCH  19  20
HETATM   20  C4  UNL     1      25.835  -0.653  54.044  1.00  0.00     0.134 C 
HETATM   21 CL2  UNL     1      26.551  -1.223  52.541  1.00  0.00    -0.129 Cl
ENDBRANCH  19  20
ENDBRANCH  15  19
ENDBRANCH   1  15
TORSDOF 5
ENDMDL
MODEL 6
REMARK VINA RESULT:      -5.9      1.880      3.449
REMARK  5 active torsions:
REMARK  status: ('A' for Active; 'I' for Inactive)
REMARK    1  A    between atoms: C1_2  and  C2_3 
REMARK    2  A    between atoms: C2_3  and  N1_4 
REMARK    3  A    between atoms: N1_4  and  C3_5 
REMARK    4  A    between atoms: N1_4  and  C5_8 
REMARK    5  A    between atoms: C3_5  and  C4_6 
ROOT
HETATM    1  C5  UNL     1      24.894   1.800  51.780  1.00  0.00     0.015 C 
HETATM    2  C6  UNL     1      26.135   1.359  51.908  1.00  0.00    -0.002 C 
HETATM    3  C7  UNL     1      26.290  -0.165  51.853  1.00  0.00     0.308 C 
HETATM    4  N2  UNL     1      25.584  -0.528  53.089  1.00  0.00     0.094 N 
HETATM    5  C8  UNL     1      25.522   0.736  53.880  1.00  0.00     0.261 C 
HETATM    6  C9  UNL     1      24.658   1.771  53.269  1.00  0.00     0.095 C 
HETATM    7  C10 UNL     1      26.869   1.159  54.361  1.00  0.00     0.280 C 
HETATM    8  C11 UNL     1      27.636  -0.068  54.750  1.00  0.00     0.205 C 
HETATM    9  O1  UNL     1      28.930  -0.178  54.341  1.00  0.00    -0.387 OA
HETATM   10  C12 UNL     1      29.568   0.886  53.824  1.00  0.00     0.198 C 
HETATM   11  C13 UNL     1      28.933   2.215  54.043  1.00  0.00     0.299 C 
HETATM   12  N3  UNL     1      27.576   2.154  53.641  1.00  0.00     0.103 N 
HETATM   13  C14 UNL     1      27.399   2.177  52.215  1.00  0.00     0.311 C 
HETATM   14  H11 UNL     1      24.620  -0.856  52.929  1.00  0.00     0.316 HD
ENDROOT
BRANCH   1  15
HETATM   15  N1  UNL     1      23.724   2.270  51.045  1.00  0.00    -0.382 N 
BRANCH  15  16
HETATM   16  C2  UNL     1      23.697   3.646  50.569  1.00  0.00     0.137 C 
BRANCH  16  17
HETATM   17  C1  UNL     1      24.327   3.747  49.184  1.00  0.00     0.134 C 
HETATM   18 CL1  UNL     1      26.092   4.040  49.335  1.00  0.00    -0.129 Cl
ENDBRANCH  16  17
ENDBRANCH  15  16
BRANCH  15  19
HETATM   19  C3  UNL     1      22.652   1.363  50.806  1.00  0.00     0.137 C 
BRANCH  19  20
HETATM   20  C4  UNL     1      21.352   1.754  51.415  1.00  0.00     0.134 C 
HETATM   21 CL2  UNL     1      21.079   1.167  53.051  1.00  0.00    -0.129 Cl
ENDBRANCH  19  20
ENDBRANCH  15  19
ENDBRANCH   1  15
TORSDOF 5
ENDMDL
MODEL 7
REMARK VINA RESULT:      -5.9      3.408      5.648
REMARK  5 active torsions:
REMARK  status: ('A' for Active; 'I' for Inactive)
REMARK    1  A    between atoms: C1_2  and  C2_3 
REMARK    2  A    between atoms: C2_3  and  N1_4 
REMARK    3  A    between atoms: N1_4  and  C3_5 
REMARK    4  A    between atoms: N1_4  and  C5_8 
REMARK    5  A    between atoms: C3_5  and  C4_6 
ROOT
HETATM    1  C5  UNL     1      24.263   1.557  52.155  1.00  0.00     0.015 C 
HETATM    2  C6  UNL     1      23.513   2.221  51.289  1.00  0.00    -0.002 C 
HETATM    3  C7  UNL     1      24.289   3.102  50.303  1.00  0.00     0.308 C 
HETATM    4  N2  UNL     1      24.832   4.096  51.239  1.00  0.00     0.094 N 
HETATM    5  C8  UNL     1      23.999   3.960  52.469  1.00  0.00     0.261 C 
HETATM    6  C9  UNL     1      24.193   2.670  53.170  1.00  0.00     0.095 C 
HETATM    7  C10 UNL     1      22.598   4.421  52.248  1.00  0.00     0.280 C 
HETATM    8  C11 UNL     1      22.634   5.625  51.359  1.00  0.00     0.205 C 
HETATM    9  O1  UNL     1      21.749   5.693  50.326  1.00  0.00    -0.387 OA
HETATM   10  C12 UNL     1      20.719   4.832  50.261  1.00  0.00     0.198 C 
HETATM   11  C13 UNL     1      20.408   4.072  51.503  1.00  0.00     0.299 C 
HETATM   12  N3  UNL     1      21.590   3.459  51.983  1.00  0.00     0.103 N 
HETATM   13  C14 UNL     1      21.980   2.297  51.233  1.00  0.00     0.311 C 
HETATM   14  H11 UNL     1      25.816   3.924  51.494  1.00  0.00     0.316 HD
ENDROOT
BRANCH   1  15
HETATM   15  N1  UNL     1      25.050   0.425  52.631  1.00  0.00    -0.382 N 
BRANCH  15  16
HETATM   16  C2  UNL     1      24.475  -0.461  53.634  1.00  0.00     0.137 C 
BRANCH  16  17
HETATM   17  C1  UNL     1      23.055  -0.858  53.248  1.00  0.00     0.134 C 
HETATM   18 CL1  UNL     1      21.879  -0.102  54.376  1.00  0.00    -0.129 Cl
ENDBRANCH  16  17
ENDBRANCH  15  16
BRANCH  15  19
HETATM   19  C3  UNL     1      26.349   0.215  52.088  1.00  0.00     0.137 C 
BRANCH  19  20
HETATM   20  C4  UNL     1      27.474   0.588  52.989  1.00  0.00     0.134 C 
HETATM   21 CL2  UNL     1      27.861   2.304  53.038  1.00  0.00    -0.129 Cl
ENDBRANCH  19  20
ENDBRANCH  15  19
ENDBRANCH   1  15
TORSDOF 5
ENDMDL
MODEL 8
REMARK VINA RESULT:      -5.8      3.338      5.868
REMARK  5 active torsions:
REMARK  status: ('A' for Active; 'I' for Inactive)
REMARK    1  A    between atoms: C1_2  and  C2_3 
REMARK    2  A    between atoms: C2_3  and  N1_4 
REMARK    3  A    between atoms: N1_4  and  C3_5 
REMARK    4  A    between atoms: N1_4  and  C5_8 
REMARK    5  A    between atoms: C3_5  and  C4_6 
ROOT
HETATM    1  C5  UNL     1      24.372   1.528  52.203  1.00  0.00     0.015 C 
HETATM    2  C6  UNL     1      23.565   2.159  51.365  1.00  0.00    -0.002 C 
HETATM    3  C7  UNL     1      24.270   3.039  50.326  1.00  0.00     0.308 C 
HETATM    4  N2  UNL     1      24.838   4.061  51.216  1.00  0.00     0.094 N 
HETATM    5  C8  UNL     1      24.072   3.929  52.490  1.00  0.00     0.261 C 
HETATM    6  C9  UNL     1      24.328   2.657  53.202  1.00  0.00     0.095 C 
HETATM    7  C10 UNL     1      22.651   4.356  52.332  1.00  0.00     0.280 C 
HETATM    8  C11 UNL     1      22.616   5.545  51.421  1.00  0.00     0.205 C 
HETATM    9  O1  UNL     1      21.679   5.575  50.434  1.00  0.00    -0.387 OA
HETATM   10  C12 UNL     1      20.666   4.692  50.436  1.00  0.00     0.198 C 
HETATM   11  C13 UNL     1      20.434   3.948  51.705  1.00  0.00     0.299 C 
HETATM   12  N3  UNL     1      21.653   3.369  52.135  1.00  0.00     0.103 N 
HETATM   13  C14 UNL     1      22.030   2.202  51.385  1.00  0.00     0.311 C 
HETATM   14  H11 UNL     1      25.837   3.914  51.424  1.00  0.00     0.316 HD
ENDROOT
BRANCH   1  15
HETATM   15  N1  UNL     1      25.207   0.421  52.658  1.00  0.00    -0.382 N 
BRANCH  15  16
HETATM   16  C2  UNL     1      26.556   0.292  52.125  1.00  0.00     0.137 C 
BRANCH  16  17
HETATM   17  C1  UNL     1      27.345  -0.750  52.910  1.00  0.00     0.134 C 
HETATM   18 CL1  UNL     1      28.247   0.043  54.244  1.00  0.00    -0.129 Cl
ENDBRANCH  16  17
ENDBRANCH  15  16
BRANCH  15  19
HETATM   19  C3  UNL     1      24.680  -0.488  53.619  1.00  0.00     0.137 C 
BRANCH  19  20
HETATM   20  C4  UNL     1      23.231  -0.792  53.467  1.00  0.00     0.134 C 
HETATM   21 CL2  UNL     1      22.342  -1.000  54.971  1.00  0.00    -0.129 Cl
ENDBRANCH  19  20
ENDBRANCH  15  19
ENDBRANCH   1  15
TORSDOF 5
ENDMDL
MODEL 9
REMARK VINA RESULT:      -5.8      3.160      4.979
REMARK  5 active torsions:
REMARK  status: ('A' for Active; 'I' for Inactive)
REMARK    1  A    between atoms: C1_2  and  C2_3 
REMARK    2  A    between atoms: C2_3  and  N1_4 
REMARK    3  A    between atoms: N1_4  and  C3_5 
REMARK    4  A    between atoms: N1_4  and  C5_8 
REMARK    5  A    between atoms: C3_5  and  C4_6 
ROOT
HETATM    1  C5  UNL     1      24.154   1.216  52.479  1.00  0.00     0.015 C 
HETATM    2  C6  UNL     1      24.643   2.424  52.250  1.00  0.00    -0.002 C 
HETATM    3  C7  UNL     1      23.925   3.563  52.982  1.00  0.00     0.308 C 
HETATM    4  N2  UNL     1      22.620   3.502  52.310  1.00  0.00     0.094 N 
HETATM    5  C8  UNL     1      22.867   2.724  51.061  1.00  0.00     0.261 C 
HETATM    6  C9  UNL     1      23.205   1.304  51.310  1.00  0.00     0.095 C 
HETATM    7  C10 UNL     1      23.720   3.476  50.096  1.00  0.00     0.280 C 
HETATM    8  C11 UNL     1      23.328   4.921  50.150  1.00  0.00     0.205 C 
HETATM    9  O1  UNL     1      24.317   5.856  50.198  1.00  0.00    -0.387 OA
HETATM   10  C12 UNL     1      25.591   5.507  49.952  1.00  0.00     0.198 C 
HETATM   11  C13 UNL     1      25.805   4.183  49.305  1.00  0.00     0.299 C 
HETATM   12  N3  UNL     1      25.107   3.190  50.033  1.00  0.00     0.103 N 
HETATM   13  C14 UNL     1      25.752   2.821  51.264  1.00  0.00     0.311 C 
HETATM   14  H11 UNL     1      21.899   3.010  52.859  1.00  0.00     0.316 HD
ENDROOT
BRANCH   1  15
HETATM   15  N1  UNL     1      24.045  -0.057  53.183  1.00  0.00    -0.382 N 
BRANCH  15  16
HETATM   16  C2  UNL     1      25.203  -0.563  53.909  1.00  0.00     0.137 C 
BRANCH  16  17
HETATM   17  C1  UNL     1      26.249  -1.102  52.941  1.00  0.00     0.134 C 
HETATM   18 CL1  UNL     1      27.624   0.047  52.823  1.00  0.00    -0.129 Cl
ENDBRANCH  16  17
ENDBRANCH  15  16
BRANCH  15  19
HETATM   19  C3  UNL     1      22.806  -0.758  53.149  1.00  0.00     0.137 C 
BRANCH  19  20
HETATM   20  C4  UNL     1      22.104  -0.854  54.458  1.00  0.00     0.134 C 
HETATM   21 CL2  UNL     1      20.837   0.338  54.723  1.00  0.00    -0.129 Cl
ENDBRANCH  19  20
ENDBRANCH  15  19
ENDBRANCH   1  15
TORSDOF 5
ENDMDL
