MODEL 1
REMARK VINA RESULT:      -7.4      0.000      0.000
REMARK  8 active torsions:
REMARK  status: ('A' for Active; 'I' for Inactive)
REMARK    1  A    between atoms: O1_2  and  C2_3 
REMARK    2  A    between atoms: C4_5  and  N1_6 
REMARK    3  A    between atoms: N1_6  and  C5_7 
REMARK    4  A    between atoms: C7_9  and  O2_10 
REMARK    5  A    between atoms: C9_12  and  O3_13 
REMARK    6  A    between atoms: C11_15  and  O4_16 
REMARK    7  A    between atoms: O4_16  and  C12_17 
REMARK    8  A    between atoms: C12_17  and  O5_18 
ROOT
HETATM    1  C5  UNL     1      26.185   2.379  52.845  1.00  0.00     0.035 A 
HETATM    2  C6  UNL     1      24.842   2.644  52.952  1.00  0.00     0.069 A 
HETATM    3  C7  UNL     1      24.011   3.152  51.980  1.00  0.00     0.106 A 
HETATM    4  C9  UNL     1      24.650   3.404  50.788  1.00  0.00     0.135 A 
HETATM    5  C11 UNL     1      25.990   3.167  50.598  1.00  0.00     0.110 A 
HETATM    6  C13 UNL     1      26.745   2.659  51.622  1.00  0.00     0.069 A 
ENDROOT
BRANCH   1   7
HETATM    7  N1  UNL     1      27.026   1.851  53.840  1.00  0.00    -0.354 N 
HETATM    8  H5  UNL     1      27.575   2.597  54.376  1.00  0.00     0.163 HD
BRANCH   7   9
HETATM    9  C4  UNL     1      27.413   0.502  54.405  1.00  0.00     0.193 A 
HETATM   10  C3  UNL     1      26.241   0.098  55.202  1.00  0.00     0.072 C 
HETATM   11  C2  UNL     1      25.386  -0.627  54.447  1.00  0.00     0.069 C 
HETATM   12  C17 UNL     1      25.429  -1.188  53.071  1.00  0.00     0.039 C 
HETATM   13  C16 UNL     1      26.600  -1.019  52.388  1.00  0.00     0.035 C 
HETATM   14  C15 UNL     1      27.572  -0.358  53.249  1.00  0.00     0.090 A 
HETATM   15  N3  UNL     1      28.845  -0.672  53.189  1.00  0.00    -0.242 NA
HETATM   16  C14 UNL     1      29.566  -0.069  54.284  1.00  0.00     0.230 A 
HETATM   17  N2  UNL     1      28.684   0.613  54.990  1.00  0.00    -0.240 NA
BRANCH  11  18
HETATM   18  O1  UNL     1      24.168  -1.050  55.043  1.00  0.00    -0.356 OA
HETATM   19  C1  UNL     1      23.007  -0.813  54.275  1.00  0.00     0.210 C 
ENDBRANCH  11  18
ENDBRANCH   7   9
ENDBRANCH   1   7
BRANCH   3  20
HETATM   20  O2  UNL     1      22.677   3.395  52.148  1.00  0.00    -0.353 OA
HETATM   21  C8  UNL     1      21.680   2.425  52.242  1.00  0.00     0.210 C 
ENDBRANCH   3  20
BRANCH   5  22
HETATM   22  O4  UNL     1      26.546   3.451  49.368  1.00  0.00    -0.323 OA
BRANCH  22  23
HETATM   23  C12 UNL     1      26.965   4.727  48.938  1.00  0.00     0.341 C 
BRANCH  23  24
HETATM   24  O5  UNL     1      28.293   4.888  49.338  1.00  0.00    -0.377 OA
HETATM   25  H15 UNL     1      28.660   4.097  49.787  1.00  0.00     0.212 HD
ENDBRANCH  23  24
ENDBRANCH  22  23
ENDBRANCH   5  22
BRANCH   4  26
HETATM   26  O3  UNL     1      23.916   3.919  49.729  1.00  0.00    -0.351 OA
HETATM   27  C10 UNL     1      23.276   2.975  48.876  1.00  0.00     0.210 C 
ENDBRANCH   4  26
TORSDOF 8
ENDMDL
MODEL 2
REMARK VINA RESULT:      -7.2      2.886      6.333
REMARK  8 active torsions:
REMARK  status: ('A' for Active; 'I' for Inactive)
REMARK    1  A    between atoms: O1_2  and  C2_3 
REMARK    2  A    between atoms: C4_5  and  N1_6 
REMARK    3  A    between atoms: N1_6  and  C5_7 
REMARK    4  A    between atoms: C7_9  and  O2_10 
REMARK    5  A    between atoms: C9_12  and  O3_13 
REMARK    6  A    between atoms: C11_15  and  O4_16 
REMARK    7  A    between atoms: O4_16  and  C12_17 
REMARK    8  A    between atoms: C12_17  and  O5_18 
ROOT
HETATM    1  C5  UNL     1      24.538   2.727  53.088  1.00  0.00     0.035 A 
HETATM    2  C6  UNL     1      23.836   1.554  52.963  1.00  0.00     0.069 A 
HETATM    3  C7  UNL     1      24.271   0.284  53.263  1.00  0.00     0.106 A 
HETATM    4  C9  UNL     1      25.562   0.243  53.739  1.00  0.00     0.135 A 
HETATM    5  C11 UNL     1      26.332   1.370  53.895  1.00  0.00     0.110 A 
HETATM    6  C13 UNL     1      25.818   2.598  53.570  1.00  0.00     0.069 A 
ENDROOT
BRANCH   1   7
HETATM    7  N1  UNL     1      24.084   4.023  52.788  1.00  0.00    -0.354 N 
HETATM    8  H5  UNL     1      24.375   4.756  53.511  1.00  0.00     0.163 HD
BRANCH   7   9
HETATM    9  C4  UNL     1      23.278   4.727  51.719  1.00  0.00     0.193 A 
HETATM   10  C3  UNL     1      24.011   5.985  51.488  1.00  0.00     0.072 C 
HETATM   11  C2  UNL     1      24.915   5.827  50.496  1.00  0.00     0.069 C 
HETATM   12  C17 UNL     1      25.233   4.734  49.540  1.00  0.00     0.039 C 
HETATM   13  C16 UNL     1      24.419   3.639  49.585  1.00  0.00     0.035 C 
HETATM   14  C15 UNL     1      23.359   3.863  50.558  1.00  0.00     0.090 A 
HETATM   15  N3  UNL     1      22.146   3.406  50.347  1.00  0.00    -0.242 NA
HETATM   16  C14 UNL     1      21.227   3.949  51.318  1.00  0.00     0.230 A 
HETATM   17  N2  UNL     1      21.930   4.734  52.110  1.00  0.00    -0.240 NA
BRANCH  11  18
HETATM   18  O1  UNL     1      25.755   6.929  50.181  1.00  0.00    -0.356 OA
HETATM   19  C1  UNL     1      26.528   6.781  49.009  1.00  0.00     0.210 C 
ENDBRANCH  11  18
ENDBRANCH   7   9
ENDBRANCH   1   7
BRANCH   3  20
HETATM   20  O2  UNL     1      23.522  -0.850  53.116  1.00  0.00    -0.353 OA
HETATM   21  C8  UNL     1      22.278  -1.082  53.700  1.00  0.00     0.210 C 
ENDBRANCH   3  20
BRANCH   5  22
HETATM   22  O4  UNL     1      27.617   1.234  54.378  1.00  0.00    -0.323 OA
BRANCH  22  23
HETATM   23  C12 UNL     1      28.792   1.575  53.677  1.00  0.00     0.341 C 
BRANCH  23  24
HETATM   24  O5  UNL     1      29.505   2.475  54.471  1.00  0.00    -0.377 OA
HETATM   25  H15 UNL     1      30.328   2.798  54.047  1.00  0.00     0.212 HD
ENDBRANCH  23  24
ENDBRANCH  22  23
ENDBRANCH   5  22
BRANCH   4  26
HETATM   26  O3  UNL     1      26.114  -0.984  54.078  1.00  0.00    -0.351 OA
HETATM   27  C10 UNL     1      26.806  -1.680  53.046  1.00  0.00     0.210 C 
ENDBRANCH   4  26
TORSDOF 8
ENDMDL
MODEL 3
REMARK VINA RESULT:      -7.1      0.775      2.858
REMARK  8 active torsions:
REMARK  status: ('A' for Active; 'I' for Inactive)
REMARK    1  A    between atoms: O1_2  and  C2_3 
REMARK    2  A    between atoms: C4_5  and  N1_6 
REMARK    3  A    between atoms: N1_6  and  C5_7 
REMARK    4  A    between atoms: C7_9  and  O2_10 
REMARK    5  A    between atoms: C9_12  and  O3_13 
REMARK    6  A    between atoms: C11_15  and  O4_16 
REMARK    7  A    between atoms: O4_16  and  C12_17 
REMARK    8  A    between atoms: C12_17  and  O5_18 
ROOT
HETATM    1  C5  UNL     1      26.183   2.439  52.603  1.00  0.00     0.035 A 
HETATM    2  C6  UNL     1      26.795   2.733  51.410  1.00  0.00     0.069 A 
HETATM    3  C7  UNL     1      26.201   3.188  50.256  1.00  0.00     0.106 A 
HETATM    4  C9  UNL     1      24.839   3.348  50.366  1.00  0.00     0.135 A 
HETATM    5  C11 UNL     1      24.149   3.076  51.523  1.00  0.00     0.110 A 
HETATM    6  C13 UNL     1      24.822   2.625  52.628  1.00  0.00     0.069 A 
ENDROOT
BRANCH   1   7
HETATM    7  N1  UNL     1      26.798   1.983  53.782  1.00  0.00    -0.354 N 
HETATM    8  H5  UNL     1      26.975   2.757  54.499  1.00  0.00     0.163 HD
BRANCH   7   9
HETATM    9  C4  UNL     1      27.309   0.686  54.371  1.00  0.00     0.193 A 
HETATM   10  C3  UNL     1      26.191   0.205  55.202  1.00  0.00     0.072 C 
HETATM   11  C2  UNL     1      25.387  -0.609  54.483  1.00  0.00     0.069 C 
HETATM   12  C17 UNL     1      25.451  -1.199  53.120  1.00  0.00     0.039 C 
HETATM   13  C16 UNL     1      26.589  -0.949  52.409  1.00  0.00     0.035 C 
HETATM   14  C15 UNL     1      27.518  -0.186  53.232  1.00  0.00     0.090 A 
HETATM   15  N3  UNL     1      28.812  -0.393  53.152  1.00  0.00    -0.242 NA
HETATM   16  C14 UNL     1      29.500   0.297  54.217  1.00  0.00     0.230 A 
HETATM   17  N2  UNL     1      28.577   0.919  54.925  1.00  0.00    -0.240 NA
BRANCH  11  18
HETATM   18  O1  UNL     1      24.221  -1.118  55.115  1.00  0.00    -0.356 OA
HETATM   19  C1  UNL     1      23.015  -0.913  54.409  1.00  0.00     0.210 C 
ENDBRANCH  11  18
ENDBRANCH   7   9
ENDBRANCH   1   7
BRANCH   3  20
HETATM   20  O2  UNL     1      26.867   3.465  49.096  1.00  0.00    -0.353 OA
HETATM   21  C8  UNL     1      27.523   4.659  48.800  1.00  0.00     0.210 C 
ENDBRANCH   3  20
BRANCH   5  22
HETATM   22  O4  UNL     1      22.783   3.265  51.541  1.00  0.00    -0.323 OA
BRANCH  22  23
HETATM   23  C12 UNL     1      22.086   4.088  52.449  1.00  0.00     0.341 C 
BRANCH  23  24
HETATM   24  O5  UNL     1      22.646   5.365  52.371  1.00  0.00    -0.377 OA
HETATM   25  H15 UNL     1      22.106   5.993  51.847  1.00  0.00     0.212 HD
ENDBRANCH  23  24
ENDBRANCH  22  23
ENDBRANCH   5  22
BRANCH   4  26
HETATM   26  O3  UNL     1      24.125   3.803  49.266  1.00  0.00    -0.351 OA
HETATM   27  C10 UNL     1      23.964   5.213  49.148  1.00  0.00     0.210 C 
ENDBRANCH   4  26
TORSDOF 8
ENDMDL
MODEL 4
REMARK VINA RESULT:      -7.1      2.643      6.873
REMARK  8 active torsions:
REMARK  status: ('A' for Active; 'I' for Inactive)
REMARK    1  A    between atoms: O1_2  and  C2_3 
REMARK    2  A    between atoms: C4_5  and  N1_6 
REMARK    3  A    between atoms: N1_6  and  C5_7 
REMARK    4  A    between atoms: C7_9  and  O2_10 
REMARK    5  A    between atoms: C9_12  and  O3_13 
REMARK    6  A    between atoms: C11_15  and  O4_16 
REMARK    7  A    between atoms: O4_16  and  C12_17 
REMARK    8  A    between atoms: C12_17  and  O5_18 
ROOT
HETATM    1  C5  UNL     1      24.813   2.446  52.999  1.00  0.00     0.035 A 
HETATM    2  C6  UNL     1      26.158   2.169  53.018  1.00  0.00     0.069 A 
HETATM    3  C7  UNL     1      26.757   0.953  53.252  1.00  0.00     0.106 A 
HETATM    4  C9  UNL     1      25.862  -0.064  53.487  1.00  0.00     0.135 A 
HETATM    5  C11 UNL     1      24.502   0.127  53.486  1.00  0.00     0.110 A 
HETATM    6  C13 UNL     1      23.988   1.374  53.243  1.00  0.00     0.069 A 
ENDROOT
BRANCH   1   7
HETATM    7  N1  UNL     1      24.207   3.689  52.751  1.00  0.00    -0.354 N 
HETATM    8  H5  UNL     1      24.379   4.411  53.522  1.00  0.00     0.163 HD
BRANCH   7   9
HETATM    9  C4  UNL     1      23.351   4.347  51.690  1.00  0.00     0.193 A 
HETATM   10  C3  UNL     1      24.026   5.631  51.430  1.00  0.00     0.072 C 
HETATM   11  C2  UNL     1      24.916   5.498  50.422  1.00  0.00     0.069 C 
HETATM   12  C17 UNL     1      25.260   4.407  49.472  1.00  0.00     0.039 C 
HETATM   13  C16 UNL     1      24.493   3.280  49.546  1.00  0.00     0.035 C 
HETATM   14  C15 UNL     1      23.444   3.472  50.539  1.00  0.00     0.090 A 
HETATM   15  N3  UNL     1      22.248   2.963  50.357  1.00  0.00    -0.242 NA
HETATM   16  C14 UNL     1      21.326   3.478  51.341  1.00  0.00     0.230 A 
HETATM   17  N2  UNL     1      22.012   4.302  52.109  1.00  0.00    -0.240 NA
BRANCH  11  18
HETATM   18  O1  UNL     1      25.702   6.630  50.076  1.00  0.00    -0.356 OA
HETATM   19  C1  UNL     1      26.516   6.472  48.933  1.00  0.00     0.210 C 
ENDBRANCH  11  18
ENDBRANCH   7   9
ENDBRANCH   1   7
BRANCH   3  20
HETATM   20  O2  UNL     1      28.107   0.741  53.257  1.00  0.00    -0.353 OA
HETATM   21  C8  UNL     1      28.964   0.980  54.330  1.00  0.00     0.210 C 
ENDBRANCH   3  20
BRANCH   5  22
HETATM   22  O4  UNL     1      23.679  -0.952  53.732  1.00  0.00    -0.323 OA
BRANCH  22  23
HETATM   23  C12 UNL     1      22.704  -1.019  54.749  1.00  0.00     0.341 C 
BRANCH  23  24
HETATM   24  O5  UNL     1      23.268  -1.710  55.823  1.00  0.00    -0.377 OA
HETATM   25  H15 UNL     1      22.610  -1.981  56.498  1.00  0.00     0.212 HD
ENDBRANCH  23  24
ENDBRANCH  22  23
ENDBRANCH   5  22
BRANCH   4  26
HETATM   26  O3  UNL     1      26.347  -1.341  53.735  1.00  0.00    -0.351 OA
HETATM   27  C10 UNL     1      26.801  -2.083  52.608  1.00  0.00     0.210 C 
ENDBRANCH   4  26
TORSDOF 8
ENDMDL
MODEL 5
REMARK VINA RESULT:      -6.7      2.909      6.080
REMARK  8 active torsions:
REMARK  status: ('A' for Active; 'I' for Inactive)
REMARK    1  A    between atoms: O1_2  and  C2_3 
REMARK    2  A    between atoms: C4_5  and  N1_6 
REMARK    3  A    between atoms: N1_6  and  C5_7 
REMARK    4  A    between atoms: C7_9  and  O2_10 
REMARK    5  A    between atoms: C9_12  and  O3_13 
REMARK    6  A    between atoms: C11_15  and  O4_16 
REMARK    7  A    between atoms: O4_16  and  C12_17 
REMARK    8  A    between atoms: C12_17  and  O5_18 
ROOT
HETATM    1  C5  UNL     1      25.363   2.473  52.119  1.00  0.00     0.035 A 
HETATM    2  C6  UNL     1      24.534   1.422  52.421  1.00  0.00     0.069 A 
HETATM    3  C7  UNL     1      24.892   0.200  52.942  1.00  0.00     0.106 A 
HETATM    4  C9  UNL     1      26.243   0.071  53.164  1.00  0.00     0.135 A 
HETATM    5  C11 UNL     1      27.140   1.075  52.889  1.00  0.00     0.110 A 
HETATM    6  C13 UNL     1      26.697   2.263  52.371  1.00  0.00     0.069 A 
ENDROOT
BRANCH   1   7
HETATM    7  N1  UNL     1      24.990   3.724  51.595  1.00  0.00    -0.354 N 
HETATM    8  H5  UNL     1      24.858   4.478  52.343  1.00  0.00     0.163 HD
BRANCH   7   9
HETATM    9  C4  UNL     1      24.704   4.355  50.251  1.00  0.00     0.193 A 
HETATM   10  C3  UNL     1      23.296   4.013  49.985  1.00  0.00     0.072 C 
HETATM   11  C2  UNL     1      22.480   4.985  50.451  1.00  0.00     0.069 C 
HETATM   12  C17 UNL     1      22.695   6.332  51.042  1.00  0.00     0.039 C 
HETATM   13  C16 UNL     1      23.988   6.768  51.093  1.00  0.00     0.035 C 
HETATM   14  C15 UNL     1      24.857   5.781  50.466  1.00  0.00     0.090 A 
HETATM   15  N3  UNL     1      25.902   6.156  49.765  1.00  0.00    -0.242 NA
HETATM   16  C14 UNL     1      26.462   5.031  49.055  1.00  0.00     0.230 A 
HETATM   17  N2  UNL     1      25.722   3.982  49.359  1.00  0.00    -0.240 NA
BRANCH  11  18
HETATM   18  O1  UNL     1      21.078   4.789  50.332  1.00  0.00    -0.356 OA
HETATM   19  C1  UNL     1      20.495   3.982  51.333  1.00  0.00     0.210 C 
ENDBRANCH  11  18
ENDBRANCH   7   9
ENDBRANCH   1   7
BRANCH   3  20
HETATM   20  O2  UNL     1      24.016  -0.811  53.223  1.00  0.00    -0.353 OA
HETATM   21  C8  UNL     1      22.896  -0.711  54.046  1.00  0.00     0.210 C 
ENDBRANCH   3  20
BRANCH   5  22
HETATM   22  O4  UNL     1      28.478   0.857  53.144  1.00  0.00    -0.323 OA
BRANCH  22  23
HETATM   23  C12 UNL     1      29.125   1.102  54.373  1.00  0.00     0.341 C 
BRANCH  23  24
HETATM   24  O5  UNL     1      29.457   2.458  54.407  1.00  0.00    -0.377 OA
HETATM   25  H15 UNL     1      28.990   2.988  53.727  1.00  0.00     0.212 HD
ENDBRANCH  23  24
ENDBRANCH  22  23
ENDBRANCH   5  22
BRANCH   4  26
HETATM   26  O3  UNL     1      26.727  -1.119  53.689  1.00  0.00    -0.351 OA
HETATM   27  C10 UNL     1      27.104  -2.124  52.753  1.00  0.00     0.210 C 
ENDBRANCH   4  26
TORSDOF 8
ENDMDL
MODEL 6
REMARK VINA RESULT:      -6.7      5.184      8.438
REMARK  8 active torsions:
REMARK  status: ('A' for Active; 'I' for Inactive)
REMARK    1  A    between atoms: O1_2  and  C2_3 
REMARK    2  A    between atoms: C4_5  and  N1_6 
REMARK    3  A    between atoms: N1_6  and  C5_7 
REMARK    4  A    between atoms: C7_9  and  O2_10 
REMARK    5  A    between atoms: C9_12  and  O3_13 
REMARK    6  A    between atoms: C11_15  and  O4_16 
REMARK    7  A    between atoms: O4_16  and  C12_17 
REMARK    8  A    between atoms: C12_17  and  O5_18 
ROOT
HETATM    1  C5  UNL     1      28.829   5.706  48.209  1.00  0.00     0.035 A 
HETATM    2  C6  UNL     1      27.813   4.846  48.545  1.00  0.00     0.069 A 
HETATM    3  C7  UNL     1      26.548   5.176  48.975  1.00  0.00     0.106 A 
HETATM    4  C9  UNL     1      26.332   6.532  49.058  1.00  0.00     0.135 A 
HETATM    5  C11 UNL     1      27.295   7.459  48.740  1.00  0.00     0.110 A 
HETATM    6  C13 UNL     1      28.531   7.042  48.320  1.00  0.00     0.069 A 
ENDROOT
BRANCH   1   7
HETATM    7  N1  UNL     1      30.117   5.363  47.762  1.00  0.00    -0.354 N 
HETATM    8  H5  UNL     1      30.124   4.890  46.801  1.00  0.00     0.163 HD
BRANCH   7   9
HETATM    9  C4  UNL     1      31.549   5.456  48.238  1.00  0.00     0.193 A 
HETATM   10  C3  UNL     1      32.225   4.331  47.568  1.00  0.00     0.072 C 
HETATM   11  C2  UNL     1      32.745   4.731  46.387  1.00  0.00     0.069 C 
HETATM   12  C17 UNL     1      32.885   6.042  45.700  1.00  0.00     0.039 C 
HETATM   13  C16 UNL     1      32.467   7.137  46.401  1.00  0.00     0.035 C 
HETATM   14  C15 UNL     1      32.032   6.724  47.729  1.00  0.00     0.090 A 
HETATM   15  N3  UNL     1      32.250   7.489  48.774  1.00  0.00    -0.242 NA
HETATM   16  C14 UNL     1      31.950   6.775  49.992  1.00  0.00     0.230 A 
HETATM   17  N2  UNL     1      31.546   5.571  49.637  1.00  0.00    -0.240 NA
BRANCH  11  18
HETATM   18  O1  UNL     1      33.383   3.754  45.577  1.00  0.00    -0.356 OA
HETATM   19  C1  UNL     1      34.771   3.937  45.393  1.00  0.00     0.210 C 
ENDBRANCH  11  18
ENDBRANCH   7   9
ENDBRANCH   1   7
BRANCH   3  20
HETATM   20  O2  UNL     1      25.576   4.270  49.296  1.00  0.00    -0.353 OA
HETATM   21  C8  UNL     1      25.666   3.300  50.292  1.00  0.00     0.210 C 
ENDBRANCH   3  20
BRANCH   5  22
HETATM   22  O4  UNL     1      26.989   8.799  48.855  1.00  0.00    -0.323 OA
BRANCH  22  23
HETATM   23  C12 UNL     1      27.712   9.738  49.620  1.00  0.00     0.341 C 
BRANCH  23  24
HETATM   24  O5  UNL     1      27.574   9.378  50.962  1.00  0.00    -0.377 OA
HETATM   25  H15 UNL     1      28.007  10.006  51.578  1.00  0.00     0.212 HD
ENDBRANCH  23  24
ENDBRANCH  22  23
ENDBRANCH   5  22
BRANCH   4  26
HETATM   26  O3  UNL     1      25.092   6.989  49.480  1.00  0.00    -0.351 OA
HETATM   27  C10 UNL     1      24.868   7.025  50.886  1.00  0.00     0.210 C 
ENDBRANCH   4  26
TORSDOF 8
ENDMDL
MODEL 7
REMARK VINA RESULT:      -6.6      2.862      6.656
REMARK  8 active torsions:
REMARK  status: ('A' for Active; 'I' for Inactive)
REMARK    1  A    between atoms: O1_2  and  C2_3 
REMARK    2  A    between atoms: C4_5  and  N1_6 
REMARK    3  A    between atoms: N1_6  and  C5_7 
REMARK    4  A    between atoms: C7_9  and  O2_10 
REMARK    5  A    between atoms: C9_12  and  O3_13 
REMARK    6  A    between atoms: C11_15  and  O4_16 
REMARK    7  A    between atoms: O4_16  and  C12_17 
REMARK    8  A    between atoms: C12_17  and  O5_18 
ROOT
HETATM    1  C5  UNL     1      24.952   2.337  52.703  1.00  0.00     0.035 A 
HETATM    2  C6  UNL     1      26.299   2.073  52.714  1.00  0.00     0.069 A 
HETATM    3  C7  UNL     1      26.914   0.886  53.040  1.00  0.00     0.106 A 
HETATM    4  C9  UNL     1      26.034  -0.113  53.385  1.00  0.00     0.135 A 
HETATM    5  C11 UNL     1      24.672   0.068  53.399  1.00  0.00     0.110 A 
HETATM    6  C13 UNL     1      24.142   1.286  53.059  1.00  0.00     0.069 A 
ENDROOT
BRANCH   1   7
HETATM    7  N1  UNL     1      24.329   3.550  52.359  1.00  0.00    -0.354 N 
HETATM    8  H5  UNL     1      24.137   4.185  53.199  1.00  0.00     0.163 HD
BRANCH   7   9
HETATM    9  C4  UNL     1      23.823   4.259  51.123  1.00  0.00     0.193 A 
HETATM   10  C3  UNL     1      23.741   3.195  50.107  1.00  0.00     0.072 C 
HETATM   11  C2  UNL     1      22.510   2.637  50.111  1.00  0.00     0.069 C 
HETATM   12  C17 UNL     1      21.232   2.934  50.808  1.00  0.00     0.039 C 
HETATM   13  C16 UNL     1      21.219   4.055  51.588  1.00  0.00     0.035 C 
HETATM   14  C15 UNL     1      22.502   4.737  51.479  1.00  0.00     0.090 A 
HETATM   15  N3  UNL     1      22.568   6.048  51.491  1.00  0.00    -0.242 NA
HETATM   16  C14 UNL     1      23.895   6.489  51.134  1.00  0.00     0.230 A 
HETATM   17  N2  UNL     1      24.610   5.403  50.914  1.00  0.00    -0.240 NA
BRANCH  11  18
HETATM   18  O1  UNL     1      22.273   1.548  49.229  1.00  0.00    -0.356 OA
HETATM   19  C1  UNL     1      20.960   1.462  48.717  1.00  0.00     0.210 C 
ENDBRANCH  11  18
ENDBRANCH   7   9
ENDBRANCH   1   7
BRANCH   3  20
HETATM   20  O2  UNL     1      28.266   0.685  53.033  1.00  0.00    -0.353 OA
HETATM   21  C8  UNL     1      29.144   1.022  54.062  1.00  0.00     0.210 C 
ENDBRANCH   3  20
BRANCH   5  22
HETATM   22  O4  UNL     1      23.865  -0.990  53.759  1.00  0.00    -0.323 OA
BRANCH  22  23
HETATM   23  C12 UNL     1      22.823  -0.936  54.708  1.00  0.00     0.341 C 
BRANCH  23  24
HETATM   24  O5  UNL     1      23.229  -1.681  55.816  1.00  0.00    -0.377 OA
HETATM   25  H15 UNL     1      23.368  -2.631  55.615  1.00  0.00     0.212 HD
ENDBRANCH  23  24
ENDBRANCH  22  23
ENDBRANCH   5  22
BRANCH   4  26
HETATM   26  O3  UNL     1      26.536  -1.359  53.734  1.00  0.00    -0.351 OA
HETATM   27  C10 UNL     1      26.960  -2.199  52.666  1.00  0.00     0.210 C 
ENDBRANCH   4  26
TORSDOF 8
ENDMDL
MODEL 8
REMARK VINA RESULT:      -6.5      2.885      6.735
REMARK  8 active torsions:
REMARK  status: ('A' for Active; 'I' for Inactive)
REMARK    1  A    between atoms: O1_2  and  C2_3 
REMARK    2  A    between atoms: C4_5  and  N1_6 
REMARK    3  A    between atoms: N1_6  and  C5_7 
REMARK    4  A    between atoms: C7_9  and  O2_10 
REMARK    5  A    between atoms: C9_12  and  O3_13 
REMARK    6  A    between atoms: C11_15  and  O4_16 
REMARK    7  A    between atoms: O4_16  and  C12_17 
REMARK    8  A    between atoms: C12_17  and  O5_18 
ROOT
HETATM    1  C5  UNL     1      25.133   2.300  52.663  1.00  0.00     0.035 A 
HETATM    2  C6  UNL     1      26.241   2.022  53.425  1.00  0.00     0.069 A 
HETATM    3  C7  UNL     1      26.454   0.916  54.215  1.00  0.00     0.106 A 
HETATM    4  C9  UNL     1      25.408   0.023  54.205  1.00  0.00     0.135 A 
HETATM    5  C11 UNL     1      24.265   0.226  53.471  1.00  0.00     0.110 A 
HETATM    6  C13 UNL     1      24.134   1.357  52.709  1.00  0.00     0.069 A 
ENDROOT
BRANCH   1   7
HETATM    7  N1  UNL     1      24.924   3.428  51.850  1.00  0.00    -0.354 N 
HETATM    8  H5  UNL     1      24.785   4.334  52.402  1.00  0.00     0.163 HD
BRANCH   7   9
HETATM    9  C4  UNL     1      24.831   3.768  50.379  1.00  0.00     0.193 A 
HETATM   10  C3  UNL     1      23.455   3.390  50.010  1.00  0.00     0.072 C 
HETATM   11  C2  UNL     1      22.623   4.444  50.157  1.00  0.00     0.069 C 
HETATM   12  C17 UNL     1      22.809   5.883  50.481  1.00  0.00     0.039 C 
HETATM   13  C16 UNL     1      24.101   6.309  50.608  1.00  0.00     0.035 C 
HETATM   14  C15 UNL     1      25.006   5.205  50.315  1.00  0.00     0.090 A 
HETATM   15  N3  UNL     1      26.142   5.417  49.692  1.00  0.00    -0.242 NA
HETATM   16  C14 UNL     1      26.747   4.165  49.307  1.00  0.00     0.230 A 
HETATM   17  N2  UNL     1      25.938   3.209  49.722  1.00  0.00    -0.240 NA
BRANCH  11  18
HETATM   18  O1  UNL     1      21.240   4.240  49.900  1.00  0.00    -0.356 OA
HETATM   19  C1  UNL     1      20.443   5.405  49.931  1.00  0.00     0.210 C 
ENDBRANCH  11  18
ENDBRANCH   7   9
ENDBRANCH   1   7
BRANCH   3  20
HETATM   20  O2  UNL     1      27.583   0.695  54.952  1.00  0.00    -0.353 OA
HETATM   21  C8  UNL     1      28.834   0.354  54.440  1.00  0.00     0.210 C 
ENDBRANCH   3  20
BRANCH   5  22
HETATM   22  O4  UNL     1      23.266  -0.724  53.522  1.00  0.00    -0.323 OA
BRANCH  22  23
HETATM   23  C12 UNL     1      21.990  -0.536  54.092  1.00  0.00     0.341 C 
BRANCH  23  24
HETATM   24  O5  UNL     1      21.833  -1.499  55.091  1.00  0.00    -0.377 OA
HETATM   25  H15 UNL     1      20.990  -1.411  55.585  1.00  0.00     0.212 HD
ENDBRANCH  23  24
ENDBRANCH  22  23
ENDBRANCH   5  22
BRANCH   4  26
HETATM   26  O3  UNL     1      25.506  -1.134  54.965  1.00  0.00    -0.351 OA
HETATM   27  C10 UNL     1      25.099  -1.040  56.327  1.00  0.00     0.210 C 
ENDBRANCH   4  26
TORSDOF 8
ENDMDL
MODEL 9
REMARK VINA RESULT:      -6.5      3.100      6.263
REMARK  8 active torsions:
REMARK  status: ('A' for Active; 'I' for Inactive)
REMARK    1  A    between atoms: O1_2  and  C2_3 
REMARK    2  A    between atoms: C4_5  and  N1_6 
REMARK    3  A    between atoms: N1_6  and  C5_7 
REMARK    4  A    between atoms: C7_9  and  O2_10 
REMARK    5  A    between atoms: C9_12  and  O3_13 
REMARK    6  A    between atoms: C11_15  and  O4_16 
REMARK    7  A    between atoms: O4_16  and  C12_17 
REMARK    8  A    between atoms: C12_17  and  O5_18 
ROOT
HETATM    1  C5  UNL     1      23.964   2.838  52.588  1.00  0.00     0.035 A 
HETATM    2  C6  UNL     1      23.376   1.599  52.654  1.00  0.00     0.069 A 
HETATM    3  C7  UNL     1      23.931   0.437  53.137  1.00  0.00     0.106 A 
HETATM    4  C9  UNL     1      25.220   0.590  53.591  1.00  0.00     0.135 A 
HETATM    5  C11 UNL     1      25.880   1.794  53.561  1.00  0.00     0.110 A 
HETATM    6  C13 UNL     1      25.252   2.905  53.062  1.00  0.00     0.069 A 
ENDROOT
BRANCH   1   7
HETATM    7  N1  UNL     1      23.388   4.025  52.102  1.00  0.00    -0.354 N 
HETATM    8  H5  UNL     1      22.781   4.532  52.822  1.00  0.00     0.163 HD
BRANCH   7   9
HETATM    9  C4  UNL     1      23.360   4.836  50.825  1.00  0.00     0.193 A 
HETATM   10  C3  UNL     1      23.508   3.831  49.758  1.00  0.00     0.072 C 
HETATM   11  C2  UNL     1      22.296   3.404  49.341  1.00  0.00     0.069 C 
HETATM   12  C17 UNL     1      20.894   3.804  49.631  1.00  0.00     0.039 C 
HETATM   13  C16 UNL     1      20.733   4.886  50.449  1.00  0.00     0.035 C 
HETATM   14  C15 UNL     1      22.039   5.433  50.790  1.00  0.00     0.090 A 
HETATM   15  N3  UNL     1      22.211   6.729  50.919  1.00  0.00    -0.242 NA
HETATM   16  C14 UNL     1      23.616   7.043  51.021  1.00  0.00     0.230 A 
HETATM   17  N2  UNL     1      24.268   5.899  50.952  1.00  0.00    -0.240 NA
BRANCH  11  18
HETATM   18  O1  UNL     1      22.254   2.385  48.352  1.00  0.00    -0.356 OA
HETATM   19  C1  UNL     1      21.555   1.215  48.722  1.00  0.00     0.210 C 
ENDBRANCH  11  18
ENDBRANCH   7   9
ENDBRANCH   1   7
BRANCH   3  20
HETATM   20  O2  UNL     1      23.292  -0.771  53.177  1.00  0.00    -0.353 OA
HETATM   21  C8  UNL     1      22.330  -1.151  54.112  1.00  0.00     0.210 C 
ENDBRANCH   3  20
BRANCH   5  22
HETATM   22  O4  UNL     1      27.173   1.854  54.037  1.00  0.00    -0.323 OA
BRANCH  22  23
HETATM   23  C12 UNL     1      28.339   1.732  53.253  1.00  0.00     0.341 C 
BRANCH  23  24
HETATM   24  O5  UNL     1      28.867   3.013  53.087  1.00  0.00    -0.377 OA
HETATM   25  H15 UNL     1      28.276   3.722  53.419  1.00  0.00     0.212 HD
ENDBRANCH  23  24
ENDBRANCH  22  23
ENDBRANCH   5  22
BRANCH   4  26
HETATM   26  O3  UNL     1      25.887  -0.514  54.104  1.00  0.00    -0.351 OA
HETATM   27  C10 UNL     1      26.510  -1.379  53.160  1.00  0.00     0.210 C 
ENDBRANCH   4  26
TORSDOF 8
ENDMDL
