MODEL 1
REMARK VINA RESULT:      -8.0      0.000      0.000
REMARK  3 active torsions:
REMARK  status: ('A' for Active; 'I' for Inactive)
REMARK    1  A    between atoms: N1_1  and  C1_2 
REMARK    2  A    between atoms: C7_8  and  N2_9 
REMARK    3  A    between atoms: N2_9  and  C8_10 
ROOT
HETATM    1  C1  UNL     1      28.587  -2.063  53.246  1.00  0.00     0.026 A 
HETATM    2  C2  UNL     1      29.774  -1.357  53.294  1.00  0.00     0.029 A 
HETATM    3  C3  UNL     1      29.801   0.028  53.449  1.00  0.00     0.010 A 
HETATM    4  C4  UNL     1      28.585   0.680  53.555  1.00  0.00    -0.042 A 
HETATM    5  C5  UNL     1      27.411  -0.044  53.504  1.00  0.00     0.018 A 
HETATM    6  C6  UNL     1      27.366  -1.393  53.354  1.00  0.00     0.044 A 
HETATM    7  C7  UNL     1      26.184   0.725  53.622  1.00  0.00     0.134 A 
HETATM    8  N3  UNL     1      26.227   1.985  53.762  1.00  0.00    -0.272 NA
HETATM    9  C14 UNL     1      27.371   2.832  53.827  1.00  0.00     0.155 A 
HETATM   10  C15 UNL     1      28.697   2.152  53.716  1.00  0.00     0.061 A 
ENDROOT
BRANCH   7  11
HETATM   11  N2  UNL     1      24.918   0.047  53.580  1.00  0.00    -0.341 N 
HETATM   12  H6  UNL     1      24.762  -0.760  54.212  1.00  0.00     0.167 HD
BRANCH  11  13
HETATM   13  C8  UNL     1      23.907   0.513  52.661  1.00  0.00     0.035 C 
HETATM   14  C9  UNL     1      22.700   0.028  52.890  1.00  0.00     0.031 C 
HETATM   15  C10 UNL     1      21.424   0.206  52.251  1.00  0.00     0.028 C 
HETATM   16  C11 UNL     1      21.052   1.181  51.460  1.00  0.00     0.048 C 
HETATM   17  I1  UNL     1      19.071   1.030  50.749  1.00  0.00    -0.036 I 
HETATM   18  S1  UNL     1      21.882   2.639  50.845  1.00  0.00    -0.071 SA
HETATM   19  C12 UNL     1      23.638   2.283  50.871  1.00  0.00     0.077 C 
HETATM   20 CL1  UNL     1      24.598   3.197  49.729  1.00  0.00    -0.076 Cl
HETATM   21  C13 UNL     1      24.311   1.429  51.628  1.00  0.00     0.060 C 
ENDBRANCH  11  13
ENDBRANCH   7  11
BRANCH   1  22
HETATM   22  N1  UNL     1      28.640  -3.480  53.086  1.00  0.00    -0.399 N 
HETATM   23  H1  UNL     1      28.121  -4.029  52.383  1.00  0.00     0.156 HD
HETATM   24  H2  UNL     1      29.246  -4.048  53.720  1.00  0.00     0.156 HD
ENDBRANCH   1  22
TORSDOF 3
ENDMDL
MODEL 2
REMARK VINA RESULT:      -8.0      1.929      2.284
REMARK  3 active torsions:
REMARK  status: ('A' for Active; 'I' for Inactive)
REMARK    1  A    between atoms: N1_1  and  C1_2 
REMARK    2  A    between atoms: C7_8  and  N2_9 
REMARK    3  A    between atoms: N2_9  and  C8_10 
ROOT
HETATM    1  C1  UNL     1      28.599  -2.088  53.192  1.00  0.00     0.026 A 
HETATM    2  C2  UNL     1      29.729  -1.420  53.621  1.00  0.00     0.029 A 
HETATM    3  C3  UNL     1      29.751  -0.036  53.781  1.00  0.00     0.010 A 
HETATM    4  C4  UNL     1      28.588   0.656  53.491  1.00  0.00    -0.042 A 
HETATM    5  C5  UNL     1      27.470  -0.029  53.064  1.00  0.00     0.018 A 
HETATM    6  C6  UNL     1      27.431  -1.378  52.904  1.00  0.00     0.044 A 
HETATM    7  C7  UNL     1      26.296   0.779  52.784  1.00  0.00     0.134 A 
HETATM    8  N3  UNL     1      26.334   2.038  52.934  1.00  0.00    -0.272 NA
HETATM    9  C14 UNL     1      27.424   2.848  53.366  1.00  0.00     0.155 A 
HETATM   10  C15 UNL     1      28.691   2.125  53.685  1.00  0.00     0.061 A 
ENDROOT
BRANCH   7  11
HETATM   11  N2  UNL     1      25.089   0.143  52.335  1.00  0.00    -0.341 N 
HETATM   12  H6  UNL     1      25.130  -0.847  52.029  1.00  0.00     0.167 HD
BRANCH  11  13
HETATM   13  C8  UNL     1      23.862   0.902  52.326  1.00  0.00     0.035 C 
HETATM   14  C9  UNL     1      23.792   1.810  51.369  1.00  0.00     0.031 C 
HETATM   15  C10 UNL     1      22.792   2.769  50.985  1.00  0.00     0.028 C 
HETATM   16  C11 UNL     1      21.518   2.764  51.287  1.00  0.00     0.048 C 
HETATM   17  I1  UNL     1      20.420   4.385  50.499  1.00  0.00    -0.036 I 
HETATM   18  S1  UNL     1      20.494   1.654  52.242  1.00  0.00    -0.071 SA
HETATM   19  C12 UNL     1      21.575   0.830  53.408  1.00  0.00     0.077 C 
HETATM   20 CL1  UNL     1      20.794   0.251  54.864  1.00  0.00    -0.076 Cl
HETATM   21  C13 UNL     1      22.876   0.597  53.328  1.00  0.00     0.060 C 
ENDBRANCH  11  13
ENDBRANCH   7  11
BRANCH   1  22
HETATM   22  N1  UNL     1      28.653  -3.507  53.054  1.00  0.00    -0.399 N 
HETATM   23  H1  UNL     1      27.850  -4.128  52.866  1.00  0.00     0.156 HD
HETATM   24  H2  UNL     1      29.570  -3.999  53.145  1.00  0.00     0.156 HD
ENDBRANCH   1  22
TORSDOF 3
ENDMDL
MODEL 3
REMARK VINA RESULT:      -7.9      4.509      6.164
REMARK  3 active torsions:
REMARK  status: ('A' for Active; 'I' for Inactive)
REMARK    1  A    between atoms: N1_1  and  C1_2 
REMARK    2  A    between atoms: C7_8  and  N2_9 
REMARK    3  A    between atoms: N2_9  and  C8_10 
ROOT
HETATM    1  C1  UNL     1      22.889   0.689  52.152  1.00  0.00     0.026 A 
HETATM    2  C2  UNL     1      23.299   0.112  53.339  1.00  0.00     0.029 A 
HETATM    3  C3  UNL     1      24.592   0.279  53.830  1.00  0.00     0.010 A 
HETATM    4  C4  UNL     1      25.463   1.051  53.082  1.00  0.00    -0.042 A 
HETATM    5  C5  UNL     1      25.033   1.619  51.899  1.00  0.00     0.018 A 
HETATM    6  C6  UNL     1      23.777   1.467  51.406  1.00  0.00     0.044 A 
HETATM    7  C7  UNL     1      26.015   2.413  51.181  1.00  0.00     0.134 A 
HETATM    8  N3  UNL     1      27.188   2.554  51.643  1.00  0.00    -0.272 NA
HETATM    9  C14 UNL     1      27.740   2.019  52.843  1.00  0.00     0.155 A 
HETATM   10  C15 UNL     1      26.820   1.181  53.670  1.00  0.00     0.061 A 
ENDROOT
BRANCH   7  11
HETATM   11  N2  UNL     1      25.649   3.039  49.942  1.00  0.00    -0.341 N 
HETATM   12  H6  UNL     1      25.071   2.508  49.265  1.00  0.00     0.167 HD
BRANCH  11  13
HETATM   13  C8  UNL     1      26.097   4.386  49.681  1.00  0.00     0.035 C 
HETATM   14  C9  UNL     1      27.186   4.462  48.937  1.00  0.00     0.031 C 
HETATM   15  C10 UNL     1      27.969   5.560  48.438  1.00  0.00     0.028 C 
HETATM   16  C11 UNL     1      27.607   6.811  48.311  1.00  0.00     0.048 C 
HETATM   17  I1  UNL     1      29.097   8.084  47.527  1.00  0.00    -0.036 I 
HETATM   18  S1  UNL     1      26.091   7.686  48.668  1.00  0.00    -0.071 SA
HETATM   19  C12 UNL     1      25.247   6.756  49.945  1.00  0.00     0.077 C 
HETATM   20 CL1  UNL     1      24.151   7.688  50.943  1.00  0.00    -0.076 Cl
HETATM   21  C13 UNL     1      25.333   5.468  50.243  1.00  0.00     0.060 C 
ENDBRANCH  11  13
ENDBRANCH   7  11
BRANCH   1  22
HETATM   22  N1  UNL     1      21.548   0.473  51.714  1.00  0.00    -0.399 N 
HETATM   23  H1  UNL     1      20.693   0.692  52.250  1.00  0.00     0.156 HD
HETATM   24  H2  UNL     1      21.375   0.057  50.772  1.00  0.00     0.156 HD
ENDBRANCH   1  22
TORSDOF 3
ENDMDL
MODEL 4
REMARK VINA RESULT:      -7.9      3.470      4.746
REMARK  3 active torsions:
REMARK  status: ('A' for Active; 'I' for Inactive)
REMARK    1  A    between atoms: N1_1  and  C1_2 
REMARK    2  A    between atoms: C7_8  and  N2_9 
REMARK    3  A    between atoms: N2_9  and  C8_10 
ROOT
HETATM    1  C1  UNL     1      24.198  -0.484  53.589  1.00  0.00     0.026 A 
HETATM    2  C2  UNL     1      24.756  -0.730  54.829  1.00  0.00     0.029 A 
HETATM    3  C3  UNL     1      26.006  -0.229  55.187  1.00  0.00     0.010 A 
HETATM    4  C4  UNL     1      26.678   0.534  54.248  1.00  0.00    -0.042 A 
HETATM    5  C5  UNL     1      26.103   0.768  53.015  1.00  0.00     0.018 A 
HETATM    6  C6  UNL     1      24.886   0.287  52.650  1.00  0.00     0.044 A 
HETATM    7  C7  UNL     1      26.881   1.578  52.094  1.00  0.00     0.134 A 
HETATM    8  N3  UNL     1      28.017   2.026  52.437  1.00  0.00    -0.272 NA
HETATM    9  C14 UNL     1      28.706   1.850  53.672  1.00  0.00     0.155 A 
HETATM   10  C15 UNL     1      28.001   1.031  54.703  1.00  0.00     0.061 A 
ENDROOT
BRANCH   7  11
HETATM   11  N2  UNL     1      26.354   1.870  50.790  1.00  0.00    -0.341 N 
HETATM   12  H6  UNL     1      26.244   1.095  50.111  1.00  0.00     0.167 HD
BRANCH  11  13
HETATM   13  C8  UNL     1      25.997   3.231  50.470  1.00  0.00     0.035 C 
HETATM   14  C9  UNL     1      26.770   3.796  49.560  1.00  0.00     0.031 C 
HETATM   15  C10 UNL     1      26.791   5.097  48.948  1.00  0.00     0.028 C 
HETATM   16  C11 UNL     1      25.819   5.972  48.891  1.00  0.00     0.048 C 
HETATM   17  I1  UNL     1      26.304   7.763  47.885  1.00  0.00    -0.036 I 
HETATM   18  S1  UNL     1      24.137   5.971  49.495  1.00  0.00    -0.071 SA
HETATM   19  C12 UNL     1      24.089   4.842  50.886  1.00  0.00     0.077 C 
HETATM   20 CL1  UNL     1      22.825   5.156  52.054  1.00  0.00    -0.076 Cl
HETATM   21  C13 UNL     1      24.872   3.809  51.156  1.00  0.00     0.060 C 
ENDBRANCH  11  13
ENDBRANCH   7  11
BRANCH   1  22
HETATM   22  N1  UNL     1      22.913  -1.032  53.296  1.00  0.00    -0.399 N 
HETATM   23  H1  UNL     1      22.698  -1.696  52.535  1.00  0.00     0.156 HD
HETATM   24  H2  UNL     1      22.091  -0.759  53.881  1.00  0.00     0.156 HD
ENDBRANCH   1  22
TORSDOF 3
ENDMDL
MODEL 5
REMARK VINA RESULT:      -7.8      3.993      5.654
REMARK  3 active torsions:
REMARK  status: ('A' for Active; 'I' for Inactive)
REMARK    1  A    between atoms: N1_1  and  C1_2 
REMARK    2  A    between atoms: C7_8  and  N2_9 
REMARK    3  A    between atoms: N2_9  and  C8_10 
ROOT
HETATM    1  C1  UNL     1      24.091  -0.984  55.042  1.00  0.00     0.026 A 
HETATM    2  C2  UNL     1      22.794  -1.406  55.260  1.00  0.00     0.029 A 
HETATM    3  C3  UNL     1      21.756  -1.075  54.391  1.00  0.00     0.010 A 
HETATM    4  C4  UNL     1      22.071  -0.300  53.289  1.00  0.00    -0.042 A 
HETATM    5  C5  UNL     1      23.373   0.112  53.089  1.00  0.00     0.018 A 
HETATM    6  C6  UNL     1      24.397  -0.202  53.925  1.00  0.00     0.044 A 
HETATM    7  C7  UNL     1      23.609   0.922  51.907  1.00  0.00     0.134 A 
HETATM    8  N3  UNL     1      22.652   1.213  51.127  1.00  0.00    -0.272 NA
HETATM    9  C14 UNL     1      21.279   0.848  51.232  1.00  0.00     0.155 A 
HETATM   10  C15 UNL     1      20.913   0.010  52.413  1.00  0.00     0.061 A 
ENDROOT
BRANCH   7  11
HETATM   11  N2  UNL     1      24.937   1.390  51.625  1.00  0.00    -0.341 N 
HETATM   12  H6  UNL     1      25.738   0.754  51.793  1.00  0.00     0.167 HD
BRANCH  11  13
HETATM   13  C8  UNL     1      25.111   2.730  51.116  1.00  0.00     0.035 C 
HETATM   14  C9  UNL     1      26.197   2.896  50.383  1.00  0.00     0.031 C 
HETATM   15  C10 UNL     1      26.762   4.023  49.691  1.00  0.00     0.028 C 
HETATM   16  C11 UNL     1      26.157   5.124  49.323  1.00  0.00     0.048 C 
HETATM   17  I1  UNL     1      27.391   6.516  48.327  1.00  0.00    -0.036 I 
HETATM   18  S1  UNL     1      24.476   5.708  49.489  1.00  0.00    -0.071 SA
HETATM   19  C12 UNL     1      23.778   4.872  50.912  1.00  0.00     0.077 C 
HETATM   20 CL1  UNL     1      22.465   5.719  51.700  1.00  0.00    -0.076 Cl
HETATM   21  C13 UNL     1      24.112   3.710  51.451  1.00  0.00     0.060 C 
ENDBRANCH  11  13
ENDBRANCH   7  11
BRANCH   1  22
HETATM   22  N1  UNL     1      25.101  -1.363  55.976  1.00  0.00    -0.399 N 
HETATM   23  H1  UNL     1      25.866  -0.760  56.319  1.00  0.00     0.156 HD
HETATM   24  H2  UNL     1      25.101  -2.330  56.369  1.00  0.00     0.156 HD
ENDBRANCH   1  22
TORSDOF 3
ENDMDL
MODEL 6
REMARK VINA RESULT:      -7.8      2.809      4.156
REMARK  3 active torsions:
REMARK  status: ('A' for Active; 'I' for Inactive)
REMARK    1  A    between atoms: N1_1  and  C1_2 
REMARK    2  A    between atoms: C7_8  and  N2_9 
REMARK    3  A    between atoms: N2_9  and  C8_10 
ROOT
HETATM    1  C1  UNL     1      28.218   1.712  53.708  1.00  0.00     0.026 A 
HETATM    2  C2  UNL     1      28.253   0.341  53.873  1.00  0.00     0.029 A 
HETATM    3  C3  UNL     1      27.106  -0.444  53.767  1.00  0.00     0.010 A 
HETATM    4  C4  UNL     1      25.916   0.205  53.489  1.00  0.00    -0.042 A 
HETATM    5  C5  UNL     1      25.902   1.575  53.328  1.00  0.00     0.018 A 
HETATM    6  C6  UNL     1      27.010   2.354  53.427  1.00  0.00     0.044 A 
HETATM    7  C7  UNL     1      24.608   2.169  53.038  1.00  0.00     0.134 A 
HETATM    8  N3  UNL     1      23.574   1.439  52.946  1.00  0.00    -0.272 NA
HETATM    9  C14 UNL     1      23.469   0.026  53.091  1.00  0.00     0.155 A 
HETATM   10  C15 UNL     1      24.741  -0.698  53.392  1.00  0.00     0.061 A 
ENDROOT
BRANCH   7  11
HETATM   11  N2  UNL     1      24.507   3.589  52.855  1.00  0.00    -0.341 N 
HETATM   12  H6  UNL     1      24.568   4.206  53.686  1.00  0.00     0.167 HD
BRANCH  11  13
HETATM   13  C8  UNL     1      24.323   4.110  51.522  1.00  0.00     0.035 C 
HETATM   14  C9  UNL     1      23.095   4.524  51.265  1.00  0.00     0.031 C 
HETATM   15  C10 UNL     1      22.466   5.100  50.107  1.00  0.00     0.028 C 
HETATM   16  C11 UNL     1      23.043   5.686  49.089  1.00  0.00     0.048 C 
HETATM   17  I1  UNL     1      21.715   6.386  47.606  1.00  0.00    -0.036 I 
HETATM   18  S1  UNL     1      24.750   6.026  48.682  1.00  0.00    -0.071 SA
HETATM   19  C12 UNL     1      25.738   4.803  49.541  1.00  0.00     0.077 C 
HETATM   20 CL1  UNL     1      27.293   4.460  48.814  1.00  0.00    -0.076 Cl
HETATM   21  C13 UNL     1      25.462   4.123  50.643  1.00  0.00     0.060 C 
ENDBRANCH  11  13
ENDBRANCH   7  11
BRANCH   1  22
HETATM   22  N1  UNL     1      29.434   2.447  53.831  1.00  0.00    -0.399 N 
HETATM   23  H1  UNL     1      30.293   2.294  53.278  1.00  0.00     0.156 HD
HETATM   24  H2  UNL     1      29.502   3.218  54.533  1.00  0.00     0.156 HD
ENDBRANCH   1  22
TORSDOF 3
ENDMDL
MODEL 7
REMARK VINA RESULT:      -7.6      3.413      5.122
REMARK  3 active torsions:
REMARK  status: ('A' for Active; 'I' for Inactive)
REMARK    1  A    between atoms: N1_1  and  C1_2 
REMARK    2  A    between atoms: C7_8  and  N2_9 
REMARK    3  A    between atoms: N2_9  and  C8_10 
ROOT
HETATM    1  C1  UNL     1      26.554   1.123  53.931  1.00  0.00     0.026 A 
HETATM    2  C2  UNL     1      26.074  -0.171  53.991  1.00  0.00     0.029 A 
HETATM    3  C3  UNL     1      24.779  -0.496  53.595  1.00  0.00     0.010 A 
HETATM    4  C4  UNL     1      23.977   0.534  53.133  1.00  0.00    -0.042 A 
HETATM    5  C5  UNL     1      24.475   1.820  53.081  1.00  0.00     0.018 A 
HETATM    6  C6  UNL     1      25.735   2.154  53.464  1.00  0.00     0.044 A 
HETATM    7  C7  UNL     1      23.563   2.835  52.584  1.00  0.00     0.134 A 
HETATM    8  N3  UNL     1      22.387   2.521  52.228  1.00  0.00    -0.272 NA
HETATM    9  C14 UNL     1      21.769   1.238  52.237  1.00  0.00     0.155 A 
HETATM   10  C15 UNL     1      22.613   0.108  52.731  1.00  0.00     0.061 A 
ENDROOT
BRANCH   7  11
HETATM   11  N2  UNL     1      24.003   4.199  52.497  1.00  0.00    -0.341 N 
HETATM   12  H6  UNL     1      24.214   4.713  53.373  1.00  0.00     0.167 HD
BRANCH  11  13
HETATM   13  C8  UNL     1      24.136   4.808  51.195  1.00  0.00     0.035 C 
HETATM   14  C9  UNL     1      23.120   5.579  50.849  1.00  0.00     0.031 C 
HETATM   15  C10 UNL     1      22.826   6.364  49.681  1.00  0.00     0.028 C 
HETATM   16  C11 UNL     1      23.665   6.796  48.773  1.00  0.00     0.048 C 
HETATM   17  I1  UNL     1      22.781   7.921  47.222  1.00  0.00    -0.036 I 
HETATM   18  S1  UNL     1      25.432   6.631  48.566  1.00  0.00    -0.071 SA
HETATM   19  C12 UNL     1      25.915   5.135  49.424  1.00  0.00     0.077 C 
HETATM   20 CL1  UNL     1      27.378   4.378  48.832  1.00  0.00    -0.076 Cl
HETATM   21  C13 UNL     1      25.325   4.521  50.439  1.00  0.00     0.060 C 
ENDBRANCH  11  13
ENDBRANCH   7  11
BRANCH   1  22
HETATM   22  N1  UNL     1      27.892   1.378  54.355  1.00  0.00    -0.399 N 
HETATM   23  H1  UNL     1      28.478   2.176  54.061  1.00  0.00     0.156 HD
HETATM   24  H2  UNL     1      28.356   0.720  55.020  1.00  0.00     0.156 HD
ENDBRANCH   1  22
TORSDOF 3
ENDMDL
MODEL 8
REMARK VINA RESULT:      -7.5      3.627      5.785
REMARK  3 active torsions:
REMARK  status: ('A' for Active; 'I' for Inactive)
REMARK    1  A    between atoms: N1_1  and  C1_2 
REMARK    2  A    between atoms: C7_8  and  N2_9 
REMARK    3  A    between atoms: N2_9  and  C8_10 
ROOT
HETATM    1  C1  UNL     1      20.769  -0.494  53.566  1.00  0.00     0.026 A 
HETATM    2  C2  UNL     1      21.396  -1.185  54.584  1.00  0.00     0.029 A 
HETATM    3  C3  UNL     1      22.781  -1.173  54.739  1.00  0.00     0.010 A 
HETATM    4  C4  UNL     1      23.516  -0.436  53.827  1.00  0.00    -0.042 A 
HETATM    5  C5  UNL     1      22.871   0.248  52.817  1.00  0.00     0.018 A 
HETATM    6  C6  UNL     1      21.522   0.247  52.652  1.00  0.00     0.044 A 
HETATM    7  C7  UNL     1      23.723   0.993  51.907  1.00  0.00     0.134 A 
HETATM    8  N3  UNL     1      24.982   0.993  52.063  1.00  0.00    -0.272 NA
HETATM    9  C14 UNL     1      25.753   0.330  53.060  1.00  0.00     0.155 A 
HETATM   10  C15 UNL     1      24.982  -0.473  54.058  1.00  0.00     0.061 A 
ENDROOT
BRANCH   7  11
HETATM   11  N2  UNL     1      23.130   1.733  50.828  1.00  0.00    -0.341 N 
HETATM   12  H6  UNL     1      22.360   1.298  50.288  1.00  0.00     0.167 HD
BRANCH  11  13
HETATM   13  C8  UNL     1      23.626   3.056  50.534  1.00  0.00     0.035 C 
HETATM   14  C9  UNL     1      24.818   3.074  49.963  1.00  0.00     0.031 C 
HETATM   15  C10 UNL     1      25.680   4.130  49.506  1.00  0.00     0.028 C 
HETATM   16  C11 UNL     1      25.355   5.366  49.224  1.00  0.00     0.048 C 
HETATM   17  I1  UNL     1      26.960   6.575  48.582  1.00  0.00    -0.036 I 
HETATM   18  S1  UNL     1      23.810   6.263  49.270  1.00  0.00    -0.071 SA
HETATM   19  C12 UNL     1      22.769   5.437  50.471  1.00  0.00     0.077 C 
HETATM   20 CL1  UNL     1      21.541   6.443  51.208  1.00  0.00    -0.076 Cl
HETATM   21  C13 UNL     1      22.795   4.177  50.881  1.00  0.00     0.060 C 
ENDBRANCH  11  13
ENDBRANCH   7  11
BRANCH   1  22
HETATM   22  N1  UNL     1      19.346  -0.554  53.473  1.00  0.00    -0.399 N 
HETATM   23  H1  UNL     1      18.713  -1.001  54.155  1.00  0.00     0.156 HD
HETATM   24  H2  UNL     1      18.865  -0.119  52.654  1.00  0.00     0.156 HD
ENDBRANCH   1  22
TORSDOF 3
ENDMDL
MODEL 9
REMARK VINA RESULT:      -7.5      3.317      4.889
REMARK  3 active torsions:
REMARK  status: ('A' for Active; 'I' for Inactive)
REMARK    1  A    between atoms: N1_1  and  C1_2 
REMARK    2  A    between atoms: C7_8  and  N2_9 
REMARK    3  A    between atoms: N2_9  and  C8_10 
ROOT
HETATM    1  C1  UNL     1      25.462  -0.480  54.709  1.00  0.00     0.026 A 
HETATM    2  C2  UNL     1      24.625  -1.195  55.544  1.00  0.00     0.029 A 
HETATM    3  C3  UNL     1      23.254  -1.282  55.313  1.00  0.00     0.010 A 
HETATM    4  C4  UNL     1      22.751  -0.621  54.207  1.00  0.00    -0.042 A 
HETATM    5  C5  UNL     1      23.604   0.088  53.385  1.00  0.00     0.018 A 
HETATM    6  C6  UNL     1      24.943   0.183  53.595  1.00  0.00     0.044 A 
HETATM    7  C7  UNL     1      22.988   0.750  52.248  1.00  0.00     0.134 A 
HETATM    8  N3  UNL     1      21.737   0.660  52.054  1.00  0.00    -0.272 NA
HETATM    9  C14 UNL     1      20.766  -0.037  52.829  1.00  0.00     0.155 A 
HETATM   10  C15 UNL     1      21.284  -0.761  54.030  1.00  0.00     0.061 A 
ENDROOT
BRANCH   7  11
HETATM   11  N2  UNL     1      23.805   1.509  51.343  1.00  0.00    -0.341 N 
HETATM   12  H6  UNL     1      24.784   1.208  51.182  1.00  0.00     0.167 HD
BRANCH  11  13
HETATM   13  C8  UNL     1      23.236   2.662  50.689  1.00  0.00     0.035 C 
HETATM   14  C9  UNL     1      23.122   3.726  51.464  1.00  0.00     0.031 C 
HETATM   15  C10 UNL     1      22.625   5.058  51.251  1.00  0.00     0.028 C 
HETATM   16  C11 UNL     1      22.462   5.680  50.111  1.00  0.00     0.048 C 
HETATM   17  I1  UNL     1      21.701   7.641  50.278  1.00  0.00    -0.036 I 
HETATM   18  S1  UNL     1      22.752   5.211  48.411  1.00  0.00    -0.071 SA
HETATM   19  C12 UNL     1      22.655   3.423  48.345  1.00  0.00     0.077 C 
HETATM   20 CL1  UNL     1      22.215   2.760  46.787  1.00  0.00    -0.076 Cl
HETATM   21  C13 UNL     1      22.867   2.535  49.304  1.00  0.00     0.060 C 
ENDBRANCH  11  13
ENDBRANCH   7  11
BRANCH   1  22
HETATM   22  N1  UNL     1      26.856  -0.437  55.010  1.00  0.00    -0.399 N 
HETATM   23  H1  UNL     1      27.390  -1.166  55.509  1.00  0.00     0.156 HD
HETATM   24  H2  UNL     1      27.422   0.390  54.715  1.00  0.00     0.156 HD
ENDBRANCH   1  22
TORSDOF 3
ENDMDL
