MODEL 1
REMARK VINA RESULT:      -9.5      0.000      0.000
REMARK  3 active torsions:
REMARK  status: ('A' for Active; 'I' for Inactive)
REMARK    1  A    between atoms: O1_2  and  C2_3 
REMARK    2  A    between atoms: C4_5  and  C5_6 
REMARK    3  A    between atoms: C21_28  and  N4_29 
ROOT
HETATM    1  C2  UNL     1      22.464   1.354  50.304  1.00  0.00     0.069 C 
HETATM    2  C3  UNL     1      23.645   1.932  50.607  1.00  0.00     0.046 C 
HETATM    3  C4  UNL     1      24.887   2.515  51.147  1.00  0.00     0.180 C 
HETATM    4  O2  UNL     1      25.985   1.734  50.946  1.00  0.00    -0.372 OA
HETATM    5  C11 UNL     1      26.705   1.348  52.021  1.00  0.00     0.126 C 
HETATM    6  C12 UNL     1      26.397   1.903  53.362  1.00  0.00     0.051 C 
HETATM    7  C13 UNL     1      25.325   1.225  54.146  1.00  0.00     0.120 C 
HETATM    8  N1  UNL     1      24.789   0.039  53.624  1.00  0.00    -0.401 N 
HETATM    9  C14 UNL     1      25.584  -0.764  52.776  1.00  0.00     0.120 C 
HETATM   10  C15 UNL     1      26.792  -0.170  52.170  1.00  0.00     0.051 C 
HETATM   11  C16 UNL     1      23.407  -0.171  53.578  1.00  0.00     0.154 C 
HETATM   12  C17 UNL     1      22.489   0.989  53.462  1.00  0.00     0.092 C 
HETATM   13  C18 UNL     1      21.371   0.519  52.551  1.00  0.00     0.041 C 
HETATM   14  C19 UNL     1      21.524   0.757  51.242  1.00  0.00     0.063 C 
HETATM   15  N2  UNL     1      20.269  -0.188  53.151  1.00  0.00    -0.246 NA
HETATM   16  C20 UNL     1      20.435  -1.131  54.078  1.00  0.00     0.235 C 
HETATM   17  N3  UNL     1      21.581  -1.241  54.957  1.00  0.00    -0.227 NA
HETATM   18  C21 UNL     1      22.848  -1.008  54.707  1.00  0.00     0.122 C 
ENDROOT
BRANCH   3  19
HETATM   19  C5  UNL     1      25.112   3.927  50.617  1.00  0.00    -0.024 A 
HETATM   20  C6  UNL     1      26.089   4.093  49.661  1.00  0.00     0.013 A 
HETATM   21  C7  UNL     1      26.413   5.297  49.096  1.00  0.00     0.044 A 
HETATM   22  C8  UNL     1      25.732   6.412  49.497  1.00  0.00     0.138 A 
HETATM   23  F1  UNL     1      25.966   7.661  49.007  1.00  0.00    -0.204 F 
HETATM   24  C9  UNL     1      24.742   6.274  50.458  1.00  0.00     0.073 A 
HETATM   25 CL1  UNL     1      23.792   7.623  51.061  1.00  0.00    -0.081 Cl
HETATM   26  C10 UNL     1      24.428   5.056  51.016  1.00  0.00     0.037 A 
ENDBRANCH   3  19
BRANCH   1  27
HETATM   27  O1  UNL     1      21.897   1.208  48.997  1.00  0.00    -0.356 OA
HETATM   28  C1  UNL     1      22.332   2.126  48.019  1.00  0.00     0.210 C 
ENDBRANCH   1  27
BRANCH  18  29
HETATM   29  N4  UNL     1      23.727  -1.642  55.636  1.00  0.00    -0.386 N 
HETATM   30  H23 UNL     1      23.333  -2.410  56.204  1.00  0.00     0.157 HD
HETATM   31  H24 UNL     1      24.730  -1.362  55.755  1.00  0.00     0.157 HD
ENDBRANCH  18  29
TORSDOF 3
ENDMDL
MODEL 2
REMARK VINA RESULT:      -9.3      3.649      5.793
REMARK  3 active torsions:
REMARK  status: ('A' for Active; 'I' for Inactive)
REMARK    1  A    between atoms: O1_2  and  C2_3 
REMARK    2  A    between atoms: C4_5  and  C5_6 
REMARK    3  A    between atoms: C21_28  and  N4_29 
ROOT
HETATM    1  C2  UNL     1      22.059   0.118  53.735  1.00  0.00     0.069 C 
HETATM    2  C3  UNL     1      23.178   0.762  53.344  1.00  0.00     0.046 C 
HETATM    3  C4  UNL     1      24.297   1.496  52.726  1.00  0.00     0.180 C 
HETATM    4  O2  UNL     1      24.413   2.780  53.165  1.00  0.00    -0.372 OA
HETATM    5  C11 UNL     1      24.373   3.776  52.255  1.00  0.00     0.126 C 
HETATM    6  C12 UNL     1      24.373   3.462  50.806  1.00  0.00     0.051 C 
HETATM    7  C13 UNL     1      23.052   3.168  50.176  1.00  0.00     0.120 C 
HETATM    8  N1  UNL     1      21.904   3.347  50.960  1.00  0.00    -0.401 N 
HETATM    9  C14 UNL     1      21.929   4.285  52.018  1.00  0.00     0.120 C 
HETATM   10  C15 UNL     1      23.237   4.769  52.502  1.00  0.00     0.051 C 
HETATM   11  C16 UNL     1      20.898   2.378  51.000  1.00  0.00     0.154 C 
HETATM   12  C17 UNL     1      21.240   0.951  50.779  1.00  0.00     0.092 C 
HETATM   13  C18 UNL     1      20.349   0.179  51.732  1.00  0.00     0.041 C 
HETATM   14  C19 UNL     1      20.856  -0.090  52.943  1.00  0.00     0.063 C 
HETATM   15  N2  UNL     1      19.020  -0.157  51.287  1.00  0.00    -0.246 NA
HETATM   16  C20 UNL     1      18.237   0.705  50.639  1.00  0.00     0.235 C 
HETATM   17  N3  UNL     1      18.707   1.838  49.865  1.00  0.00    -0.227 NA
HETATM   18  C21 UNL     1      19.712   2.646  50.101  1.00  0.00     0.122 C 
ENDROOT
BRANCH   3  19
HETATM   19  C5  UNL     1      25.611   0.739  52.887  1.00  0.00    -0.024 A 
HETATM   20  C6  UNL     1      25.620  -0.591  52.532  1.00  0.00     0.013 A 
HETATM   21  C7  UNL     1      26.718  -1.404  52.627  1.00  0.00     0.044 A 
HETATM   22  C8  UNL     1      27.884  -0.874  53.102  1.00  0.00     0.138 A 
HETATM   23  F1  UNL     1      29.038  -1.584  53.241  1.00  0.00    -0.204 F 
HETATM   24  C9  UNL     1      27.905   0.463  53.466  1.00  0.00     0.073 A 
HETATM   25 CL1  UNL     1      29.336   1.268  54.090  1.00  0.00    -0.081 Cl
HETATM   26  C10 UNL     1      26.793   1.267  53.364  1.00  0.00     0.037 A 
ENDBRANCH   3  19
BRANCH   1  27
HETATM   27  O1  UNL     1      21.826  -0.489  55.011  1.00  0.00    -0.356 OA
HETATM   28  C1  UNL     1      22.757  -1.466  55.421  1.00  0.00     0.210 C 
ENDBRANCH   1  27
BRANCH  18  29
HETATM   29  N4  UNL     1      19.606   3.886  49.402  1.00  0.00    -0.386 N 
HETATM   30  H23 UNL     1      20.196   4.003  48.562  1.00  0.00     0.157 HD
HETATM   31  H24 UNL     1      18.967   4.660  49.706  1.00  0.00     0.157 HD
ENDBRANCH  18  29
TORSDOF 3
ENDMDL
MODEL 3
REMARK VINA RESULT:      -9.2      4.117      6.872
REMARK  3 active torsions:
REMARK  status: ('A' for Active; 'I' for Inactive)
REMARK    1  A    between atoms: O1_2  and  C2_3 
REMARK    2  A    between atoms: C4_5  and  C5_6 
REMARK    3  A    between atoms: C21_28  and  N4_29 
ROOT
HETATM    1  C2  UNL     1      26.665   4.375  49.543  1.00  0.00     0.069 C 
HETATM    2  C3  UNL     1      26.174   3.393  50.327  1.00  0.00     0.046 C 
HETATM    3  C4  UNL     1      25.504   2.474  51.266  1.00  0.00     0.180 C 
HETATM    4  O2  UNL     1      24.602   1.648  50.667  1.00  0.00    -0.372 OA
HETATM    5  C11 UNL     1      23.325   1.667  51.105  1.00  0.00     0.126 C 
HETATM    6  C12 UNL     1      22.963   2.444  52.316  1.00  0.00     0.051 C 
HETATM    7  C13 UNL     1      22.658   3.892  52.125  1.00  0.00     0.120 C 
HETATM    8  N1  UNL     1      22.597   4.376  50.812  1.00  0.00    -0.401 N 
HETATM    9  C14 UNL     1      22.248   3.492  49.765  1.00  0.00     0.120 C 
HETATM   10  C15 UNL     1      22.322   2.039  50.014  1.00  0.00     0.051 C 
HETATM   11  C16 UNL     1      23.243   5.562  50.448  1.00  0.00     0.154 C 
HETATM   12  C17 UNL     1      24.464   5.988  51.174  1.00  0.00     0.092 C 
HETATM   13  C18 UNL     1      25.364   6.594  50.114  1.00  0.00     0.041 C 
HETATM   14  C19 UNL     1      26.239   5.766  49.526  1.00  0.00     0.063 C 
HETATM   15  N2  UNL     1      25.174   7.983  49.786  1.00  0.00    -0.246 NA
HETATM   16  C20 UNL     1      23.969   8.529  49.628  1.00  0.00     0.235 C 
HETATM   17  N3  UNL     1      22.743   8.027  50.216  1.00  0.00    -0.227 NA
HETATM   18  C21 UNL     1      22.358   6.787  50.405  1.00  0.00     0.122 C 
ENDROOT
BRANCH   3  19
HETATM   19  C5  UNL     1      26.518   1.681  52.082  1.00  0.00    -0.024 A 
HETATM   20  C6  UNL     1      26.430   0.308  52.035  1.00  0.00     0.013 A 
HETATM   21  C7  UNL     1      27.261  -0.540  52.717  1.00  0.00     0.044 A 
HETATM   22  C8  UNL     1      28.245  -0.002  53.497  1.00  0.00     0.138 A 
HETATM   23  F1  UNL     1      29.130  -0.744  54.220  1.00  0.00    -0.204 F 
HETATM   24  C9  UNL     1      28.359   1.377  53.562  1.00  0.00     0.073 A 
HETATM   25 CL1  UNL     1      29.578   2.198  54.526  1.00  0.00    -0.081 Cl
HETATM   26  C10 UNL     1      27.515   2.216  52.871  1.00  0.00     0.037 A 
ENDBRANCH   3  19
BRANCH   1  27
HETATM   27  O1  UNL     1      27.703   4.246  48.566  1.00  0.00    -0.356 OA
HETATM   28  C1  UNL     1      28.496   5.390  48.337  1.00  0.00     0.210 C 
ENDBRANCH   1  27
BRANCH  18  29
HETATM   29  N4  UNL     1      20.947   6.661  50.579  1.00  0.00    -0.386 N 
HETATM   30  H23 UNL     1      20.366   7.467  50.295  1.00  0.00     0.157 HD
HETATM   31  H24 UNL     1      20.494   5.802  50.973  1.00  0.00     0.157 HD
ENDBRANCH  18  29
TORSDOF 3
ENDMDL
MODEL 4
REMARK VINA RESULT:      -8.2      4.739      7.897
REMARK  3 active torsions:
REMARK  status: ('A' for Active; 'I' for Inactive)
REMARK    1  A    between atoms: O1_2  and  C2_3 
REMARK    2  A    between atoms: C4_5  and  C5_6 
REMARK    3  A    between atoms: C21_28  and  N4_29 
ROOT
HETATM    1  C2  UNL     1      26.850   4.970  48.989  1.00  0.00     0.069 C 
HETATM    2  C3  UNL     1      25.862   4.163  49.428  1.00  0.00     0.046 C 
HETATM    3  C4  UNL     1      24.670   3.467  49.948  1.00  0.00     0.180 C 
HETATM    4  O2  UNL     1      23.897   2.912  48.974  1.00  0.00    -0.372 OA
HETATM    5  C11 UNL     1      22.600   3.279  48.896  1.00  0.00     0.126 C 
HETATM    6  C12 UNL     1      22.003   4.134  49.951  1.00  0.00     0.051 C 
HETATM    7  C13 UNL     1      22.172   5.609  49.804  1.00  0.00     0.120 C 
HETATM    8  N1  UNL     1      22.754   6.082  48.620  1.00  0.00    -0.401 N 
HETATM    9  C14 UNL     1      22.631   5.318  47.437  1.00  0.00     0.120 C 
HETATM   10  C15 UNL     1      22.232   3.901  47.550  1.00  0.00     0.051 C 
HETATM   11  C16 UNL     1      23.766   7.045  48.646  1.00  0.00     0.154 C 
HETATM   12  C17 UNL     1      24.672   7.131  49.819  1.00  0.00     0.092 C 
HETATM   13  C18 UNL     1      26.035   7.462  49.243  1.00  0.00     0.041 C 
HETATM   14  C19 UNL     1      26.830   6.424  48.950  1.00  0.00     0.063 C 
HETATM   15  N2  UNL     1      26.345   8.848  49.006  1.00  0.00    -0.246 NA
HETATM   16  C20 UNL     1      25.478   9.699  48.460  1.00  0.00     0.235 C 
HETATM   17  N3  UNL     1      24.036   9.552  48.488  1.00  0.00    -0.227 NA
HETATM   18  C21 UNL     1      23.309   8.464  48.394  1.00  0.00     0.122 C 
ENDROOT
BRANCH   3  19
HETATM   19  C5  UNL     1      25.050   2.435  51.004  1.00  0.00    -0.024 A 
HETATM   20  C6  UNL     1      26.392   2.218  51.220  1.00  0.00     0.013 A 
HETATM   21  C7  UNL     1      26.889   1.320  52.126  1.00  0.00     0.044 A 
HETATM   22  C8  UNL     1      26.009   0.586  52.868  1.00  0.00     0.138 A 
HETATM   23  F1  UNL     1      26.386  -0.336  53.798  1.00  0.00    -0.204 F 
HETATM   24  C9  UNL     1      24.651   0.783  52.672  1.00  0.00     0.073 A 
HETATM   25 CL1  UNL     1      23.414  -0.094  53.560  1.00  0.00    -0.081 Cl
HETATM   26  C10 UNL     1      24.167   1.690  51.758  1.00  0.00     0.037 A 
ENDBRANCH   3  19
BRANCH   1  27
HETATM   27  O1  UNL     1      28.119   4.557  48.469  1.00  0.00    -0.356 OA
HETATM   28  C1  UNL     1      29.063   5.578  48.234  1.00  0.00     0.210 C 
ENDBRANCH   1  27
BRANCH  18  29
HETATM   29  N4  UNL     1      21.960   8.727  48.008  1.00  0.00    -0.386 N 
HETATM   30  H23 UNL     1      21.473   9.495  48.498  1.00  0.00     0.157 HD
HETATM   31  H24 UNL     1      21.462   8.180  47.265  1.00  0.00     0.157 HD
ENDBRANCH  18  29
TORSDOF 3
ENDMDL
MODEL 5
REMARK VINA RESULT:      -8.2      4.405      7.205
REMARK  3 active torsions:
REMARK  status: ('A' for Active; 'I' for Inactive)
REMARK    1  A    between atoms: O1_2  and  C2_3 
REMARK    2  A    between atoms: C4_5  and  C5_6 
REMARK    3  A    between atoms: C21_28  and  N4_29 
ROOT
HETATM    1  C2  UNL     1      24.562   4.163  50.068  1.00  0.00     0.069 C 
HETATM    2  C3  UNL     1      23.796   3.143  50.509  1.00  0.00     0.046 C 
HETATM    3  C4  UNL     1      22.811   2.184  51.042  1.00  0.00     0.180 C 
HETATM    4  O2  UNL     1      22.151   1.490  50.073  1.00  0.00    -0.372 OA
HETATM    5  C11 UNL     1      20.803   1.555  50.042  1.00  0.00     0.126 C 
HETATM    6  C12 UNL     1      20.064   2.229  51.137  1.00  0.00     0.051 C 
HETATM    7  C13 UNL     1      19.890   3.706  51.029  1.00  0.00     0.120 C 
HETATM    8  N1  UNL     1      20.310   4.325  49.844  1.00  0.00    -0.401 N 
HETATM    9  C14 UNL     1      20.324   3.580  48.643  1.00  0.00     0.120 C 
HETATM   10  C15 UNL     1      20.259   2.108  48.725  1.00  0.00     0.051 C 
HETATM   11  C16 UNL     1      21.080   5.493  49.871  1.00  0.00     0.154 C 
HETATM   12  C17 UNL     1      21.981   5.754  51.020  1.00  0.00     0.092 C 
HETATM   13  C18 UNL     1      23.214   6.399  50.417  1.00  0.00     0.041 C 
HETATM   14  C19 UNL     1      24.213   5.576  50.073  1.00  0.00     0.063 C 
HETATM   15  N2  UNL     1      23.195   7.825  50.214  1.00  0.00    -0.246 NA
HETATM   16  C20 UNL     1      22.140   8.469  49.716  1.00  0.00     0.235 C 
HETATM   17  N3  UNL     1      20.770   7.998  49.780  1.00  0.00    -0.227 NA
HETATM   18  C21 UNL     1      20.305   6.776  49.673  1.00  0.00     0.122 C 
ENDROOT
BRANCH   3  19
HETATM   19  C5  UNL     1      23.449   1.241  52.055  1.00  0.00    -0.024 A 
HETATM   20  C6  UNL     1      24.822   1.140  52.045  1.00  0.00     0.013 A 
HETATM   21  C7  UNL     1      25.539   0.332  52.886  1.00  0.00     0.044 A 
HETATM   22  C8  UNL     1      24.861  -0.428  53.798  1.00  0.00     0.138 A 
HETATM   23  F1  UNL     1      25.466  -1.268  54.683  1.00  0.00    -0.204 F 
HETATM   24  C9  UNL     1      23.478  -0.346  53.831  1.00  0.00     0.073 A 
HETATM   25 CL1  UNL     1      22.487  -1.267  54.952  1.00  0.00    -0.081 Cl
HETATM   26  C10 UNL     1      22.772   0.472  52.979  1.00  0.00     0.037 A 
ENDBRANCH   3  19
BRANCH   1  27
HETATM   27  O1  UNL     1      25.873   4.060  49.501  1.00  0.00    -0.356 OA
HETATM   28  C1  UNL     1      26.416   5.243  48.958  1.00  0.00     0.210 C 
ENDBRANCH   1  27
BRANCH  18  29
HETATM   29  N4  UNL     1      18.919   6.735  49.333  1.00  0.00    -0.386 N 
HETATM   30  H23 UNL     1      18.681   6.815  48.331  1.00  0.00     0.157 HD
HETATM   31  H24 UNL     1      18.159   6.628  50.046  1.00  0.00     0.157 HD
ENDBRANCH  18  29
TORSDOF 3
ENDMDL
MODEL 6
REMARK VINA RESULT:      -8.0      7.592     11.337
REMARK  3 active torsions:
REMARK  status: ('A' for Active; 'I' for Inactive)
REMARK    1  A    between atoms: O1_2  and  C2_3 
REMARK    2  A    between atoms: C4_5  and  C5_6 
REMARK    3  A    between atoms: C21_28  and  N4_29 
ROOT
HETATM    1  C2  UNL     1      31.163   5.455  47.711  1.00  0.00     0.069 C 
HETATM    2  C3  UNL     1      30.010   6.153  47.649  1.00  0.00     0.046 C 
HETATM    3  C4  UNL     1      28.872   7.090  47.636  1.00  0.00     0.180 C 
HETATM    4  O2  UNL     1      28.467   7.435  46.382  1.00  0.00    -0.372 OA
HETATM    5  C11 UNL     1      28.450   8.743  46.049  1.00  0.00     0.126 C 
HETATM    6  C12 UNL     1      28.705   9.777  47.081  1.00  0.00     0.051 C 
HETATM    7  C13 UNL     1      30.130  10.121  47.359  1.00  0.00     0.120 C 
HETATM    8  N1  UNL     1      31.109   9.550  46.534  1.00  0.00    -0.401 N 
HETATM    9  C14 UNL     1      30.771   9.187  45.210  1.00  0.00     0.120 C 
HETATM   10  C15 UNL     1      29.344   9.070  44.853  1.00  0.00     0.051 C 
HETATM   11  C16 UNL     1      32.259   8.967  47.074  1.00  0.00     0.154 C 
HETATM   12  C17 UNL     1      32.214   8.368  48.431  1.00  0.00     0.092 C 
HETATM   13  C18 UNL     1      33.091   7.134  48.348  1.00  0.00     0.041 C 
HETATM   14  C19 UNL     1      32.481   5.984  48.033  1.00  0.00     0.063 C 
HETATM   15  N2  UNL     1      34.507   7.300  48.559  1.00  0.00    -0.246 NA
HETATM   16  C20 UNL     1      35.202   8.306  48.028  1.00  0.00     0.235 C 
HETATM   17  N3  UNL     1      34.646   9.583  47.627  1.00  0.00    -0.227 NA
HETATM   18  C21 UNL     1      33.488   9.848  47.070  1.00  0.00     0.122 C 
ENDROOT
BRANCH   3  19
HETATM   19  C5  UNL     1      27.706   6.557  48.462  1.00  0.00    -0.024 A 
HETATM   20  C6  UNL     1      27.595   5.190  48.586  1.00  0.00     0.013 A 
HETATM   21  C7  UNL     1      26.601   4.561  49.286  1.00  0.00     0.044 A 
HETATM   22  C8  UNL     1      25.654   5.325  49.907  1.00  0.00     0.138 A 
HETATM   23  F1  UNL     1      24.620   4.812  50.630  1.00  0.00    -0.204 F 
HETATM   24  C9  UNL     1      25.742   6.704  49.800  1.00  0.00     0.073 A 
HETATM   25 CL1  UNL     1      24.592   7.802  50.548  1.00  0.00    -0.081 Cl
HETATM   26  C10 UNL     1      26.747   7.321  49.092  1.00  0.00     0.037 A 
ENDBRANCH   3  19
BRANCH   1  27
HETATM   27  O1  UNL     1      31.325   4.053  47.469  1.00  0.00    -0.356 OA
HETATM   28  C1  UNL     1      32.648   3.594  47.302  1.00  0.00     0.210 C 
ENDBRANCH   1  27
BRANCH  18  29
HETATM   29  N4  UNL     1      33.463  11.114  46.411  1.00  0.00    -0.386 N 
HETATM   30  H23 UNL     1      33.441  11.954  47.011  1.00  0.00     0.157 HD
HETATM   31  H24 UNL     1      33.466  11.215  45.367  1.00  0.00     0.157 HD
ENDBRANCH  18  29
TORSDOF 3
ENDMDL
MODEL 7
REMARK VINA RESULT:      -8.0      6.111      9.978
REMARK  3 active torsions:
REMARK  status: ('A' for Active; 'I' for Inactive)
REMARK    1  A    between atoms: O1_2  and  C2_3 
REMARK    2  A    between atoms: C4_5  and  C5_6 
REMARK    3  A    between atoms: C21_28  and  N4_29 
ROOT
HETATM    1  C2  UNL     1      29.075   6.606  48.244  1.00  0.00     0.069 C 
HETATM    2  C3  UNL     1      27.754   6.452  48.471  1.00  0.00     0.046 C 
HETATM    3  C4  UNL     1      26.319   6.485  48.807  1.00  0.00     0.180 C 
HETATM    4  O2  UNL     1      25.514   6.705  47.730  1.00  0.00    -0.372 OA
HETATM    5  C11 UNL     1      24.675   7.762  47.761  1.00  0.00     0.126 C 
HETATM    6  C12 UNL     1      24.521   8.555  49.005  1.00  0.00     0.051 C 
HETATM    7  C13 UNL     1      25.510   9.648  49.239  1.00  0.00     0.120 C 
HETATM    8  N1  UNL     1      26.417   9.935  48.209  1.00  0.00    -0.401 N 
HETATM    9  C14 UNL     1      26.053   9.658  46.871  1.00  0.00     0.120 C 
HETATM   10  C15 UNL     1      24.915   8.752  46.622  1.00  0.00     0.051 C 
HETATM   11  C16 UNL     1      27.780  10.099  48.472  1.00  0.00     0.154 C 
HETATM   12  C17 UNL     1      28.400   9.391  49.618  1.00  0.00     0.092 C 
HETATM   13  C18 UNL     1      29.778   8.984  49.133  1.00  0.00     0.041 C 
HETATM   14  C19 UNL     1      29.883   7.769  48.578  1.00  0.00     0.063 C 
HETATM   15  N2  UNL     1      30.845   9.944  49.257  1.00  0.00    -0.246 NA
HETATM   16  C20 UNL     1      30.694  11.233  48.954  1.00  0.00     0.235 C 
HETATM   17  N3  UNL     1      29.432  11.947  48.958  1.00  0.00    -0.227 NA
HETATM   18  C21 UNL     1      28.241  11.535  48.595  1.00  0.00     0.122 C 
ENDROOT
BRANCH   3  19
HETATM   19  C5  UNL     1      25.898   5.227  49.560  1.00  0.00    -0.024 A 
HETATM   20  C6  UNL     1      26.664   4.098  49.377  1.00  0.00     0.013 A 
HETATM   21  C7  UNL     1      26.410   2.893  49.976  1.00  0.00     0.044 A 
HETATM   22  C8  UNL     1      25.332   2.792  50.809  1.00  0.00     0.138 A 
HETATM   23  F1  UNL     1      24.981   1.647  51.459  1.00  0.00    -0.204 F 
HETATM   24  C9  UNL     1      24.544   3.913  51.012  1.00  0.00     0.073 A 
HETATM   25 CL1  UNL     1      23.131   3.920  52.057  1.00  0.00    -0.081 Cl
HETATM   26  C10 UNL     1      24.813   5.117  50.403  1.00  0.00     0.037 A 
ENDBRANCH   3  19
BRANCH   1  27
HETATM   27  O1  UNL     1      29.950   5.656  47.623  1.00  0.00    -0.356 OA
HETATM   28  C1  UNL     1      31.259   5.577  48.142  1.00  0.00     0.210 C 
ENDBRANCH   1  27
BRANCH  18  29
HETATM   29  N4  UNL     1      27.345  12.605  48.302  1.00  0.00    -0.386 N 
HETATM   30  H23 UNL     1      26.529  12.384  47.708  1.00  0.00     0.157 HD
HETATM   31  H24 UNL     1      27.483  13.581  48.660  1.00  0.00     0.157 HD
ENDBRANCH  18  29
TORSDOF 3
ENDMDL
MODEL 8
REMARK VINA RESULT:      -7.9      8.279     11.944
REMARK  3 active torsions:
REMARK  status: ('A' for Active; 'I' for Inactive)
REMARK    1  A    between atoms: O1_2  and  C2_3 
REMARK    2  A    between atoms: C4_5  and  C5_6 
REMARK    3  A    between atoms: C21_28  and  N4_29 
ROOT
HETATM    1  C2  UNL     1      30.925   9.010  46.306  1.00  0.00     0.069 C 
HETATM    2  C3  UNL     1      30.660   7.841  46.927  1.00  0.00     0.046 C 
HETATM    3  C4  UNL     1      30.466   6.469  47.432  1.00  0.00     0.180 C 
HETATM    4  O2  UNL     1      31.337   6.126  48.421  1.00  0.00    -0.372 OA
HETATM    5  C11 UNL     1      32.117   5.039  48.241  1.00  0.00     0.126 C 
HETATM    6  C12 UNL     1      31.903   4.154  47.070  1.00  0.00     0.051 C 
HETATM    7  C13 UNL     1      32.576   4.540  45.796  1.00  0.00     0.120 C 
HETATM    8  N1  UNL     1      33.466   5.622  45.833  1.00  0.00    -0.401 N 
HETATM    9  C14 UNL     1      34.133   5.927  47.042  1.00  0.00     0.120 C 
HETATM   10  C15 UNL     1      33.611   5.355  48.299  1.00  0.00     0.051 C 
HETATM   11  C16 UNL     1      33.418   6.632  44.867  1.00  0.00     0.154 C 
HETATM   12  C17 UNL     1      32.131   6.955  44.202  1.00  0.00     0.092 C 
HETATM   13  C18 UNL     1      32.140   8.462  44.034  1.00  0.00     0.041 C 
HETATM   14  C19 UNL     1      31.585   9.179  45.020  1.00  0.00     0.063 C 
HETATM   15  N2  UNL     1      32.784   9.003  42.865  1.00  0.00    -0.246 NA
HETATM   16  C20 UNL     1      33.957   8.557  42.416  1.00  0.00     0.235 C 
HETATM   17  N3  UNL     1      34.495   7.234  42.664  1.00  0.00    -0.227 NA
HETATM   18  C21 UNL     1      34.422   6.495  43.745  1.00  0.00     0.122 C 
ENDROOT
BRANCH   3  19
HETATM   19  C5  UNL     1      29.023   6.239  47.867  1.00  0.00    -0.024 A 
HETATM   20  C6  UNL     1      28.141   7.284  47.703  1.00  0.00     0.013 A 
HETATM   21  C7  UNL     1      26.818   7.234  48.052  1.00  0.00     0.044 A 
HETATM   22  C8  UNL     1      26.330   6.081  48.599  1.00  0.00     0.138 A 
HETATM   23  F1  UNL     1      25.034   5.915  48.984  1.00  0.00    -0.204 F 
HETATM   24  C9  UNL     1      27.195   5.013  48.775  1.00  0.00     0.073 A 
HETATM   25 CL1  UNL     1      26.697   3.476  49.465  1.00  0.00    -0.081 Cl
HETATM   26  C10 UNL     1      28.522   5.079  48.418  1.00  0.00     0.037 A 
ENDBRANCH   3  19
BRANCH   1  27
HETATM   27  O1  UNL     1      30.613  10.321  46.789  1.00  0.00    -0.356 OA
HETATM   28  C1  UNL     1      30.381  10.440  48.175  1.00  0.00     0.210 C 
ENDBRANCH   1  27
BRANCH  18  29
HETATM   29  N4  UNL     1      35.424   5.480  43.797  1.00  0.00    -0.386 N 
HETATM   30  H23 UNL     1      35.131   4.551  44.139  1.00  0.00     0.157 HD
HETATM   31  H24 UNL     1      36.418   5.644  43.506  1.00  0.00     0.157 HD
ENDBRANCH  18  29
TORSDOF 3
ENDMDL
MODEL 9
REMARK VINA RESULT:      -7.8      4.962      7.265
REMARK  3 active torsions:
REMARK  status: ('A' for Active; 'I' for Inactive)
REMARK    1  A    between atoms: O1_2  and  C2_3 
REMARK    2  A    between atoms: C4_5  and  C5_6 
REMARK    3  A    between atoms: C21_28  and  N4_29 
ROOT
HETATM    1  C2  UNL     1      18.327  -0.849  52.664  1.00  0.00     0.069 C 
HETATM    2  C3  UNL     1      18.176   0.280  51.941  1.00  0.00     0.046 C 
HETATM    3  C4  UNL     1      18.197   1.580  51.246  1.00  0.00     0.180 C 
HETATM    4  O2  UNL     1      18.576   1.492  49.941  1.00  0.00    -0.372 OA
HETATM    5  C11 UNL     1      19.639   2.215  49.530  1.00  0.00     0.126 C 
HETATM    6  C12 UNL     1      20.264   3.205  50.442  1.00  0.00     0.051 C 
HETATM    7  C13 UNL     1      21.294   2.693  51.394  1.00  0.00     0.120 C 
HETATM    8  N1  UNL     1      21.693   1.356  51.262  1.00  0.00    -0.401 N 
HETATM    9  C14 UNL     1      21.604   0.730  49.998  1.00  0.00     0.120 C 
HETATM   10  C15 UNL     1      20.766   1.355  48.957  1.00  0.00     0.051 C 
HETATM   11  C16 UNL     1      21.789   0.518  52.377  1.00  0.00     0.154 C 
HETATM   12  C17 UNL     1      20.921   0.757  53.556  1.00  0.00     0.092 C 
HETATM   13  C18 UNL     1      20.550  -0.624  54.060  1.00  0.00     0.041 C 
HETATM   14  C19 UNL     1      19.417  -1.154  53.579  1.00  0.00     0.063 C 
HETATM   15  N2  UNL     1      21.460  -1.276  54.967  1.00  0.00    -0.246 NA
HETATM   16  C20 UNL     1      22.781  -1.271  54.790  1.00  0.00     0.235 C 
HETATM   17  N3  UNL     1      23.518  -0.272  54.041  1.00  0.00    -0.227 NA
HETATM   18  C21 UNL     1      23.185   0.353  52.938  1.00  0.00     0.122 C 
ENDROOT
BRANCH   3  19
HETATM   19  C5  UNL     1      16.861   2.303  51.382  1.00  0.00    -0.024 A 
HETATM   20  C6  UNL     1      16.895   3.624  51.767  1.00  0.00     0.013 A 
HETATM   21  C7  UNL     1      15.783   4.403  51.940  1.00  0.00     0.044 A 
HETATM   22  C8  UNL     1      14.554   3.845  51.721  1.00  0.00     0.138 A 
HETATM   23  F1  UNL     1      13.380   4.520  51.861  1.00  0.00    -0.204 F 
HETATM   24  C9  UNL     1      14.490   2.517  51.331  1.00  0.00     0.073 A 
HETATM   25 CL1  UNL     1      12.978   1.679  51.017  1.00  0.00    -0.081 Cl
HETATM   26  C10 UNL     1      15.618   1.748  51.161  1.00  0.00     0.037 A 
ENDBRANCH   3  19
BRANCH   1  27
HETATM   27  O1  UNL     1      17.449  -1.980  52.673  1.00  0.00    -0.356 OA
HETATM   28  C1  UNL     1      17.682  -2.948  53.671  1.00  0.00     0.210 C 
ENDBRANCH   1  27
BRANCH  18  29
HETATM   29  N4  UNL     1      24.305   0.909  52.250  1.00  0.00    -0.386 N 
HETATM   30  H23 UNL     1      24.171   1.830  51.804  1.00  0.00     0.157 HD
HETATM   31  H24 UNL     1      25.233   0.425  52.186  1.00  0.00     0.157 HD
ENDBRANCH  18  29
TORSDOF 3
ENDMDL
