MODEL 1
REMARK VINA RESULT:      -8.6      0.000      0.000
REMARK  1 active torsions:
REMARK  status: ('A' for Active; 'I' for Inactive)
REMARK    1  A    between atoms: C13_15  and  N3_16 
ROOT
HETATM    1  C1  UNL     1      20.949   4.213  48.998  1.00  0.00     0.058 C 
HETATM    2  C2  UNL     1      20.714   3.118  49.664  1.00  0.00    -0.009 C 
HETATM    3  C3  UNL     1      20.462   1.769  49.086  1.00  0.00     0.053 C 
HETATM    4  C4  UNL     1      20.849   0.633  50.056  1.00  0.00     0.007 C 
HETATM    5  C5  UNL     1      22.099   0.926  50.773  1.00  0.00     0.014 C 
HETATM    6  C6  UNL     1      22.112   1.045  52.274  1.00  0.00    -0.013 C 
HETATM    7  C7  UNL     1      21.903  -0.400  52.736  1.00  0.00     0.020 C 
HETATM    8  C8  UNL     1      21.017   1.745  52.929  1.00  0.00     0.034 C 
HETATM    9  C9  UNL     1      20.296   2.887  52.335  1.00  0.00     0.131 C 
HETATM   10  N1  UNL     1      20.738   3.354  51.057  1.00  0.00    -0.338 N 
HETATM   11  C10 UNL     1      21.610   4.478  50.992  1.00  0.00     0.152 A 
HETATM   12  C11 UNL     1      22.637   4.418  51.906  1.00  0.00     0.102 A 
HETATM   13  C12 UNL     1      23.795   4.992  52.393  1.00  0.00     0.150 A 
HETATM   14  N2  UNL     1      23.805   6.019  51.547  1.00  0.00    -0.045 NA
HETATM   15  C13 UNL     1      22.849   6.231  50.570  1.00  0.00     0.724 A 
HETATM   16  N4  UNL     1      21.689   5.534  50.178  1.00  0.00    -0.045 NA
HETATM   17  N5  UNL     1      24.064   4.031  53.400  1.00  0.00    -0.340 N 
HETATM   18  C14 UNL     1      24.199   2.603  53.114  1.00  0.00     0.040 A 
HETATM   19  C15 UNL     1      25.546   2.532  53.398  1.00  0.00     0.032 A 
HETATM   20  C16 UNL     1      26.352   1.378  53.300  1.00  0.00     0.026 A 
HETATM   21  C17 UNL     1      25.750   0.205  52.879  1.00  0.00     0.034 A 
HETATM   22 CL1  UNL     1      26.614  -1.294  52.708  1.00  0.00    -0.084 Cl
HETATM   23  C18 UNL     1      24.379   0.372  52.613  1.00  0.00     0.034 A 
HETATM   24  C19 UNL     1      23.506   1.471  52.685  1.00  0.00    -0.021 A 
HETATM   25  H19 UNL     1      24.088   4.724  54.093  1.00  0.00     0.167 HD
ENDROOT
BRANCH  15  26
HETATM   26  N3  UNL     1      23.196   7.449  49.842  1.00  0.00    -0.231 N 
HETATM   27  H17 UNL     1      22.888   8.226  50.449  1.00  0.00     0.174 HD
HETATM   28  H18 UNL     1      23.645   7.139  48.944  1.00  0.00     0.174 HD
ENDBRANCH  15  26
TORSDOF 1
ENDMDL
MODEL 2
REMARK VINA RESULT:      -8.4      3.129      5.604
REMARK  1 active torsions:
REMARK  status: ('A' for Active; 'I' for Inactive)
REMARK    1  A    between atoms: C13_15  and  N3_16 
ROOT
HETATM    1  C1  UNL     1      26.226   1.959  50.918  1.00  0.00     0.058 C 
HETATM    2  C2  UNL     1      25.295   2.860  50.777  1.00  0.00    -0.009 C 
HETATM    3  C3  UNL     1      24.943   3.578  49.521  1.00  0.00     0.053 C 
HETATM    4  C4  UNL     1      23.476   4.058  49.510  1.00  0.00     0.007 C 
HETATM    5  C5  UNL     1      22.568   3.057  50.087  1.00  0.00     0.014 C 
HETATM    6  C6  UNL     1      21.759   3.374  51.317  1.00  0.00    -0.013 C 
HETATM    7  C7  UNL     1      20.718   4.371  50.797  1.00  0.00     0.020 C 
HETATM    8  C8  UNL     1      22.391   4.116  52.398  1.00  0.00     0.034 C 
HETATM    9  C9  UNL     1      23.821   4.009  52.744  1.00  0.00     0.131 C 
HETATM   10  N1  UNL     1      24.614   3.084  51.995  1.00  0.00    -0.338 N 
HETATM   11  C10 UNL     1      24.871   1.792  52.537  1.00  0.00     0.152 A 
HETATM   12  C11 UNL     1      23.751   1.198  53.074  1.00  0.00     0.102 A 
HETATM   13  C12 UNL     1      23.197   0.078  53.661  1.00  0.00     0.150 A 
HETATM   14  N2  UNL     1      24.312  -0.648  53.649  1.00  0.00    -0.045 NA
HETATM   15  C13 UNL     1      25.523  -0.205  53.149  1.00  0.00     0.724 A 
HETATM   16  N4  UNL     1      25.949   1.002  52.559  1.00  0.00    -0.045 NA
HETATM   17  N5  UNL     1      21.879   0.580  53.803  1.00  0.00    -0.340 N 
HETATM   18  C14 UNL     1      21.102   1.089  52.673  1.00  0.00     0.040 A 
HETATM   19  C15 UNL     1      20.171   0.073  52.677  1.00  0.00     0.032 A 
HETATM   20  C16 UNL     1      19.092  -0.064  51.779  1.00  0.00     0.026 A 
HETATM   21  C17 UNL     1      18.943   0.902  50.798  1.00  0.00     0.034 A 
HETATM   22 CL1  UNL     1      17.664   0.867  49.620  1.00  0.00    -0.084 Cl
HETATM   23  C18 UNL     1      19.935   1.897  50.871  1.00  0.00     0.034 A 
HETATM   24  C19 UNL     1      21.032   2.109  51.723  1.00  0.00    -0.021 A 
HETATM   25  H19 UNL     1      21.886   0.402  54.766  1.00  0.00     0.167 HD
ENDROOT
BRANCH  15  26
HETATM   26  N3  UNL     1      26.506  -1.275  53.304  1.00  0.00    -0.231 N 
HETATM   27  H17 UNL     1      27.009  -1.315  52.403  1.00  0.00     0.174 HD
HETATM   28  H18 UNL     1      26.382  -1.651  54.278  1.00  0.00     0.174 HD
ENDBRANCH  15  26
TORSDOF 1
ENDMDL
MODEL 3
REMARK VINA RESULT:      -8.3      2.955      6.076
REMARK  1 active torsions:
REMARK  status: ('A' for Active; 'I' for Inactive)
REMARK    1  A    between atoms: C13_15  and  N3_16 
ROOT
HETATM    1  C1  UNL     1      25.219   0.074  53.002  1.00  0.00     0.058 C 
HETATM    2  C2  UNL     1      25.462   1.236  52.464  1.00  0.00    -0.009 C 
HETATM    3  C3  UNL     1      26.623   1.585  51.601  1.00  0.00     0.053 C 
HETATM    4  C4  UNL     1      26.313   2.755  50.643  1.00  0.00     0.007 C 
HETATM    5  C5  UNL     1      24.957   2.660  50.083  1.00  0.00     0.014 C 
HETATM    6  C6  UNL     1      23.941   3.739  50.347  1.00  0.00    -0.013 C 
HETATM    7  C7  UNL     1      24.463   4.915  49.515  1.00  0.00     0.020 C 
HETATM    8  C8  UNL     1      23.860   4.312  51.682  1.00  0.00     0.034 C 
HETATM    9  C9  UNL     1      24.133   3.557  52.920  1.00  0.00     0.131 C 
HETATM   10  N1  UNL     1      24.452   2.169  52.790  1.00  0.00    -0.338 N 
HETATM   11  C10 UNL     1      23.426   1.200  52.986  1.00  0.00     0.152 A 
HETATM   12  C11 UNL     1      22.249   1.523  52.351  1.00  0.00     0.102 A 
HETATM   13  C12 UNL     1      20.961   1.145  52.026  1.00  0.00     0.150 A 
HETATM   14  N2  UNL     1      21.003  -0.030  52.648  1.00  0.00    -0.045 NA
HETATM   15  C13 UNL     1      22.104  -0.508  53.334  1.00  0.00     0.724 A 
HETATM   16  N4  UNL     1      23.392   0.007  53.586  1.00  0.00    -0.045 NA
HETATM   17  N5  UNL     1      20.616   2.300  51.279  1.00  0.00    -0.340 N 
HETATM   18  C14 UNL     1      21.395   2.760  50.130  1.00  0.00     0.040 A 
HETATM   19  C15 UNL     1      20.427   2.483  49.188  1.00  0.00     0.032 A 
HETATM   20  C16 UNL     1      20.547   2.681  47.796  1.00  0.00     0.026 A 
HETATM   21  C17 UNL     1      21.738   3.199  47.319  1.00  0.00     0.034 A 
HETATM   22 CL1  UNL     1      22.034   3.496  45.631  1.00  0.00    -0.084 Cl
HETATM   23  C18 UNL     1      22.664   3.450  48.349  1.00  0.00     0.034 A 
HETATM   24  C19 UNL     1      22.627   3.285  49.744  1.00  0.00    -0.021 A 
HETATM   25  H19 UNL     1      19.833   2.465  51.845  1.00  0.00     0.167 HD
ENDROOT
BRANCH  15  26
HETATM   26  N3  UNL     1      21.775  -1.825  53.876  1.00  0.00    -0.231 N 
HETATM   27  H17 UNL     1      21.209  -1.637  54.720  1.00  0.00     0.174 HD
HETATM   28  H18 UNL     1      22.217  -2.528  53.232  1.00  0.00     0.174 HD
ENDBRANCH  15  26
TORSDOF 1
ENDMDL
MODEL 4
REMARK VINA RESULT:      -7.8      2.679      3.935
REMARK  1 active torsions:
REMARK  status: ('A' for Active; 'I' for Inactive)
REMARK    1  A    between atoms: C13_15  and  N3_16 
ROOT
HETATM    1  C1  UNL     1      19.305   4.049  48.908  1.00  0.00     0.058 C 
HETATM    2  C2  UNL     1      20.236   3.310  49.443  1.00  0.00    -0.009 C 
HETATM    3  C3  UNL     1      20.786   2.042  48.890  1.00  0.00     0.053 C 
HETATM    4  C4  UNL     1      22.228   1.769  49.368  1.00  0.00     0.007 C 
HETATM    5  C5  UNL     1      23.038   2.995  49.395  1.00  0.00     0.014 C 
HETATM    6  C6  UNL     1      23.624   3.499  50.687  1.00  0.00    -0.013 C 
HETATM    7  C7  UNL     1      24.725   2.477  50.988  1.00  0.00     0.020 C 
HETATM    8  C8  UNL     1      22.809   3.445  51.892  1.00  0.00     0.034 C 
HETATM    9  C9  UNL     1      21.342   3.605  51.903  1.00  0.00     0.131 C 
HETATM   10  N1  UNL     1      20.699   3.873  50.654  1.00  0.00    -0.338 N 
HETATM   11  C10 UNL     1      20.369   5.217  50.317  1.00  0.00     0.152 A 
HETATM   12  C11 UNL     1      21.390   6.104  50.575  1.00  0.00     0.102 A 
HETATM   13  C12 UNL     1      21.851   7.403  50.490  1.00  0.00     0.150 A 
HETATM   14  N2  UNL     1      20.762   7.896  49.904  1.00  0.00    -0.045 NA
HETATM   15  C13 UNL     1      19.648   7.145  49.577  1.00  0.00     0.724 A 
HETATM   16  N4  UNL     1      19.313   5.784  49.728  1.00  0.00    -0.045 NA
HETATM   17  N5  UNL     1      23.119   7.185  51.083  1.00  0.00    -0.340 N 
HETATM   18  C14 UNL     1      24.070   6.196  50.574  1.00  0.00     0.040 A 
HETATM   19  C15 UNL     1      24.999   7.114  50.133  1.00  0.00     0.032 A 
HETATM   20  C16 UNL     1      26.216   6.812  49.486  1.00  0.00     0.026 A 
HETATM   21  C17 UNL     1      26.517   5.479  49.266  1.00  0.00     0.034 A 
HETATM   22 CL1  UNL     1      27.976   4.954  48.481  1.00  0.00    -0.084 Cl
HETATM   23  C18 UNL     1      25.514   4.617  49.749  1.00  0.00     0.034 A 
HETATM   24  C19 UNL     1      24.287   4.830  50.399  1.00  0.00    -0.021 A 
HETATM   25  H19 UNL     1      22.952   7.874  51.759  1.00  0.00     0.167 HD
ENDROOT
BRANCH  15  26
HETATM   26  N3  UNL     1      18.666   8.026  48.949  1.00  0.00    -0.231 N 
HETATM   27  H17 UNL     1      18.862   8.966  49.329  1.00  0.00     0.174 HD
HETATM   28  H18 UNL     1      18.085   7.419  48.318  1.00  0.00     0.174 HD
ENDBRANCH  15  26
TORSDOF 1
ENDMDL
MODEL 5
REMARK VINA RESULT:      -7.8      3.011      5.307
REMARK  1 active torsions:
REMARK  status: ('A' for Active; 'I' for Inactive)
REMARK    1  A    between atoms: C13_15  and  N3_16 
ROOT
HETATM    1  C1  UNL     1      23.942   2.714  52.991  1.00  0.00     0.058 C 
HETATM    2  C2  UNL     1      23.156   1.767  52.562  1.00  0.00    -0.009 C 
HETATM    3  C3  UNL     1      22.676   0.595  53.345  1.00  0.00     0.053 C 
HETATM    4  C4  UNL     1      21.332   0.048  52.819  1.00  0.00     0.007 C 
HETATM    5  C5  UNL     1      20.412   1.130  52.438  1.00  0.00     0.014 C 
HETATM    6  C6  UNL     1      19.928   1.260  51.018  1.00  0.00    -0.013 C 
HETATM    7  C7  UNL     1      18.975   0.070  50.868  1.00  0.00     0.020 C 
HETATM    8  C8  UNL     1      20.874   1.042  49.935  1.00  0.00     0.034 C 
HETATM    9  C9  UNL     1      22.310   1.374  50.015  1.00  0.00     0.131 C 
HETATM   10  N1  UNL     1      22.778   1.988  51.218  1.00  0.00    -0.338 N 
HETATM   11  C10 UNL     1      22.932   3.404  51.262  1.00  0.00     0.152 A 
HETATM   12  C11 UNL     1      21.864   4.079  50.718  1.00  0.00     0.102 A 
HETATM   13  C12 UNL     1      21.269   5.299  50.458  1.00  0.00     0.150 A 
HETATM   14  N2  UNL     1      22.230   6.039  51.007  1.00  0.00    -0.045 NA
HETATM   15  C13 UNL     1      23.370   5.521  51.595  1.00  0.00     0.724 A 
HETATM   16  N4  UNL     1      23.853   4.212  51.793  1.00  0.00    -0.045 NA
HETATM   17  N5  UNL     1      20.103   4.801  49.824  1.00  0.00    -0.340 N 
HETATM   18  C14 UNL     1      19.205   3.840  50.464  1.00  0.00     0.040 A 
HETATM   19  C15 UNL     1      18.145   4.712  50.598  1.00  0.00     0.032 A 
HETATM   20  C16 UNL     1      16.899   4.413  51.189  1.00  0.00     0.026 A 
HETATM   21  C17 UNL     1      16.710   3.134  51.684  1.00  0.00     0.034 A 
HETATM   22 CL1  UNL     1      15.231   2.620  52.440  1.00  0.00    -0.084 Cl
HETATM   23  C18 UNL     1      17.841   2.317  51.503  1.00  0.00     0.034 A 
HETATM   24  C19 UNL     1      19.107   2.530  50.931  1.00  0.00    -0.021 A 
HETATM   25  H19 UNL     1      20.276   5.340  49.024  1.00  0.00     0.167 HD
ENDROOT
BRANCH  15  26
HETATM   26  N3  UNL     1      24.182   6.633  52.084  1.00  0.00    -0.231 N 
HETATM   27  H17 UNL     1      24.192   6.530  53.112  1.00  0.00     0.174 HD
HETATM   28  H18 UNL     1      24.490   7.169  51.236  1.00  0.00     0.174 HD
ENDBRANCH  15  26
TORSDOF 1
ENDMDL
MODEL 6
REMARK VINA RESULT:      -7.7      1.887      4.012
REMARK  1 active torsions:
REMARK  status: ('A' for Active; 'I' for Inactive)
REMARK    1  A    between atoms: C13_15  and  N3_16 
ROOT
HETATM    1  C1  UNL     1      20.767   6.037  50.706  1.00  0.00     0.058 C 
HETATM    2  C2  UNL     1      21.974   5.715  50.333  1.00  0.00    -0.009 C 
HETATM    3  C3  UNL     1      23.218   6.486  50.604  1.00  0.00     0.053 C 
HETATM    4  C4  UNL     1      24.474   5.589  50.616  1.00  0.00     0.007 C 
HETATM    5  C5  UNL     1      24.223   4.303  51.282  1.00  0.00     0.014 C 
HETATM    6  C6  UNL     1      24.360   3.008  50.526  1.00  0.00    -0.013 C 
HETATM    7  C7  UNL     1      25.875   2.885  50.328  1.00  0.00     0.020 C 
HETATM    8  C8  UNL     1      23.860   2.939  49.161  1.00  0.00     0.034 C 
HETATM    9  C9  UNL     1      22.685   3.689  48.675  1.00  0.00     0.131 C 
HETATM   10  N1  UNL     1      21.978   4.493  49.623  1.00  0.00    -0.338 N 
HETATM   11  C10 UNL     1      20.802   3.973  50.235  1.00  0.00     0.152 A 
HETATM   12  C11 UNL     1      20.946   2.673  50.664  1.00  0.00     0.102 A 
HETATM   13  C12 UNL     1      20.386   1.598  51.325  1.00  0.00     0.150 A 
HETATM   14  N2  UNL     1      19.231   2.197  51.606  1.00  0.00    -0.045 NA
HETATM   15  C13 UNL     1      18.922   3.496  51.247  1.00  0.00     0.724 A 
HETATM   16  N4  UNL     1      19.619   4.506  50.554  1.00  0.00    -0.045 NA
HETATM   17  N5  UNL     1      21.484   0.711  51.192  1.00  0.00    -0.340 N 
HETATM   18  C14 UNL     1      22.830   1.044  51.660  1.00  0.00     0.040 A 
HETATM   19  C15 UNL     1      22.855   0.115  52.678  1.00  0.00     0.032 A 
HETATM   20  C16 UNL     1      23.917  -0.089  53.585  1.00  0.00     0.026 A 
HETATM   21  C17 UNL     1      25.040   0.710  53.453  1.00  0.00     0.034 A 
HETATM   22 CL1  UNL     1      26.425   0.576  54.495  1.00  0.00    -0.084 Cl
HETATM   23  C18 UNL     1      24.924   1.625  52.390  1.00  0.00     0.034 A 
HETATM   24  C19 UNL     1      23.916   1.892  51.448  1.00  0.00    -0.021 A 
HETATM   25  H19 UNL     1      20.920   0.033  50.765  1.00  0.00     0.167 HD
ENDROOT
BRANCH  15  26
HETATM   26  N3  UNL     1      17.576   3.800  51.729  1.00  0.00    -0.231 N 
HETATM   27  H17 UNL     1      17.185   2.893  52.032  1.00  0.00     0.174 HD
HETATM   28  H18 UNL     1      17.448   4.836  51.612  1.00  0.00     0.174 HD
ENDBRANCH  15  26
TORSDOF 1
ENDMDL
MODEL 7
REMARK VINA RESULT:      -7.7      9.850     11.547
REMARK  1 active torsions:
REMARK  status: ('A' for Active; 'I' for Inactive)
REMARK    1  A    between atoms: C13_15  and  N3_16 
ROOT
HETATM    1  C1  UNL     1      29.302   8.506  44.957  1.00  0.00     0.058 C 
HETATM    2  C2  UNL     1      29.517   8.205  46.207  1.00  0.00    -0.009 C 
HETATM    3  C3  UNL     1      28.548   7.574  47.144  1.00  0.00     0.053 C 
HETATM    4  C4  UNL     1      29.248   6.791  48.275  1.00  0.00     0.007 C 
HETATM    5  C5  UNL     1      30.417   6.047  47.783  1.00  0.00     0.014 C 
HETATM    6  C6  UNL     1      31.795   6.349  48.310  1.00  0.00    -0.013 C 
HETATM    7  C7  UNL     1      31.744   5.800  49.740  1.00  0.00     0.020 C 
HETATM    8  C8  UNL     1      32.174   7.738  48.522  1.00  0.00     0.034 C 
HETATM    9  C9  UNL     1      31.691   8.859  47.693  1.00  0.00     0.131 C 
HETATM   10  N1  UNL     1      30.834   8.544  46.592  1.00  0.00    -0.338 N 
HETATM   11  C10 UNL     1      31.393   8.438  45.286  1.00  0.00     0.152 A 
HETATM   12  C11 UNL     1      32.562   7.714  45.255  1.00  0.00     0.102 A 
HETATM   13  C12 UNL     1      33.569   7.162  44.487  1.00  0.00     0.150 A 
HETATM   14  N2  UNL     1      33.092   7.580  43.317  1.00  0.00    -0.045 NA
HETATM   15  C13 UNL     1      31.932   8.319  43.169  1.00  0.00     0.724 A 
HETATM   16  N4  UNL     1      30.977   8.822  44.075  1.00  0.00    -0.045 NA
HETATM   17  N5  UNL     1      34.307   6.578  45.548  1.00  0.00    -0.340 N 
HETATM   18  C14 UNL     1      33.715   5.635  46.496  1.00  0.00     0.040 A 
HETATM   19  C15 UNL     1      34.435   4.540  46.069  1.00  0.00     0.032 A 
HETATM   20  C16 UNL     1      34.327   3.229  46.579  1.00  0.00     0.026 A 
HETATM   21  C17 UNL     1      33.419   3.007  47.600  1.00  0.00     0.034 A 
HETATM   22 CL1  UNL     1      33.174   1.447  48.327  1.00  0.00    -0.084 Cl
HETATM   23  C18 UNL     1      32.733   4.178  47.970  1.00  0.00     0.034 A 
HETATM   24  C19 UNL     1      32.779   5.509  47.522  1.00  0.00    -0.021 A 
HETATM   25  H19 UNL     1      35.120   7.054  45.279  1.00  0.00     0.167 HD
ENDROOT
BRANCH  15  26
HETATM   26  N3  UNL     1      31.734   8.586  41.746  1.00  0.00    -0.231 N 
HETATM   27  H17 UNL     1      31.902   7.682  41.274  1.00  0.00     0.174 HD
HETATM   28  H18 UNL     1      31.485   9.603  41.669  1.00  0.00     0.174 HD
ENDBRANCH  15  26
TORSDOF 1
ENDMDL
MODEL 8
REMARK VINA RESULT:      -7.6      7.423      9.474
REMARK  1 active torsions:
REMARK  status: ('A' for Active; 'I' for Inactive)
REMARK    1  A    between atoms: C13_15  and  N3_16 
ROOT
HETATM    1  C1  UNL     1      26.740  11.748  46.390  1.00  0.00     0.058 C 
HETATM    2  C2  UNL     1      26.359  10.577  46.817  1.00  0.00    -0.009 C 
HETATM    3  C3  UNL     1      25.689   9.518  46.012  1.00  0.00     0.053 C 
HETATM    4  C4  UNL     1      25.943   8.104  46.575  1.00  0.00     0.007 C 
HETATM    5  C5  UNL     1      27.329   7.938  47.036  1.00  0.00     0.014 C 
HETATM    6  C6  UNL     1      27.625   7.629  48.480  1.00  0.00    -0.013 C 
HETATM    7  C7  UNL     1      27.148   6.180  48.626  1.00  0.00     0.020 C 
HETATM    8  C8  UNL     1      26.864   8.315  49.512  1.00  0.00     0.034 C 
HETATM    9  C9  UNL     1      26.356   9.694  49.382  1.00  0.00     0.131 C 
HETATM   10  N1  UNL     1      26.676  10.405  48.183  1.00  0.00    -0.338 N 
HETATM   11  C10 UNL     1      27.774  11.312  48.186  1.00  0.00     0.152 A 
HETATM   12  C11 UNL     1      28.894  10.803  48.801  1.00  0.00     0.102 A 
HETATM   13  C12 UNL     1      30.223  10.983  49.131  1.00  0.00     0.150 A 
HETATM   14  N2  UNL     1      30.342  12.183  48.570  1.00  0.00    -0.045 NA
HETATM   15  C13 UNL     1      29.316  12.840  47.914  1.00  0.00     0.724 A 
HETATM   16  N4  UNL     1      27.971  12.518  47.645  1.00  0.00    -0.045 NA
HETATM   17  N5  UNL     1      30.414   9.746  49.797  1.00  0.00    -0.340 N 
HETATM   18  C14 UNL     1      30.143   8.456  49.161  1.00  0.00     0.040 A 
HETATM   19  C15 UNL     1      31.459   8.050  49.107  1.00  0.00     0.032 A 
HETATM   20  C16 UNL     1      31.928   6.837  48.560  1.00  0.00     0.026 A 
HETATM   21  C17 UNL     1      30.993   5.967  48.025  1.00  0.00     0.034 A 
HETATM   22 CL1  UNL     1      31.419   4.438  47.316  1.00  0.00    -0.084 Cl
HETATM   23  C18 UNL     1      29.680   6.463  48.126  1.00  0.00     0.034 A 
HETATM   24  C19 UNL     1      29.130   7.645  48.650  1.00  0.00    -0.021 A 
HETATM   25  H19 UNL     1      30.724  10.199  50.609  1.00  0.00     0.167 HD
ENDROOT
BRANCH  15  26
HETATM   26  N3  UNL     1      29.824  14.122  47.431  1.00  0.00    -0.231 N 
HETATM   27  H17 UNL     1      29.052  14.793  47.580  1.00  0.00     0.174 HD
HETATM   28  H18 UNL     1      30.803  13.945  47.094  1.00  0.00     0.174 HD
ENDBRANCH  15  26
TORSDOF 1
ENDMDL
MODEL 9
REMARK VINA RESULT:      -7.3      4.562      7.093
REMARK  1 active torsions:
REMARK  status: ('A' for Active; 'I' for Inactive)
REMARK    1  A    between atoms: C13_15  and  N3_16 
ROOT
HETATM    1  C1  UNL     1      27.570   8.140  46.684  1.00  0.00     0.058 C 
HETATM    2  C2  UNL     1      26.361   8.478  47.036  1.00  0.00    -0.009 C 
HETATM    3  C3  UNL     1      25.340   9.132  46.173  1.00  0.00     0.053 C 
HETATM    4  C4  UNL     1      23.899   8.826  46.633  1.00  0.00     0.007 C 
HETATM    5  C5  UNL     1      23.745   7.427  47.058  1.00  0.00     0.014 C 
HETATM    6  C6  UNL     1      23.348   7.095  48.472  1.00  0.00    -0.013 C 
HETATM    7  C7  UNL     1      21.878   7.526  48.528  1.00  0.00     0.020 C 
HETATM    8  C8  UNL     1      23.939   7.857  49.562  1.00  0.00     0.034 C 
HETATM    9  C9  UNL     1      25.308   8.407  49.535  1.00  0.00     0.131 C 
HETATM   10  N1  UNL     1      26.107   8.130  48.382  1.00  0.00    -0.338 N 
HETATM   11  C10 UNL     1      27.046   7.060  48.428  1.00  0.00     0.152 A 
HETATM   12  C11 UNL     1      26.530   5.913  48.988  1.00  0.00     0.102 A 
HETATM   13  C12 UNL     1      26.727   4.584  49.308  1.00  0.00     0.150 A 
HETATM   14  N2  UNL     1      27.966   4.511  48.827  1.00  0.00    -0.045 NA
HETATM   15  C13 UNL     1      28.634   5.568  48.235  1.00  0.00     0.724 A 
HETATM   16  N4  UNL     1      28.290   6.908  47.968  1.00  0.00    -0.045 NA
HETATM   17  N5  UNL     1      25.455   4.345  49.884  1.00  0.00    -0.340 N 
HETATM   18  C14 UNL     1      24.204   4.590  49.167  1.00  0.00     0.040 A 
HETATM   19  C15 UNL     1      23.843   3.264  49.062  1.00  0.00     0.032 A 
HETATM   20  C16 UNL     1      22.684   2.770  48.426  1.00  0.00     0.026 A 
HETATM   21  C17 UNL     1      21.824   3.689  47.849  1.00  0.00     0.034 A 
HETATM   22 CL1  UNL     1      20.360   3.231  47.030  1.00  0.00    -0.084 Cl
HETATM   23  C18 UNL     1      22.272   5.014  48.006  1.00  0.00     0.034 A 
HETATM   24  C19 UNL     1      23.398   5.588  48.618  1.00  0.00    -0.021 A 
HETATM   25  H19 UNL     1      25.861   4.033  50.719  1.00  0.00     0.167 HD
ENDROOT
BRANCH  15  26
HETATM   26  N3  UNL     1      29.961   5.107  47.833  1.00  0.00    -0.231 N 
HETATM   27  H17 UNL     1      30.615   5.548  48.500  1.00  0.00     0.174 HD
HETATM   28  H18 UNL     1      29.817   4.481  47.001  1.00  0.00     0.174 HD
ENDBRANCH  15  26
TORSDOF 1
ENDMDL
