MODEL 1
REMARK VINA RESULT:      -7.6      0.000      0.000
REMARK  6 active torsions:
REMARK  status: ('A' for Active; 'I' for Inactive)
REMARK    1  A    between atoms: C7_7  and  N1_8 
REMARK    2  A    between atoms: N1_8  and  N2_9 
REMARK    3  A    between atoms: C12_15  and  O1_16 
REMARK    4  A    between atoms: O1_16  and  C13_17 
REMARK    5  A    between atoms: C13_17  and  C14_18 
REMARK    6  A    between atoms: C14_18  and  O2_19 
ROOT
HETATM    1  C1  UNL     1      29.409   5.409  48.185  1.00  0.00     0.018 C 
HETATM    2  C2  UNL     1      28.228   5.549  48.405  1.00  0.00    -0.077 C 
HETATM    3  C3  UNL     1      26.827   5.718  48.666  1.00  0.00     0.025 A 
HETATM    4  C4  UNL     1      26.256   6.929  48.441  1.00  0.00     0.021 A 
HETATM    5  C5  UNL     1      24.909   7.092  48.692  1.00  0.00     0.004 A 
HETATM    6  C6  UNL     1      24.080   6.096  49.165  1.00  0.00     0.031 A 
HETATM    7  C7  UNL     1      24.728   4.900  49.369  1.00  0.00     0.056 A 
HETATM    8  C20 UNL     1      26.067   4.692  49.132  1.00  0.00    -0.015 A 
HETATM    9  C21 UNL     1      26.754   3.394  49.358  1.00  0.00     0.052 C 
ENDROOT
BRANCH   7  10
HETATM   10  N1  UNL     1      23.920   3.834  49.856  1.00  0.00    -0.292 N 
HETATM   11  H5  UNL     1      23.891   3.522  50.851  1.00  0.00     0.187 HD
BRANCH  10  12
HETATM   12  N2  UNL     1      22.977   2.873  49.418  1.00  0.00    -0.247 N 
HETATM   13  C8  UNL     1      22.489   3.130  48.072  1.00  0.00     0.227 C 
HETATM   14  N3  UNL     1      21.615   2.240  47.638  1.00  0.00    -0.272 NA
HETATM   15  C9  UNL     1      20.763   1.686  48.683  1.00  0.00     0.158 C 
HETATM   16  C10 UNL     1      21.654   0.883  49.637  1.00  0.00     0.037 C 
HETATM   17  C19 UNL     1      20.168   2.743  49.597  1.00  0.00     0.199 C 
HETATM   18  C11 UNL     1      22.533   1.731  50.190  1.00  0.00     0.091 C 
HETATM   19  C12 UNL     1      23.196   1.862  51.497  1.00  0.00     0.119 C 
HETATM   20  C16 UNL     1      22.584   2.079  52.686  1.00  0.00     0.173 C 
HETATM   21  O3  UNL     1      21.231   2.197  52.748  1.00  0.00    -0.358 OA
HETATM   22  C17 UNL     1      20.436   3.312  52.374  1.00  0.00     0.200 C 
HETATM   23  C18 UNL     1      19.154   2.797  51.702  1.00  0.00     0.194 C 
HETATM   24  O4  UNL     1      19.513   2.043  50.592  1.00  0.00    -0.387 OA
BRANCH  19  25
HETATM   25  O1  UNL     1      24.576   1.738  51.389  1.00  0.00    -0.345 OA
BRANCH  25  26
HETATM   26  C13 UNL     1      25.389   1.068  52.305  1.00  0.00     0.202 C 
BRANCH  26  27
HETATM   27  C14 UNL     1      26.422   2.019  52.923  1.00  0.00     0.193 C 
BRANCH  27  28
HETATM   28  O2  UNL     1      26.483   1.805  54.314  1.00  0.00    -0.394 OA
HETATM   29  C15 UNL     1      26.308   0.442  54.532  1.00  0.00     0.201 C 
ENDBRANCH  27  28
ENDBRANCH  26  27
ENDBRANCH  25  26
ENDBRANCH  19  25
ENDBRANCH  10  12
ENDBRANCH   7  10
TORSDOF 6
ENDMDL
MODEL 2
REMARK VINA RESULT:      -7.5      2.647      6.299
REMARK  6 active torsions:
REMARK  status: ('A' for Active; 'I' for Inactive)
REMARK    1  A    between atoms: C7_7  and  N1_8 
REMARK    2  A    between atoms: N1_8  and  N2_9 
REMARK    3  A    between atoms: C12_15  and  O1_16 
REMARK    4  A    between atoms: O1_16  and  C13_17 
REMARK    5  A    between atoms: C13_17  and  C14_18 
REMARK    6  A    between atoms: C14_18  and  O2_19 
ROOT
HETATM    1  C1  UNL     1      26.383  -0.315  54.158  1.00  0.00     0.018 C 
HETATM    2  C2  UNL     1      25.184  -0.274  54.009  1.00  0.00    -0.077 C 
HETATM    3  C3  UNL     1      23.760  -0.229  53.833  1.00  0.00     0.025 A 
HETATM    4  C4  UNL     1      22.978  -1.067  54.561  1.00  0.00     0.021 A 
HETATM    5  C5  UNL     1      21.610  -1.024  54.391  1.00  0.00     0.004 A 
HETATM    6  C6  UNL     1      20.960  -0.176  53.520  1.00  0.00     0.031 A 
HETATM    7  C7  UNL     1      21.816   0.642  52.818  1.00  0.00     0.056 A 
HETATM    8  C20 UNL     1      23.185   0.634  52.954  1.00  0.00    -0.015 A 
HETATM    9  C21 UNL     1      24.096   1.523  52.189  1.00  0.00     0.052 C 
ENDROOT
BRANCH   7  10
HETATM   10  N1  UNL     1      21.199   1.541  51.902  1.00  0.00    -0.292 N 
HETATM   11  H5  UNL     1      20.513   2.279  52.171  1.00  0.00     0.187 HD
BRANCH  10  12
HETATM   12  N2  UNL     1      21.164   1.864  50.523  1.00  0.00    -0.247 N 
HETATM   13  C8  UNL     1      21.526   0.742  49.670  1.00  0.00     0.227 C 
HETATM   14  N3  UNL     1      21.490   1.017  48.379  1.00  0.00    -0.272 NA
HETATM   15  C9  UNL     1      21.851   2.392  48.054  1.00  0.00     0.158 C 
HETATM   16  C10 UNL     1      20.779   3.311  48.649  1.00  0.00     0.037 C 
HETATM   17  C19 UNL     1      23.115   2.863  48.753  1.00  0.00     0.199 C 
HETATM   18  C11 UNL     1      20.796   3.155  49.981  1.00  0.00     0.091 C 
HETATM   19  C12 UNL     1      20.570   4.020  51.149  1.00  0.00     0.119 C 
HETATM   20  C16 UNL     1      21.304   5.104  51.495  1.00  0.00     0.173 C 
HETATM   21  O3  UNL     1      22.365   5.484  50.733  1.00  0.00    -0.358 OA
HETATM   22  C17 UNL     1      23.653   4.891  50.677  1.00  0.00     0.200 C 
HETATM   23  C18 UNL     1      24.139   4.910  49.220  1.00  0.00     0.194 C 
HETATM   24  O4  UNL     1      23.229   4.205  48.444  1.00  0.00    -0.387 OA
BRANCH  19  25
HETATM   25  O1  UNL     1      19.481   3.595  51.901  1.00  0.00    -0.345 OA
BRANCH  25  26
HETATM   26  C13 UNL     1      18.145   3.780  51.540  1.00  0.00     0.202 C 
BRANCH  26  27
HETATM   27  C14 UNL     1      17.448   2.434  51.300  1.00  0.00     0.193 C 
BRANCH  27  28
HETATM   28  O2  UNL     1      18.210   1.401  51.879  1.00  0.00    -0.394 OA
HETATM   29  C15 UNL     1      17.952   0.240  51.156  1.00  0.00     0.201 C 
ENDBRANCH  27  28
ENDBRANCH  26  27
ENDBRANCH  25  26
ENDBRANCH  19  25
ENDBRANCH  10  12
ENDBRANCH   7  10
TORSDOF 6
ENDMDL
MODEL 3
REMARK VINA RESULT:      -7.5      2.672      6.226
REMARK  6 active torsions:
REMARK  status: ('A' for Active; 'I' for Inactive)
REMARK    1  A    between atoms: C7_7  and  N1_8 
REMARK    2  A    between atoms: N1_8  and  N2_9 
REMARK    3  A    between atoms: C12_15  and  O1_16 
REMARK    4  A    between atoms: O1_16  and  C13_17 
REMARK    5  A    between atoms: C13_17  and  C14_18 
REMARK    6  A    between atoms: C14_18  and  O2_19 
ROOT
HETATM    1  C1  UNL     1      23.139   7.135  50.572  1.00  0.00     0.018 C 
HETATM    2  C2  UNL     1      23.926   6.224  50.444  1.00  0.00    -0.077 C 
HETATM    3  C3  UNL     1      24.859   5.145  50.291  1.00  0.00     0.025 A 
HETATM    4  C4  UNL     1      25.649   5.108  49.186  1.00  0.00     0.021 A 
HETATM    5  C5  UNL     1      26.546   4.070  49.038  1.00  0.00     0.004 A 
HETATM    6  C6  UNL     1      26.704   3.044  49.946  1.00  0.00     0.031 A 
HETATM    7  C7  UNL     1      25.871   3.148  51.035  1.00  0.00     0.056 A 
HETATM    8  C20 UNL     1      24.963   4.164  51.226  1.00  0.00    -0.015 A 
HETATM    9  C21 UNL     1      24.070   4.263  52.408  1.00  0.00     0.052 C 
ENDROOT
BRANCH   7  10
HETATM   10  N1  UNL     1      25.993   2.114  52.007  1.00  0.00    -0.292 N 
HETATM   11  H5  UNL     1      25.392   1.262  52.042  1.00  0.00     0.187 HD
BRANCH  10  12
HETATM   12  N2  UNL     1      26.758   1.748  53.142  1.00  0.00    -0.247 N 
HETATM   13  C8  UNL     1      27.960   2.553  53.298  1.00  0.00     0.227 C 
HETATM   14  N3  UNL     1      28.685   2.236  54.356  1.00  0.00    -0.272 NA
HETATM   15  C9  UNL     1      28.645   0.819  54.700  1.00  0.00     0.158 C 
HETATM   16  C10 UNL     1      27.212   0.482  55.129  1.00  0.00     0.037 C 
HETATM   17  C19 UNL     1      28.856  -0.096  53.507  1.00  0.00     0.199 C 
HETATM   18  C11 UNL     1      26.406   0.703  54.080  1.00  0.00     0.091 C 
HETATM   19  C12 UNL     1      25.179   0.093  53.543  1.00  0.00     0.119 C 
HETATM   20  C16 UNL     1      25.051  -1.175  53.085  1.00  0.00     0.173 C 
HETATM   21  O3  UNL     1      26.119  -2.017  53.094  1.00  0.00    -0.358 OA
HETATM   22  C17 UNL     1      27.224  -2.032  52.204  1.00  0.00     0.200 C 
HETATM   23  C18 UNL     1      28.496  -2.350  53.006  1.00  0.00     0.194 C 
HETATM   24  O4  UNL     1      28.653  -1.377  53.984  1.00  0.00    -0.387 OA
BRANCH  19  25
HETATM   25  O1  UNL     1      24.116   0.987  53.549  1.00  0.00    -0.345 OA
BRANCH  25  26
HETATM   26  C13 UNL     1      22.770   0.622  53.484  1.00  0.00     0.202 C 
BRANCH  26  27
HETATM   27  C14 UNL     1      22.107   1.182  52.219  1.00  0.00     0.193 C 
BRANCH  27  28
HETATM   28  O2  UNL     1      23.040   1.187  51.163  1.00  0.00    -0.394 OA
HETATM   29  C15 UNL     1      22.385   1.665  50.032  1.00  0.00     0.201 C 
ENDBRANCH  27  28
ENDBRANCH  26  27
ENDBRANCH  25  26
ENDBRANCH  19  25
ENDBRANCH  10  12
ENDBRANCH   7  10
TORSDOF 6
ENDMDL
MODEL 4
REMARK VINA RESULT:      -6.8      2.588      5.726
REMARK  6 active torsions:
REMARK  status: ('A' for Active; 'I' for Inactive)
REMARK    1  A    between atoms: C7_7  and  N1_8 
REMARK    2  A    between atoms: N1_8  and  N2_9 
REMARK    3  A    between atoms: C12_15  and  O1_16 
REMARK    4  A    between atoms: O1_16  and  C13_17 
REMARK    5  A    between atoms: C13_17  and  C14_18 
REMARK    6  A    between atoms: C14_18  and  O2_19 
ROOT
HETATM    1  C1  UNL     1      26.828   0.176  54.934  1.00  0.00     0.018 C 
HETATM    2  C2  UNL     1      25.773   0.194  54.342  1.00  0.00    -0.077 C 
HETATM    3  C3  UNL     1      24.522   0.213  53.640  1.00  0.00     0.025 A 
HETATM    4  C4  UNL     1      23.726  -0.887  53.679  1.00  0.00     0.021 A 
HETATM    5  C5  UNL     1      22.523  -0.869  53.004  1.00  0.00     0.004 A 
HETATM    6  C6  UNL     1      22.057   0.205  52.275  1.00  0.00     0.031 A 
HETATM    7  C7  UNL     1      22.915   1.280  52.280  1.00  0.00     0.056 A 
HETATM    8  C20 UNL     1      24.122   1.307  52.939  1.00  0.00    -0.015 A 
HETATM    9  C21 UNL     1      25.039   2.476  52.936  1.00  0.00     0.052 C 
ENDROOT
BRANCH   7  10
HETATM   10  N1  UNL     1      22.483   2.419  51.543  1.00  0.00    -0.292 N 
HETATM   11  H5  UNL     1      23.076   2.943  50.864  1.00  0.00     0.187 HD
BRANCH  10  12
HETATM   12  N2  UNL     1      21.351   3.251  51.356  1.00  0.00    -0.247 N 
HETATM   13  C8  UNL     1      20.196   2.817  52.127  1.00  0.00     0.227 C 
HETATM   14  N3  UNL     1      19.132   3.584  51.976  1.00  0.00    -0.272 NA
HETATM   15  C9  UNL     1      19.006   4.172  50.647  1.00  0.00     0.158 C 
HETATM   16  C10 UNL     1      20.180   5.139  50.451  1.00  0.00     0.037 C 
HETATM   17  C19 UNL     1      19.213   3.170  49.524  1.00  0.00     0.199 C 
HETATM   18  C11 UNL     1      21.314   4.426  50.511  1.00  0.00     0.091 C 
HETATM   19  C12 UNL     1      22.635   4.485  49.865  1.00  0.00     0.119 C 
HETATM   20  C16 UNL     1      22.884   4.342  48.541  1.00  0.00     0.173 C 
HETATM   21  O3  UNL     1      21.862   4.122  47.672  1.00  0.00    -0.358 OA
HETATM   22  C17 UNL     1      21.150   2.914  47.453  1.00  0.00     0.200 C 
HETATM   23  C18 UNL     1      19.667   3.251  47.233  1.00  0.00     0.194 C 
HETATM   24  O4  UNL     1      19.196   3.913  48.359  1.00  0.00    -0.387 OA
BRANCH  19  25
HETATM   25  O1  UNL     1      23.650   4.708  50.788  1.00  0.00    -0.345 OA
BRANCH  25  26
HETATM   26  C13 UNL     1      23.752   5.839  51.599  1.00  0.00     0.202 C 
BRANCH  26  27
HETATM   27  C14 UNL     1      24.418   6.999  50.847  1.00  0.00     0.193 C 
BRANCH  27  28
HETATM   28  O2  UNL     1      25.494   6.507  50.083  1.00  0.00    -0.394 OA
HETATM   29  C15 UNL     1      26.304   7.591  49.759  1.00  0.00     0.201 C 
ENDBRANCH  27  28
ENDBRANCH  26  27
ENDBRANCH  25  26
ENDBRANCH  19  25
ENDBRANCH  10  12
ENDBRANCH   7  10
TORSDOF 6
ENDMDL
MODEL 5
REMARK VINA RESULT:      -6.7      4.798      8.766
REMARK  6 active torsions:
REMARK  status: ('A' for Active; 'I' for Inactive)
REMARK    1  A    between atoms: C7_7  and  N1_8 
REMARK    2  A    between atoms: N1_8  and  N2_9 
REMARK    3  A    between atoms: C12_15  and  O1_16 
REMARK    4  A    between atoms: O1_16  and  C13_17 
REMARK    5  A    between atoms: C13_17  and  C14_18 
REMARK    6  A    between atoms: C14_18  and  O2_19 
ROOT
HETATM    1  C1  UNL     1      21.681   4.369  49.487  1.00  0.00     0.018 C 
HETATM    2  C2  UNL     1      22.888   4.385  49.406  1.00  0.00    -0.077 C 
HETATM    3  C3  UNL     1      24.319   4.402  49.311  1.00  0.00     0.025 A 
HETATM    4  C4  UNL     1      25.015   3.280  49.632  1.00  0.00     0.021 A 
HETATM    5  C5  UNL     1      26.391   3.296  49.541  1.00  0.00     0.004 A 
HETATM    6  C6  UNL     1      27.132   4.389  49.141  1.00  0.00     0.031 A 
HETATM    7  C7  UNL     1      26.360   5.485  48.834  1.00  0.00     0.056 A 
HETATM    8  C20 UNL     1      24.987   5.515  48.909  1.00  0.00    -0.015 A 
HETATM    9  C21 UNL     1      24.167   6.708  48.574  1.00  0.00     0.052 C 
ENDROOT
BRANCH   7  10
HETATM   10  N1  UNL     1      27.073   6.644  48.413  1.00  0.00    -0.292 N 
HETATM   11  H5  UNL     1      27.335   6.849  47.424  1.00  0.00     0.187 HD
BRANCH  10  12
HETATM   12  N2  UNL     1      27.662   7.827  48.924  1.00  0.00    -0.247 N 
HETATM   13  C8  UNL     1      26.818   8.505  49.896  1.00  0.00     0.227 C 
HETATM   14  N3  UNL     1      27.351   9.606  50.394  1.00  0.00    -0.272 NA
HETATM   15  C9  UNL     1      28.199  10.333  49.456  1.00  0.00     0.158 C 
HETATM   16  C10 UNL     1      29.414   9.452  49.144  1.00  0.00     0.037 C 
HETATM   17  C19 UNL     1      27.563  10.515  48.089  1.00  0.00     0.199 C 
HETATM   18  C11 UNL     1      28.969   8.331  48.557  1.00  0.00     0.091 C 
HETATM   19  C12 UNL     1      29.464   7.414  47.518  1.00  0.00     0.119 C 
HETATM   20  C16 UNL     1      29.699   7.728  46.221  1.00  0.00     0.173 C 
HETATM   21  O3  UNL     1      29.478   8.992  45.772  1.00  0.00    -0.358 OA
HETATM   22  C17 UNL     1      28.233   9.606  45.475  1.00  0.00     0.200 C 
HETATM   23  C18 UNL     1      28.286  11.070  45.937  1.00  0.00     0.194 C 
HETATM   24  O4  UNL     1      28.542  11.092  47.301  1.00  0.00    -0.387 OA
BRANCH  19  25
HETATM   25  O1  UNL     1      29.673   6.134  48.018  1.00  0.00    -0.345 OA
BRANCH  25  26
HETATM   26  C13 UNL     1      30.919   5.515  48.121  1.00  0.00     0.202 C 
BRANCH  26  27
HETATM   27  C14 UNL     1      31.780   6.185  49.200  1.00  0.00     0.193 C 
BRANCH  27  28
HETATM   28  O2  UNL     1      32.980   6.644  48.625  1.00  0.00    -0.394 OA
HETATM   29  C15 UNL     1      32.982   8.032  48.719  1.00  0.00     0.201 C 
ENDBRANCH  27  28
ENDBRANCH  26  27
ENDBRANCH  25  26
ENDBRANCH  19  25
ENDBRANCH  10  12
ENDBRANCH   7  10
TORSDOF 6
ENDMDL
MODEL 6
REMARK VINA RESULT:      -6.6      8.977     11.173
REMARK  6 active torsions:
REMARK  status: ('A' for Active; 'I' for Inactive)
REMARK    1  A    between atoms: C7_7  and  N1_8 
REMARK    2  A    between atoms: N1_8  and  N2_9 
REMARK    3  A    between atoms: C12_15  and  O1_16 
REMARK    4  A    between atoms: O1_16  and  C13_17 
REMARK    5  A    between atoms: C13_17  and  C14_18 
REMARK    6  A    between atoms: C14_18  and  O2_19 
ROOT
HETATM    1  C1  UNL     1      32.214   0.410  46.850  1.00  0.00     0.018 C 
HETATM    2  C2  UNL     1      32.681   1.501  47.089  1.00  0.00    -0.077 C 
HETATM    3  C3  UNL     1      33.237   2.793  47.373  1.00  0.00     0.025 A 
HETATM    4  C4  UNL     1      34.501   2.874  47.863  1.00  0.00     0.021 A 
HETATM    5  C5  UNL     1      35.035   4.116  48.137  1.00  0.00     0.004 A 
HETATM    6  C6  UNL     1      34.369   5.309  47.946  1.00  0.00     0.031 A 
HETATM    7  C7  UNL     1      33.097   5.147  47.448  1.00  0.00     0.056 A 
HETATM    8  C20 UNL     1      32.523   3.930  47.161  1.00  0.00    -0.015 A 
HETATM    9  C21 UNL     1      31.147   3.771  46.624  1.00  0.00     0.052 C 
ENDROOT
BRANCH   7  10
HETATM   10  N1  UNL     1      32.361   6.347  47.230  1.00  0.00    -0.292 N 
HETATM   11  H5  UNL     1      31.821   6.559  46.364  1.00  0.00     0.187 HD
BRANCH  10  12
HETATM   12  N2  UNL     1      32.034   7.573  47.860  1.00  0.00    -0.247 N 
HETATM   13  C8  UNL     1      31.835   7.437  49.295  1.00  0.00     0.227 C 
HETATM   14  N3  UNL     1      31.539   8.571  49.905  1.00  0.00    -0.272 NA
HETATM   15  C9  UNL     1      30.757   9.496  49.093  1.00  0.00     0.158 C 
HETATM   16  C10 UNL     1      31.631   9.938  47.913  1.00  0.00     0.037 C 
HETATM   17  C19 UNL     1      29.576   8.837  48.400  1.00  0.00     0.199 C 
HETATM   18  C11 UNL     1      31.919   8.849  47.185  1.00  0.00     0.091 C 
HETATM   19  C12 UNL     1      32.124   8.556  45.758  1.00  0.00     0.119 C 
HETATM   20  C16 UNL     1      31.203   8.691  44.774  1.00  0.00     0.173 C 
HETATM   21  O3  UNL     1      29.950   9.134  45.065  1.00  0.00    -0.358 OA
HETATM   22  C17 UNL     1      28.890   8.411  45.670  1.00  0.00     0.200 C 
HETATM   23  C18 UNL     1      28.140   9.349  46.628  1.00  0.00     0.194 C 
HETATM   24  O4  UNL     1      29.039   9.812  47.581  1.00  0.00    -0.387 OA
BRANCH  19  25
HETATM   25  O1  UNL     1      33.414   8.105  45.505  1.00  0.00    -0.345 OA
BRANCH  25  26
HETATM   26  C13 UNL     1      34.096   8.279  44.300  1.00  0.00     0.202 C 
BRANCH  26  27
HETATM   27  C14 UNL     1      34.342   6.933  43.606  1.00  0.00     0.193 C 
BRANCH  27  28
HETATM   28  O2  UNL     1      33.923   5.886  44.450  1.00  0.00    -0.394 OA
HETATM   29  C15 UNL     1      34.294   4.690  43.844  1.00  0.00     0.201 C 
ENDBRANCH  27  28
ENDBRANCH  26  27
ENDBRANCH  25  26
ENDBRANCH  19  25
ENDBRANCH  10  12
ENDBRANCH   7  10
TORSDOF 6
ENDMDL
MODEL 7
REMARK VINA RESULT:      -6.5      2.692      6.580
REMARK  6 active torsions:
REMARK  status: ('A' for Active; 'I' for Inactive)
REMARK    1  A    between atoms: C7_7  and  N1_8 
REMARK    2  A    between atoms: N1_8  and  N2_9 
REMARK    3  A    between atoms: C12_15  and  O1_16 
REMARK    4  A    between atoms: O1_16  and  C13_17 
REMARK    5  A    between atoms: C13_17  and  C14_18 
REMARK    6  A    between atoms: C14_18  and  O2_19 
ROOT
HETATM    1  C1  UNL     1      21.837  -1.760  54.773  1.00  0.00     0.018 C 
HETATM    2  C2  UNL     1      22.269  -0.977  53.959  1.00  0.00    -0.077 C 
HETATM    3  C3  UNL     1      22.783  -0.047  52.994  1.00  0.00     0.025 A 
HETATM    4  C4  UNL     1      24.092   0.312  53.057  1.00  0.00     0.021 A 
HETATM    5  C5  UNL     1      24.586   1.206  52.130  1.00  0.00     0.004 A 
HETATM    6  C6  UNL     1      23.838   1.775  51.122  1.00  0.00     0.031 A 
HETATM    7  C7  UNL     1      22.524   1.365  51.122  1.00  0.00     0.056 A 
HETATM    8  C20 UNL     1      21.988   0.477  52.025  1.00  0.00    -0.015 A 
HETATM    9  C21 UNL     1      20.567   0.043  52.013  1.00  0.00     0.052 C 
ENDROOT
BRANCH   7  10
HETATM   10  N1  UNL     1      21.703   1.921  50.100  1.00  0.00    -0.292 N 
HETATM   11  H5  UNL     1      20.772   1.545  49.821  1.00  0.00     0.187 HD
BRANCH  10  12
HETATM   12  N2  UNL     1      21.675   2.978  49.158  1.00  0.00    -0.247 N 
HETATM   13  C8  UNL     1      22.166   2.581  47.847  1.00  0.00     0.227 C 
HETATM   14  N3  UNL     1      22.139   3.549  46.948  1.00  0.00    -0.272 NA
HETATM   15  C9  UNL     1      22.375   4.878  47.500  1.00  0.00     0.158 C 
HETATM   16  C10 UNL     1      21.203   5.215  48.428  1.00  0.00     0.037 C 
HETATM   17  C19 UNL     1      23.568   4.937  48.439  1.00  0.00     0.199 C 
HETATM   18  C11 UNL     1      21.199   4.319  49.427  1.00  0.00     0.091 C 
HETATM   19  C12 UNL     1      20.859   4.333  50.858  1.00  0.00     0.119 C 
HETATM   20  C16 UNL     1      21.476   5.062  51.819  1.00  0.00     0.173 C 
HETATM   21  O3  UNL     1      22.516   5.878  51.498  1.00  0.00    -0.358 OA
HETATM   22  C17 UNL     1      23.856   5.509  51.213  1.00  0.00     0.200 C 
HETATM   23  C18 UNL     1      24.378   6.398  50.073  1.00  0.00     0.194 C 
HETATM   24  O4  UNL     1      23.561   6.215  48.965  1.00  0.00    -0.387 OA
BRANCH  19  25
HETATM   25  O1  UNL     1      19.796   3.485  51.143  1.00  0.00    -0.345 OA
BRANCH  25  26
HETATM   26  C13 UNL     1      18.468   3.893  51.278  1.00  0.00     0.202 C 
BRANCH  26  27
HETATM   27  C14 UNL     1      17.549   2.695  51.552  1.00  0.00     0.193 C 
BRANCH  27  28
HETATM   28  O2  UNL     1      16.502   2.682  50.611  1.00  0.00    -0.394 OA
HETATM   29  C15 UNL     1      16.036   3.988  50.490  1.00  0.00     0.201 C 
ENDBRANCH  27  28
ENDBRANCH  26  27
ENDBRANCH  25  26
ENDBRANCH  19  25
ENDBRANCH  10  12
ENDBRANCH   7  10
TORSDOF 6
ENDMDL
MODEL 8
REMARK VINA RESULT:      -6.5      6.256     10.276
REMARK  6 active torsions:
REMARK  status: ('A' for Active; 'I' for Inactive)
REMARK    1  A    between atoms: C7_7  and  N1_8 
REMARK    2  A    between atoms: N1_8  and  N2_9 
REMARK    3  A    between atoms: C12_15  and  O1_16 
REMARK    4  A    between atoms: O1_16  and  C13_17 
REMARK    5  A    between atoms: C13_17  and  C14_18 
REMARK    6  A    between atoms: C14_18  and  O2_19 
ROOT
HETATM    1  C1  UNL     1      26.536   3.180  49.742  1.00  0.00     0.018 C 
HETATM    2  C2  UNL     1      26.561   4.284  49.248  1.00  0.00    -0.077 C 
HETATM    3  C3  UNL     1      26.588   5.593  48.660  1.00  0.00     0.025 A 
HETATM    4  C4  UNL     1      25.423   6.276  48.516  1.00  0.00     0.021 A 
HETATM    5  C5  UNL     1      25.449   7.535  47.952  1.00  0.00     0.004 A 
HETATM    6  C6  UNL     1      26.593   8.166  47.512  1.00  0.00     0.031 A 
HETATM    7  C7  UNL     1      27.732   7.415  47.689  1.00  0.00     0.056 A 
HETATM    8  C20 UNL     1      27.754   6.157  48.248  1.00  0.00    -0.015 A 
HETATM    9  C21 UNL     1      28.991   5.357  48.433  1.00  0.00     0.052 C 
ENDROOT
BRANCH   7  10
HETATM   10  N1  UNL     1      28.945   8.019  47.254  1.00  0.00    -0.292 N 
HETATM   11  H5  UNL     1      29.438   7.781  46.366  1.00  0.00     0.187 HD
BRANCH  10  12
HETATM   12  N2  UNL     1      29.898   8.991  47.644  1.00  0.00    -0.247 N 
HETATM   13  C8  UNL     1      29.743   9.412  49.028  1.00  0.00     0.227 C 
HETATM   14  N3  UNL     1      30.628  10.312  49.418  1.00  0.00    -0.272 NA
HETATM   15  C9  UNL     1      31.043  11.232  48.365  1.00  0.00     0.158 C 
HETATM   16  C10 UNL     1      31.796  10.420  47.304  1.00  0.00     0.037 C 
HETATM   17  C19 UNL     1      29.879  11.808  47.577  1.00  0.00     0.199 C 
HETATM   18  C11 UNL     1      30.942   9.522  46.792  1.00  0.00     0.091 C 
HETATM   19  C12 UNL     1      30.722   8.905  45.475  1.00  0.00     0.119 C 
HETATM   20  C16 UNL     1      30.367   9.551  44.338  1.00  0.00     0.173 C 
HETATM   21  O3  UNL     1      30.181  10.898  44.347  1.00  0.00    -0.358 OA
HETATM   22  C17 UNL     1      29.070  11.620  44.854  1.00  0.00     0.200 C 
HETATM   23  C18 UNL     1      29.584  12.899  45.532  1.00  0.00     0.194 C 
HETATM   24  O4  UNL     1      30.453  12.536  46.552  1.00  0.00    -0.387 OA
BRANCH  19  25
HETATM   25  O1  UNL     1      30.919   7.530  45.511  1.00  0.00    -0.345 OA
BRANCH  25  26
HETATM   26  C13 UNL     1      32.138   6.895  45.270  1.00  0.00     0.202 C 
BRANCH  26  27
HETATM   27  C14 UNL     1      32.442   5.854  46.356  1.00  0.00     0.193 C 
BRANCH  27  28
HETATM   28  O2  UNL     1      32.166   6.404  47.623  1.00  0.00    -0.394 OA
HETATM   29  C15 UNL     1      32.908   5.687  48.557  1.00  0.00     0.201 C 
ENDBRANCH  27  28
ENDBRANCH  26  27
ENDBRANCH  25  26
ENDBRANCH  19  25
ENDBRANCH  10  12
ENDBRANCH   7  10
TORSDOF 6
ENDMDL
MODEL 9
REMARK VINA RESULT:      -6.5      2.981      7.749
REMARK  6 active torsions:
REMARK  status: ('A' for Active; 'I' for Inactive)
REMARK    1  A    between atoms: C7_7  and  N1_8 
REMARK    2  A    between atoms: N1_8  and  N2_9 
REMARK    3  A    between atoms: C12_15  and  O1_16 
REMARK    4  A    between atoms: O1_16  and  C13_17 
REMARK    5  A    between atoms: C13_17  and  C14_18 
REMARK    6  A    between atoms: C14_18  and  O2_19 
ROOT
HETATM    1  C1  UNL     1      16.435  -2.081  52.734  1.00  0.00     0.018 C 
HETATM    2  C2  UNL     1      17.504  -1.522  52.828  1.00  0.00    -0.077 C 
HETATM    3  C3  UNL     1      18.773  -0.862  52.941  1.00  0.00     0.025 A 
HETATM    4  C4  UNL     1      19.675  -1.317  53.849  1.00  0.00     0.021 A 
HETATM    5  C5  UNL     1      20.895  -0.682  53.959  1.00  0.00     0.004 A 
HETATM    6  C6  UNL     1      21.276   0.405  53.201  1.00  0.00     0.031 A 
HETATM    7  C7  UNL     1      20.313   0.809  52.306  1.00  0.00     0.056 A 
HETATM    8  C20 UNL     1      19.085   0.207  52.161  1.00  0.00    -0.015 A 
HETATM    9  C21 UNL     1      18.054   0.654  51.190  1.00  0.00     0.052 C 
ENDROOT
BRANCH   7  10
HETATM   10  N1  UNL     1      20.654   1.929  51.494  1.00  0.00    -0.292 N 
HETATM   11  H5  UNL     1      20.619   2.921  51.812  1.00  0.00     0.187 HD
BRANCH  10  12
HETATM   12  N2  UNL     1      21.101   2.253  50.189  1.00  0.00    -0.247 N 
HETATM   13  C8  UNL     1      21.545   1.089  49.438  1.00  0.00     0.227 C 
HETATM   14  N3  UNL     1      21.957   1.367  48.214  1.00  0.00    -0.272 NA
HETATM   15  C9  UNL     1      22.597   2.670  48.083  1.00  0.00     0.158 C 
HETATM   16  C10 UNL     1      21.536   3.742  48.359  1.00  0.00     0.037 C 
HETATM   17  C19 UNL     1      23.631   2.943  49.162  1.00  0.00     0.199 C 
HETATM   18  C11 UNL     1      21.112   3.585  49.622  1.00  0.00     0.091 C 
HETATM   19  C12 UNL     1      20.658   4.474  50.703  1.00  0.00     0.119 C 
HETATM   20  C16 UNL     1      21.396   5.434  51.311  1.00  0.00     0.173 C 
HETATM   21  O3  UNL     1      22.685   5.648  50.935  1.00  0.00    -0.358 OA
HETATM   22  C17 UNL     1      23.826   4.866  51.253  1.00  0.00     0.200 C 
HETATM   23  C18 UNL     1      24.742   4.811  50.021  1.00  0.00     0.194 C 
HETATM   24  O4  UNL     1      24.029   4.253  48.968  1.00  0.00    -0.387 OA
BRANCH  19  25
HETATM   25  O1  UNL     1      19.339   4.220  51.058  1.00  0.00    -0.345 OA
BRANCH  25  26
HETATM   26  C13 UNL     1      18.267   4.189  50.165  1.00  0.00     0.202 C 
BRANCH  26  27
HETATM   27  C14 UNL     1      16.942   4.470  50.886  1.00  0.00     0.193 C 
BRANCH  27  28
HETATM   28  O2  UNL     1      16.968   3.878  52.163  1.00  0.00    -0.394 OA
HETATM   29  C15 UNL     1      15.660   3.529  52.486  1.00  0.00     0.201 C 
ENDBRANCH  27  28
ENDBRANCH  26  27
ENDBRANCH  25  26
ENDBRANCH  19  25
ENDBRANCH  10  12
ENDBRANCH   7  10
TORSDOF 6
ENDMDL
