MODEL 1
REMARK VINA RESULT:      -8.8      0.000      0.000
REMARK  5 active torsions:
REMARK  status: ('A' for Active; 'I' for Inactive)
REMARK    1  A    between atoms: C2_2  and  C3_3 
REMARK    2  A    between atoms: N1_7  and  C7_8 
REMARK    3  A    between atoms: C7_8  and  C8_9 
REMARK    4  A    between atoms: C8_9  and  C9_10 
REMARK    5  A    between atoms: C14_15  and  O1_16 
ROOT
HETATM    1  C3  UNL     1      23.064   5.456  50.421  1.00  0.00     0.029 C 
HETATM    2  C4  UNL     1      23.299   4.232  50.840  1.00  0.00     0.035 C 
HETATM    3  C5  UNL     1      24.033   3.999  52.064  1.00  0.00     0.046 C 
HETATM    4  C6  UNL     1      24.333   2.833  52.593  1.00  0.00     0.093 C 
HETATM    5  N1  UNL     1      24.302   1.419  52.579  1.00  0.00    -0.357 N 
HETATM    6  C15 UNL     1      23.018   0.959  52.994  1.00  0.00     0.045 C 
HETATM    7  C16 UNL     1      21.857   1.469  52.621  1.00  0.00     0.082 C 
HETATM    8  C17 UNL     1      20.477   1.079  52.982  1.00  0.00     0.094 C 
HETATM    9  C18 UNL     1      20.559   0.118  54.142  1.00  0.00    -0.024 C 
HETATM   10  C19 UNL     1      21.738  -0.421  54.521  1.00  0.00    -0.024 C 
HETATM   11  C20 UNL     1      23.083  -0.199  53.923  1.00  0.00     0.086 C 
HETATM   12  O2  UNL     1      21.919   2.565  51.737  1.00  0.00    -0.286 OA
HETATM   13  C21 UNL     1      21.926   2.182  50.384  1.00  0.00     0.220 C 
HETATM   14  S1  UNL     1      21.365   1.089  49.315  1.00  0.00    -0.033 SA
HETATM   15  N2  UNL     1      22.768   3.239  49.980  1.00  0.00    -0.327 N 
HETATM   16  H22 UNL     1      22.999   3.256  48.942  1.00  0.00     0.169 HD
ENDROOT
BRANCH   5  17
HETATM   17  C7  UNL     1      25.394   0.547  52.204  1.00  0.00     0.133 C 
BRANCH  17  18
HETATM   18  C8  UNL     1      26.671   0.987  52.826  1.00  0.00     0.061 C 
BRANCH  18  19
HETATM   19  C9  UNL     1      27.634  -0.119  53.007  1.00  0.00    -0.024 A 
HETATM   20  C10 UNL     1      27.296  -1.449  52.766  1.00  0.00     0.010 A 
HETATM   21  C11 UNL     1      28.187  -2.504  52.929  1.00  0.00     0.001 A 
HETATM   22  C12 UNL     1      29.468  -2.207  53.351  1.00  0.00     0.003 A 
HETATM   23  C13 UNL     1      29.865  -0.916  53.605  1.00  0.00     0.037 A 
HETATM   24  C14 UNL     1      28.935   0.100  53.426  1.00  0.00     0.072 A 
BRANCH  24  25
HETATM   25  O1  UNL     1      29.379   1.380  53.694  1.00  0.00    -0.360 OA
HETATM   26  H15 UNL     1      29.052   2.193  53.187  1.00  0.00     0.217 HD
ENDBRANCH  24  25
ENDBRANCH  18  19
ENDBRANCH  17  18
ENDBRANCH   5  17
BRANCH   1  27
HETATM   27  C2  UNL     1      23.577   6.529  51.246  1.00  0.00    -0.008 C 
HETATM   28  C1  UNL     1      23.877   7.732  50.798  1.00  0.00     0.011 C 
ENDBRANCH   1  27
TORSDOF 5
ENDMDL
MODEL 2
REMARK VINA RESULT:      -8.3      2.965      6.687
REMARK  5 active torsions:
REMARK  status: ('A' for Active; 'I' for Inactive)
REMARK    1  A    between atoms: C2_2  and  C3_3 
REMARK    2  A    between atoms: N1_7  and  C7_8 
REMARK    3  A    between atoms: C7_8  and  C8_9 
REMARK    4  A    between atoms: C8_9  and  C9_10 
REMARK    5  A    between atoms: C14_15  and  O1_16 
ROOT
HETATM    1  C3  UNL     1      22.654  -0.694  53.728  1.00  0.00     0.029 C 
HETATM    2  C4  UNL     1      23.731  -0.140  53.214  1.00  0.00     0.035 C 
HETATM    3  C5  UNL     1      23.897   1.296  53.220  1.00  0.00     0.046 C 
HETATM    4  C6  UNL     1      24.919   1.972  52.744  1.00  0.00     0.093 C 
HETATM    5  N1  UNL     1      26.181   2.031  52.108  1.00  0.00    -0.357 N 
HETATM    6  C15 UNL     1      27.206   1.680  53.033  1.00  0.00     0.045 C 
HETATM    7  C16 UNL     1      27.153   0.689  53.907  1.00  0.00     0.082 C 
HETATM    8  C17 UNL     1      28.145   0.236  54.906  1.00  0.00     0.094 C 
HETATM    9  C18 UNL     1      29.212   1.298  55.011  1.00  0.00    -0.024 C 
HETATM   10  C19 UNL     1      29.284   2.306  54.114  1.00  0.00    -0.024 C 
HETATM   11  C20 UNL     1      28.405   2.554  52.939  1.00  0.00     0.086 C 
HETATM   12  O2  UNL     1      25.968  -0.073  53.905  1.00  0.00    -0.286 OA
HETATM   13  C21 UNL     1      26.014  -1.162  53.017  1.00  0.00     0.220 C 
HETATM   14  S1  UNL     1      26.983  -2.291  52.356  1.00  0.00    -0.033 SA
HETATM   15  N2  UNL     1      24.643  -1.087  52.688  1.00  0.00    -0.327 N 
HETATM   16  H22 UNL     1      24.311  -1.815  51.987  1.00  0.00     0.169 HD
ENDROOT
BRANCH   5  17
HETATM   17  C7  UNL     1      26.422   2.388  50.726  1.00  0.00     0.133 C 
BRANCH  17  18
HETATM   18  C8  UNL     1      25.479   3.444  50.272  1.00  0.00     0.061 C 
BRANCH  18  19
HETATM   19  C9  UNL     1      26.162   4.594  49.645  1.00  0.00    -0.024 A 
HETATM   20  C10 UNL     1      27.352   4.459  48.935  1.00  0.00     0.010 A 
HETATM   21  C11 UNL     1      28.010   5.528  48.337  1.00  0.00     0.001 A 
HETATM   22  C12 UNL     1      27.446   6.782  48.460  1.00  0.00     0.003 A 
HETATM   23  C13 UNL     1      26.273   6.984  49.147  1.00  0.00     0.037 A 
HETATM   24  C14 UNL     1      25.657   5.881  49.725  1.00  0.00     0.072 A 
BRANCH  24  25
HETATM   25  O1  UNL     1      24.482   6.132  50.405  1.00  0.00    -0.360 OA
HETATM   26  H15 UNL     1      23.832   5.402  50.669  1.00  0.00     0.217 HD
ENDBRANCH  24  25
ENDBRANCH  18  19
ENDBRANCH  17  18
ENDBRANCH   5  17
BRANCH   1  27
HETATM   27  C2  UNL     1      21.669   0.209  54.286  1.00  0.00    -0.008 C 
HETATM   28  C1  UNL     1      20.423   0.299  53.867  1.00  0.00     0.011 C 
ENDBRANCH   1  27
TORSDOF 5
ENDMDL
MODEL 3
REMARK VINA RESULT:      -7.8      3.532      6.648
REMARK  5 active torsions:
REMARK  status: ('A' for Active; 'I' for Inactive)
REMARK    1  A    between atoms: C2_2  and  C3_3 
REMARK    2  A    between atoms: N1_7  and  C7_8 
REMARK    3  A    between atoms: C7_8  and  C8_9 
REMARK    4  A    between atoms: C8_9  and  C9_10 
REMARK    5  A    between atoms: C14_15  and  O1_16 
ROOT
HETATM    1  C3  UNL     1      26.434   1.605  54.035  1.00  0.00     0.029 C 
HETATM    2  C4  UNL     1      25.986   2.237  52.971  1.00  0.00     0.035 C 
HETATM    3  C5  UNL     1      26.524   1.948  51.661  1.00  0.00     0.046 C 
HETATM    4  C6  UNL     1      26.166   2.503  50.524  1.00  0.00     0.093 C 
HETATM    5  N1  UNL     1      25.376   3.408  49.779  1.00  0.00    -0.357 N 
HETATM    6  C15 UNL     1      24.064   2.879  49.607  1.00  0.00     0.045 C 
HETATM    7  C16 UNL     1      23.350   2.269  50.536  1.00  0.00     0.082 C 
HETATM    8  C17 UNL     1      21.993   1.684  50.474  1.00  0.00     0.094 C 
HETATM    9  C18 UNL     1      21.586   1.616  49.023  1.00  0.00    -0.024 C 
HETATM   10  C19 UNL     1      22.301   2.250  48.067  1.00  0.00    -0.024 C 
HETATM   11  C20 UNL     1      23.529   3.075  48.234  1.00  0.00     0.086 C 
HETATM   12  O2  UNL     1      23.960   2.140  51.800  1.00  0.00    -0.286 OA
HETATM   13  C21 UNL     1      23.707   3.234  52.647  1.00  0.00     0.220 C 
HETATM   14  S1  UNL     1      22.604   4.357  53.065  1.00  0.00    -0.033 SA
HETATM   15  N2  UNL     1      24.971   3.178  53.272  1.00  0.00    -0.327 N 
HETATM   16  H22 UNL     1      25.134   3.916  54.020  1.00  0.00     0.169 HD
ENDROOT
BRANCH   5  17
HETATM   17  C7  UNL     1      25.809   4.688  49.259  1.00  0.00     0.133 C 
BRANCH  17  18
HETATM   18  C8  UNL     1      27.260   4.672  48.930  1.00  0.00     0.061 C 
BRANCH  18  19
HETATM   19  C9  UNL     1      27.744   5.965  48.406  1.00  0.00    -0.024 A 
HETATM   20  C10 UNL     1      26.894   6.900  47.821  1.00  0.00     0.010 A 
HETATM   21  C11 UNL     1      27.329   8.122  47.322  1.00  0.00     0.001 A 
HETATM   22  C12 UNL     1      28.676   8.414  47.418  1.00  0.00     0.003 A 
HETATM   23  C13 UNL     1      29.568   7.536  47.985  1.00  0.00     0.037 A 
HETATM   24  C14 UNL     1      29.080   6.328  48.467  1.00  0.00     0.072 A 
BRANCH  24  25
HETATM   25  O1  UNL     1      30.012   5.478  49.027  1.00  0.00    -0.360 OA
HETATM   26  H15 UNL     1      30.009   5.226  50.008  1.00  0.00     0.217 HD
ENDBRANCH  24  25
ENDBRANCH  18  19
ENDBRANCH  17  18
ENDBRANCH   5  17
BRANCH   1  27
HETATM   27  C2  UNL     1      27.476   0.625  53.812  1.00  0.00    -0.008 C 
HETATM   28  C1  UNL     1      28.501   0.435  54.617  1.00  0.00     0.011 C 
ENDBRANCH   1  27
TORSDOF 5
ENDMDL
MODEL 4
REMARK VINA RESULT:      -7.7      7.211      9.372
REMARK  5 active torsions:
REMARK  status: ('A' for Active; 'I' for Inactive)
REMARK    1  A    between atoms: C2_2  and  C3_3 
REMARK    2  A    between atoms: N1_7  and  C7_8 
REMARK    3  A    between atoms: C7_8  and  C8_9 
REMARK    4  A    between atoms: C8_9  and  C9_10 
REMARK    5  A    between atoms: C14_15  and  O1_16 
ROOT
HETATM    1  C3  UNL     1      25.507   5.264  49.722  1.00  0.00     0.029 C 
HETATM    2  C4  UNL     1      26.643   5.813  49.351  1.00  0.00     0.035 C 
HETATM    3  C5  UNL     1      27.628   5.049  48.619  1.00  0.00     0.046 C 
HETATM    4  C6  UNL     1      28.795   5.475  48.189  1.00  0.00     0.093 C 
HETATM    5  N1  UNL     1      29.770   6.489  48.047  1.00  0.00    -0.357 N 
HETATM    6  C15 UNL     1      29.379   7.397  47.021  1.00  0.00     0.045 C 
HETATM    7  C16 UNL     1      28.160   7.873  46.833  1.00  0.00     0.082 C 
HETATM    8  C17 UNL     1      27.641   8.810  45.814  1.00  0.00     0.094 C 
HETATM    9  C18 UNL     1      28.700   8.965  44.749  1.00  0.00    -0.024 C 
HETATM   10  C19 UNL     1      29.953   8.497  44.938  1.00  0.00    -0.024 C 
HETATM   11  C20 UNL     1      30.501   7.794  46.130  1.00  0.00     0.086 C 
HETATM   12  O2  UNL     1      27.177   7.427  47.739  1.00  0.00    -0.286 OA
HETATM   13  C21 UNL     1      27.072   8.240  48.882  1.00  0.00     0.220 C 
HETATM   14  S1  UNL     1      27.180   9.769  49.433  1.00  0.00    -0.033 SA
HETATM   15  N2  UNL     1      26.757   7.169  49.745  1.00  0.00    -0.327 N 
HETATM   16  H22 UNL     1      26.604   7.443  50.761  1.00  0.00     0.169 HD
ENDROOT
BRANCH   5  17
HETATM   17  C7  UNL     1      30.991   6.611  48.816  1.00  0.00     0.133 C 
BRANCH  17  18
HETATM   18  C8  UNL     1      31.589   5.277  49.090  1.00  0.00     0.061 C 
BRANCH  18  19
HETATM   19  C9  UNL     1      32.481   4.815  48.008  1.00  0.00    -0.024 A 
HETATM   20  C10 UNL     1      31.995   4.265  46.824  1.00  0.00     0.010 A 
HETATM   21  C11 UNL     1      32.817   3.825  45.792  1.00  0.00     0.001 A 
HETATM   22  C12 UNL     1      34.183   3.943  45.962  1.00  0.00     0.003 A 
HETATM   23  C13 UNL     1      34.727   4.477  47.107  1.00  0.00     0.037 A 
HETATM   24  C14 UNL     1      33.860   4.901  48.105  1.00  0.00     0.072 A 
BRANCH  24  25
HETATM   25  O1  UNL     1      34.451   5.429  49.235  1.00  0.00    -0.360 OA
HETATM   26  H15 UNL     1      35.036   6.255  49.216  1.00  0.00     0.217 HD
ENDBRANCH  24  25
ENDBRANCH  18  19
ENDBRANCH  17  18
ENDBRANCH   5  17
BRANCH   1  27
HETATM   27  C2  UNL     1      25.312   3.876  49.358  1.00  0.00    -0.008 C 
HETATM   28  C1  UNL     1      24.153   3.252  49.401  1.00  0.00     0.011 C 
ENDBRANCH   1  27
TORSDOF 5
ENDMDL
MODEL 5
REMARK VINA RESULT:      -7.7      1.433      1.911
REMARK  5 active torsions:
REMARK  status: ('A' for Active; 'I' for Inactive)
REMARK    1  A    between atoms: C2_2  and  C3_3 
REMARK    2  A    between atoms: N1_7  and  C7_8 
REMARK    3  A    between atoms: C7_8  and  C8_9 
REMARK    4  A    between atoms: C8_9  and  C9_10 
REMARK    5  A    between atoms: C14_15  and  O1_16 
ROOT
HETATM    1  C3  UNL     1      24.479   6.267  49.374  1.00  0.00     0.029 C 
HETATM    2  C4  UNL     1      24.228   5.098  49.921  1.00  0.00     0.035 C 
HETATM    3  C5  UNL     1      24.301   4.923  51.355  1.00  0.00     0.046 C 
HETATM    4  C6  UNL     1      24.074   3.815  52.025  1.00  0.00     0.093 C 
HETATM    5  N1  UNL     1      23.730   2.444  52.077  1.00  0.00    -0.357 N 
HETATM    6  C15 UNL     1      22.324   2.291  51.901  1.00  0.00     0.045 C 
HETATM    7  C16 UNL     1      21.580   2.940  51.022  1.00  0.00     0.082 C 
HETATM    8  C17 UNL     1      20.128   2.864  50.751  1.00  0.00     0.094 C 
HETATM    9  C18 UNL     1      19.489   2.090  51.878  1.00  0.00    -0.024 C 
HETATM   10  C19 UNL     1      20.240   1.409  52.771  1.00  0.00    -0.024 C 
HETATM   11  C20 UNL     1      21.723   1.293  52.824  1.00  0.00     0.086 C 
HETATM   12  O2  UNL     1      22.258   3.862  50.200  1.00  0.00    -0.286 OA
HETATM   13  C21 UNL     1      22.749   3.285  49.015  1.00  0.00     0.220 C 
HETATM   14  S1  UNL     1      22.461   2.163  47.871  1.00  0.00    -0.033 SA
HETATM   15  N2  UNL     1      23.901   4.100  48.971  1.00  0.00    -0.327 N 
HETATM   16  H22 UNL     1      24.546   3.918  48.145  1.00  0.00     0.169 HD
ENDROOT
BRANCH   5  17
HETATM   17  C7  UNL     1      24.647   1.342  52.277  1.00  0.00     0.133 C 
BRANCH  17  18
HETATM   18  C8  UNL     1      25.465   1.541  53.503  1.00  0.00     0.061 C 
BRANCH  18  19
HETATM   19  C9  UNL     1      26.752   0.817  53.458  1.00  0.00    -0.024 A 
HETATM   20  C10 UNL     1      26.839  -0.532  53.124  1.00  0.00     0.010 A 
HETATM   21  C11 UNL     1      28.040  -1.231  53.075  1.00  0.00     0.001 A 
HETATM   22  C12 UNL     1      29.199  -0.542  53.374  1.00  0.00     0.003 A 
HETATM   23  C13 UNL     1      29.183   0.791  53.710  1.00  0.00     0.037 A 
HETATM   24  C14 UNL     1      27.956   1.441  53.744  1.00  0.00     0.072 A 
BRANCH  24  25
HETATM   25  O1  UNL     1      27.988   2.777  54.088  1.00  0.00    -0.360 OA
HETATM   26  H15 UNL     1      27.383   3.469  53.665  1.00  0.00     0.217 HD
ENDBRANCH  24  25
ENDBRANCH  18  19
ENDBRANCH  17  18
ENDBRANCH   5  17
BRANCH   1  27
HETATM   27  C2  UNL     1      24.824   7.342  50.280  1.00  0.00    -0.008 C 
HETATM   28  C1  UNL     1      25.541   8.395  49.944  1.00  0.00     0.011 C 
ENDBRANCH   1  27
TORSDOF 5
ENDMDL
MODEL 6
REMARK VINA RESULT:      -7.7      1.715      2.360
REMARK  5 active torsions:
REMARK  status: ('A' for Active; 'I' for Inactive)
REMARK    1  A    between atoms: C2_2  and  C3_3 
REMARK    2  A    between atoms: N1_7  and  C7_8 
REMARK    3  A    between atoms: C7_8  and  C8_9 
REMARK    4  A    between atoms: C8_9  and  C9_10 
REMARK    5  A    between atoms: C14_15  and  O1_16 
ROOT
HETATM    1  C3  UNL     1      21.627   6.682  49.493  1.00  0.00     0.029 C 
HETATM    2  C4  UNL     1      22.011   5.587  50.112  1.00  0.00     0.035 C 
HETATM    3  C5  UNL     1      21.951   5.493  51.553  1.00  0.00     0.046 C 
HETATM    4  C6  UNL     1      22.299   4.462  52.290  1.00  0.00     0.093 C 
HETATM    5  N1  UNL     1      22.799   3.146  52.427  1.00  0.00    -0.357 N 
HETATM    6  C15 UNL     1      21.782   2.205  52.095  1.00  0.00     0.045 C 
HETATM    7  C16 UNL     1      20.945   2.298  51.076  1.00  0.00     0.082 C 
HETATM    8  C17 UNL     1      19.861   1.393  50.638  1.00  0.00     0.094 C 
HETATM    9  C18 UNL     1      19.617   0.397  51.745  1.00  0.00    -0.024 C 
HETATM   10  C19 UNL     1      20.475   0.282  52.783  1.00  0.00    -0.024 C 
HETATM   11  C20 UNL     1      21.728   1.048  53.027  1.00  0.00     0.086 C 
HETATM   12  O2  UNL     1      21.090   3.438  50.261  1.00  0.00    -0.286 OA
HETATM   13  C21 UNL     1      21.997   3.248  49.204  1.00  0.00     0.220 C 
HETATM   14  S1  UNL     1      22.583   2.161  48.141  1.00  0.00    -0.033 SA
HETATM   15  N2  UNL     1      22.465   4.579  49.225  1.00  0.00    -0.327 N 
HETATM   16  H22 UNL     1      23.215   4.802  48.504  1.00  0.00     0.169 HD
ENDROOT
BRANCH   5  17
HETATM   17  C7  UNL     1      24.138   2.782  52.839  1.00  0.00     0.133 C 
BRANCH  17  18
HETATM   18  C8  UNL     1      24.852   2.050  51.758  1.00  0.00     0.061 C 
BRANCH  18  19
HETATM   19  C9  UNL     1      25.875   1.118  52.274  1.00  0.00    -0.024 A 
HETATM   20  C10 UNL     1      25.579  -0.197  52.624  1.00  0.00     0.010 A 
HETATM   21  C11 UNL     1      26.527  -1.090  53.111  1.00  0.00     0.001 A 
HETATM   22  C12 UNL     1      27.825  -0.639  53.251  1.00  0.00     0.003 A 
HETATM   23  C13 UNL     1      28.183   0.647  52.922  1.00  0.00     0.037 A 
HETATM   24  C14 UNL     1      27.197   1.498  52.441  1.00  0.00     0.072 A 
BRANCH  24  25
HETATM   25  O1  UNL     1      27.604   2.779  52.125  1.00  0.00    -0.360 OA
HETATM   26  H15 UNL     1      27.947   3.037  51.209  1.00  0.00     0.217 HD
ENDBRANCH  24  25
ENDBRANCH  18  19
ENDBRANCH  17  18
ENDBRANCH   5  17
BRANCH   1  27
HETATM   27  C2  UNL     1      21.151   7.762  50.331  1.00  0.00    -0.008 C 
HETATM   28  C1  UNL     1      20.135   8.545  50.028  1.00  0.00     0.011 C 
ENDBRANCH   1  27
TORSDOF 5
ENDMDL
MODEL 7
REMARK VINA RESULT:      -7.7      3.046      7.018
REMARK  5 active torsions:
REMARK  status: ('A' for Active; 'I' for Inactive)
REMARK    1  A    between atoms: C2_2  and  C3_3 
REMARK    2  A    between atoms: N1_7  and  C7_8 
REMARK    3  A    between atoms: C7_8  and  C8_9 
REMARK    4  A    between atoms: C8_9  and  C9_10 
REMARK    5  A    between atoms: C14_15  and  O1_16 
ROOT
HETATM    1  C3  UNL     1      22.383   3.810  48.235  1.00  0.00     0.029 C 
HETATM    2  C4  UNL     1      22.243   3.192  49.387  1.00  0.00     0.035 C 
HETATM    3  C5  UNL     1      21.826   1.808  49.437  1.00  0.00     0.046 C 
HETATM    4  C6  UNL     1      21.651   1.077  50.516  1.00  0.00     0.093 C 
HETATM    5  N1  UNL     1      21.662   0.915  51.921  1.00  0.00    -0.357 N 
HETATM    6  C15 UNL     1      23.003   0.764  52.380  1.00  0.00     0.045 C 
HETATM    7  C16 UNL     1      24.044   1.467  51.969  1.00  0.00     0.082 C 
HETATM    8  C17 UNL     1      25.466   1.400  52.369  1.00  0.00     0.094 C 
HETATM    9  C18 UNL     1      25.659   0.140  53.177  1.00  0.00    -0.024 C 
HETATM   10  C19 UNL     1      24.601  -0.577  53.616  1.00  0.00    -0.024 C 
HETATM   11  C20 UNL     1      23.153  -0.295  53.412  1.00  0.00     0.086 C 
HETATM   12  O2  UNL     1      23.782   2.444  50.988  1.00  0.00    -0.286 OA
HETATM   13  C21 UNL     1      23.442   3.695  51.533  1.00  0.00     0.220 C 
HETATM   14  S1  UNL     1      23.714   4.717  52.772  1.00  0.00    -0.033 SA
HETATM   15  N2  UNL     1      22.538   4.019  50.499  1.00  0.00    -0.327 N 
HETATM   16  H22 UNL     1      22.062   4.965  50.600  1.00  0.00     0.169 HD
ENDROOT
BRANCH   5  17
HETATM   17  C7  UNL     1      20.502   0.902  52.786  1.00  0.00     0.133 C 
BRANCH  17  18
HETATM   18  C8  UNL     1      19.865  -0.442  52.809  1.00  0.00     0.061 C 
BRANCH  18  19
HETATM   19  C9  UNL     1      18.532  -0.457  52.173  1.00  0.00    -0.024 A 
HETATM   20  C10 UNL     1      18.322  -0.012  50.870  1.00  0.00     0.010 A 
HETATM   21  C11 UNL     1      17.076  -0.018  50.252  1.00  0.00     0.001 A 
HETATM   22  C12 UNL     1      16.000  -0.491  50.977  1.00  0.00     0.003 A 
HETATM   23  C13 UNL     1      16.140  -0.946  52.267  1.00  0.00     0.037 A 
HETATM   24  C14 UNL     1      17.406  -0.917  52.836  1.00  0.00     0.072 A 
BRANCH  24  25
HETATM   25  O1  UNL     1      17.498  -1.382  54.132  1.00  0.00    -0.360 OA
HETATM   26  H15 UNL     1      17.115  -2.272  54.426  1.00  0.00     0.217 HD
ENDBRANCH  24  25
ENDBRANCH  18  19
ENDBRANCH  17  18
ENDBRANCH   5  17
BRANCH   1  27
HETATM   27  C2  UNL     1      22.098   3.032  47.048  1.00  0.00    -0.008 C 
HETATM   28  C1  UNL     1      21.852   3.550  45.861  1.00  0.00     0.011 C 
ENDBRANCH   1  27
TORSDOF 5
ENDMDL
MODEL 8
REMARK VINA RESULT:      -7.6      2.254      6.873
REMARK  5 active torsions:
REMARK  status: ('A' for Active; 'I' for Inactive)
REMARK    1  A    between atoms: C2_2  and  C3_3 
REMARK    2  A    between atoms: N1_7  and  C7_8 
REMARK    3  A    between atoms: C7_8  and  C8_9 
REMARK    4  A    between atoms: C8_9  and  C9_10 
REMARK    5  A    between atoms: C14_15  and  O1_16 
ROOT
HETATM    1  C3  UNL     1      24.263  -0.061  53.413  1.00  0.00     0.029 C 
HETATM    2  C4  UNL     1      23.788   1.004  52.804  1.00  0.00     0.035 C 
HETATM    3  C5  UNL     1      24.681   1.988  52.235  1.00  0.00     0.046 C 
HETATM    4  C6  UNL     1      24.339   3.089  51.602  1.00  0.00     0.093 C 
HETATM    5  N1  UNL     1      23.362   3.976  51.094  1.00  0.00    -0.357 N 
HETATM    6  C15 UNL     1      22.808   3.449  49.891  1.00  0.00     0.045 C 
HETATM    7  C16 UNL     1      22.467   2.189  49.684  1.00  0.00     0.082 C 
HETATM    8  C17 UNL     1      21.890   1.534  48.490  1.00  0.00     0.094 C 
HETATM    9  C18 UNL     1      21.996   2.502  47.338  1.00  0.00    -0.024 C 
HETATM   10  C19 UNL     1      22.328   3.796  47.540  1.00  0.00    -0.024 C 
HETATM   11  C20 UNL     1      22.629   4.475  48.831  1.00  0.00     0.086 C 
HETATM   12  O2  UNL     1      22.681   1.306  50.762  1.00  0.00    -0.286 OA
HETATM   13  C21 UNL     1      21.580   1.222  51.632  1.00  0.00     0.220 C 
HETATM   14  S1  UNL     1      19.954   1.258  51.717  1.00  0.00    -0.033 SA
HETATM   15  N2  UNL     1      22.372   1.047  52.787  1.00  0.00    -0.327 N 
HETATM   16  H22 UNL     1      21.825   0.945  53.694  1.00  0.00     0.169 HD
ENDROOT
BRANCH   5  17
HETATM   17  C7  UNL     1      22.963   5.235  51.688  1.00  0.00     0.133 C 
BRANCH  17  18
HETATM   18  C8  UNL     1      24.128   6.146  51.848  1.00  0.00     0.061 C 
BRANCH  18  19
HETATM   19  C9  UNL     1      24.419   6.924  50.627  1.00  0.00    -0.024 A 
HETATM   20  C10 UNL     1      23.618   7.983  50.206  1.00  0.00     0.010 A 
HETATM   21  C11 UNL     1      23.875   8.729  49.062  1.00  0.00     0.001 A 
HETATM   22  C12 UNL     1      24.985   8.393  48.310  1.00  0.00     0.003 A 
HETATM   23  C13 UNL     1      25.817   7.360  48.670  1.00  0.00     0.037 A 
HETATM   24  C14 UNL     1      25.514   6.648  49.823  1.00  0.00     0.072 A 
BRANCH  24  25
HETATM   25  O1  UNL     1      26.377   5.619  50.144  1.00  0.00    -0.360 OA
HETATM   26  H15 UNL     1      27.227   5.433  49.628  1.00  0.00     0.217 HD
ENDBRANCH  24  25
ENDBRANCH  18  19
ENDBRANCH  17  18
ENDBRANCH   5  17
BRANCH   1  27
HETATM   27  C2  UNL     1      25.704  -0.179  53.475  1.00  0.00    -0.008 C 
HETATM   28  C1  UNL     1      26.396  -1.141  52.899  1.00  0.00     0.011 C 
ENDBRANCH   1  27
TORSDOF 5
ENDMDL
MODEL 9
REMARK VINA RESULT:      -7.5      2.655      4.612
REMARK  5 active torsions:
REMARK  status: ('A' for Active; 'I' for Inactive)
REMARK    1  A    between atoms: C2_2  and  C3_3 
REMARK    2  A    between atoms: N1_7  and  C7_8 
REMARK    3  A    between atoms: C7_8  and  C8_9 
REMARK    4  A    between atoms: C8_9  and  C9_10 
REMARK    5  A    between atoms: C14_15  and  O1_16 
ROOT
HETATM    1  C3  UNL     1      19.766   3.175  51.248  1.00  0.00     0.029 C 
HETATM    2  C4  UNL     1      21.054   2.944  51.379  1.00  0.00     0.035 C 
HETATM    3  C5  UNL     1      21.714   1.955  50.557  1.00  0.00     0.046 C 
HETATM    4  C6  UNL     1      22.988   1.631  50.586  1.00  0.00     0.093 C 
HETATM    5  N1  UNL     1      24.295   1.779  51.105  1.00  0.00    -0.357 N 
HETATM    6  C15 UNL     1      24.898   2.956  50.572  1.00  0.00     0.045 C 
HETATM    7  C16 UNL     1      24.304   4.127  50.422  1.00  0.00     0.082 C 
HETATM    8  C17 UNL     1      24.823   5.405  49.886  1.00  0.00     0.094 C 
HETATM    9  C18 UNL     1      26.146   5.120  49.219  1.00  0.00    -0.024 C 
HETATM   10  C19 UNL     1      26.769   3.932  49.380  1.00  0.00    -0.024 C 
HETATM   11  C20 UNL     1      26.318   2.761  50.180  1.00  0.00     0.086 C 
HETATM   12  O2  UNL     1      22.957   4.195  50.829  1.00  0.00    -0.286 OA
HETATM   13  C21 UNL     1      22.808   4.549  52.181  1.00  0.00     0.220 C 
HETATM   14  S1  UNL     1      23.432   5.441  53.393  1.00  0.00    -0.033 SA
HETATM   15  N2  UNL     1      21.662   3.748  52.374  1.00  0.00    -0.327 N 
HETATM   16  H22 UNL     1      21.255   3.777  53.357  1.00  0.00     0.169 HD
ENDROOT
BRANCH   5  17
HETATM   17  C7  UNL     1      24.947   0.886  52.040  1.00  0.00     0.133 C 
BRANCH  17  18
HETATM   18  C8  UNL     1      25.247   1.577  53.323  1.00  0.00     0.061 C 
BRANCH  18  19
HETATM   19  C9  UNL     1      26.659   1.437  53.734  1.00  0.00    -0.024 A 
HETATM   20  C10 UNL     1      27.623   2.395  53.431  1.00  0.00     0.010 A 
HETATM   21  C11 UNL     1      28.956   2.283  53.809  1.00  0.00     0.001 A 
HETATM   22  C12 UNL     1      29.332   1.161  54.521  1.00  0.00     0.003 A 
HETATM   23  C13 UNL     1      28.429   0.178  54.852  1.00  0.00     0.037 A 
HETATM   24  C14 UNL     1      27.110   0.341  54.450  1.00  0.00     0.072 A 
BRANCH  24  25
HETATM   25  O1  UNL     1      26.240  -0.671  54.805  1.00  0.00    -0.360 OA
HETATM   26  H15 UNL     1      26.524  -1.640  54.879  1.00  0.00     0.217 HD
ENDBRANCH  24  25
ENDBRANCH  18  19
ENDBRANCH  17  18
ENDBRANCH   5  17
BRANCH   1  27
HETATM   27  C2  UNL     1      19.069   2.391  50.250  1.00  0.00    -0.008 C 
HETATM   28  C1  UNL     1      17.923   2.737  49.699  1.00  0.00     0.011 C 
ENDBRANCH   1  27
TORSDOF 5
ENDMDL
