MODEL 1
REMARK VINA RESULT:      -8.7      0.000      0.000
REMARK  8 active torsions:
REMARK  status: ('A' for Active; 'I' for Inactive)
REMARK    1  A    between atoms: C3_3  and  C4_4 
REMARK    2  A    between atoms: C3_3  and  N3_17 
REMARK    3  A    between atoms: C5_5  and  C6_6 
REMARK    4  A    between atoms: C6_6  and  O1_7 
REMARK    5  A    between atoms: O1_7  and  C7_8 
REMARK    6  A    between atoms: C8_9  and  C9_10 
REMARK       I    between atoms: C9_10  and  N1_12 
REMARK       I    between atoms: N3_17  and  C13_18 
REMARK       I    between atoms: C13_18  and  N4_20 
REMARK    7  A    between atoms: N4_20  and  C14_21 
REMARK    8  A    between atoms: C18_26  and  C19_27 
ROOT
HETATM    1  C1  UNL     1      24.903   7.105  47.477  1.00  0.00     0.038 C 
HETATM    2  C2  UNL     1      24.620   6.397  48.748  1.00  0.00    -0.002 C 
HETATM    3  C3  UNL     1      25.622   5.820  49.386  1.00  0.00     0.032 C 
ENDROOT
BRANCH   3   4
HETATM    4  C4  UNL     1      26.896   5.988  48.694  1.00  0.00     0.027 C 
HETATM    5  C5  UNL     1      27.938   5.136  48.671  1.00  0.00     0.002 C 
BRANCH   5   6
HETATM    6  C6  UNL     1      29.253   5.282  47.971  1.00  0.00     0.203 C 
BRANCH   6   7
HETATM    7  O1  UNL     1      30.209   5.580  48.922  1.00  0.00    -0.349 OA
BRANCH   7   8
HETATM    8  C7  UNL     1      31.288   6.381  48.889  1.00  0.00     0.085 A 
HETATM    9  C8  UNL     1      31.611   7.656  49.000  1.00  0.00     0.153 A 
HETATM   10  N2  UNL     1      33.006   7.795  48.854  1.00  0.00    -0.257 NA
HETATM   11  C11 UNL     1      33.568   6.667  48.656  1.00  0.00     0.097 A 
HETATM   12  C12 UNL     1      32.535   5.571  48.646  1.00  0.00     0.114 A 
BRANCH   9  13
HETATM   13  C9  UNL     1      30.687   8.747  49.237  1.00  0.00     0.272 C 
HETATM   14  O2  UNL     1      30.870   9.980  49.303  1.00  0.00    -0.266 OA
HETATM   15  N1  UNL     1      29.328   8.485  49.443  1.00  0.00    -0.360 N 
HETATM   16  C10 UNL     1      28.419   9.589  49.679  1.00  0.00     0.149 C 
HETATM   17  H9  UNL     1      28.887   7.522  49.440  1.00  0.00     0.162 HD
ENDBRANCH   9  13
ENDBRANCH   7   8
ENDBRANCH   6   7
ENDBRANCH   5   6
ENDBRANCH   3   4
BRANCH   3  18
HETATM   18  N3  UNL     1      25.616   5.095  50.597  1.00  0.00    -0.309 N 
HETATM   19  C13 UNL     1      24.838   3.945  50.870  1.00  0.00     0.325 C 
HETATM   20  O3  UNL     1      24.082   3.504  49.995  1.00  0.00    -0.247 OA
HETATM   21  N4  UNL     1      24.872   3.268  52.088  1.00  0.00    -0.309 N 
HETATM   22  H17 UNL     1      25.537   3.686  52.805  1.00  0.00     0.170 HD
HETATM   23  H16 UNL     1      26.224   5.401  51.382  1.00  0.00     0.170 HD
BRANCH  21  24
HETATM   24  C14 UNL     1      24.174   2.120  52.529  1.00  0.00     0.037 A 
HETATM   25  C15 UNL     1      24.834   0.937  52.772  1.00  0.00     0.031 A 
HETATM   26  C16 UNL     1      24.226  -0.203  53.196  1.00  0.00     0.027 A 
HETATM   27  C17 UNL     1      22.865  -0.243  53.418  1.00  0.00     0.049 A 
HETATM   28 CL1  UNL     1      22.139  -1.736  53.963  1.00  0.00    -0.083 Cl
HETATM   29  C18 UNL     1      22.153   0.902  53.194  1.00  0.00     0.071 A 
HETATM   30  C20 UNL     1      22.821   2.027  52.764  1.00  0.00     0.047 A 
BRANCH  29  31
HETATM   31  C19 UNL     1      20.687   0.895  53.422  1.00  0.00     0.419 C 
HETATM   32  F1  UNL     1      20.024  -0.040  52.645  1.00  0.00    -0.166 F 
HETATM   33  F2  UNL     1      20.154   2.147  53.154  1.00  0.00    -0.166 F 
HETATM   34  F3  UNL     1      20.407   0.607  54.762  1.00  0.00    -0.166 F 
ENDBRANCH  29  31
ENDBRANCH  21  24
ENDBRANCH   3  18
TORSDOF 8
ENDMDL
MODEL 2
REMARK VINA RESULT:      -8.7      1.886      2.345
REMARK  8 active torsions:
REMARK  status: ('A' for Active; 'I' for Inactive)
REMARK    1  A    between atoms: C3_3  and  C4_4 
REMARK    2  A    between atoms: C3_3  and  N3_17 
REMARK    3  A    between atoms: C5_5  and  C6_6 
REMARK    4  A    between atoms: C6_6  and  O1_7 
REMARK    5  A    between atoms: O1_7  and  C7_8 
REMARK    6  A    between atoms: C8_9  and  C9_10 
REMARK       I    between atoms: C9_10  and  N1_12 
REMARK       I    between atoms: N3_17  and  C13_18 
REMARK       I    between atoms: C13_18  and  N4_20 
REMARK    7  A    between atoms: N4_20  and  C14_21 
REMARK    8  A    between atoms: C18_26  and  C19_27 
ROOT
HETATM    1  C1  UNL     1      25.455   7.692  47.092  1.00  0.00     0.038 C 
HETATM    2  C2  UNL     1      24.967   7.142  48.379  1.00  0.00    -0.002 C 
HETATM    3  C3  UNL     1      25.810   6.461  49.135  1.00  0.00     0.032 C 
ENDROOT
BRANCH   3   4
HETATM    4  C4  UNL     1      27.140   6.366  48.542  1.00  0.00     0.027 C 
HETATM    5  C5  UNL     1      27.995   5.327  48.603  1.00  0.00     0.002 C 
BRANCH   5   6
HETATM    6  C6  UNL     1      29.361   5.201  48.006  1.00  0.00     0.203 C 
BRANCH   6   7
HETATM    7  O1  UNL     1      30.278   5.604  48.956  1.00  0.00    -0.349 OA
BRANCH   7   8
HETATM    8  C7  UNL     1      31.357   6.404  48.879  1.00  0.00     0.085 A 
HETATM    9  C8  UNL     1      31.676   7.684  48.887  1.00  0.00     0.153 A 
HETATM   10  N2  UNL     1      33.073   7.815  48.762  1.00  0.00    -0.257 NA
HETATM   11  C11 UNL     1      33.641   6.676  48.675  1.00  0.00     0.097 A 
HETATM   12  C12 UNL     1      32.610   5.579  48.736  1.00  0.00     0.114 A 
BRANCH   9  13
HETATM   13  C9  UNL     1      30.745   8.789  49.009  1.00  0.00     0.272 C 
HETATM   14  O2  UNL     1      30.867  10.001  48.734  1.00  0.00    -0.266 OA
HETATM   15  N1  UNL     1      29.457   8.571  49.510  1.00  0.00    -0.360 N 
HETATM   16  C10 UNL     1      28.540   9.688  49.625  1.00  0.00     0.149 C 
HETATM   17  H9  UNL     1      29.077   7.633  49.824  1.00  0.00     0.162 HD
ENDBRANCH   9  13
ENDBRANCH   7   8
ENDBRANCH   6   7
ENDBRANCH   5   6
ENDBRANCH   3   4
BRANCH   3  18
HETATM   18  N3  UNL     1      25.595   5.845  50.386  1.00  0.00    -0.309 N 
HETATM   19  C13 UNL     1      25.077   4.545  50.591  1.00  0.00     0.325 C 
HETATM   20  O3  UNL     1      24.772   3.854  49.611  1.00  0.00    -0.247 OA
HETATM   21  N4  UNL     1      24.886   3.986  51.854  1.00  0.00    -0.309 N 
HETATM   22  H17 UNL     1      25.163   4.619  52.662  1.00  0.00     0.170 HD
HETATM   23  H16 UNL     1      25.827   6.360  51.259  1.00  0.00     0.170 HD
BRANCH  21  24
HETATM   24  C14 UNL     1      24.386   2.721  52.240  1.00  0.00     0.037 A 
HETATM   25  C15 UNL     1      23.059   2.398  52.068  1.00  0.00     0.031 A 
HETATM   26  C16 UNL     1      22.513   1.202  52.416  1.00  0.00     0.027 A 
HETATM   27  C17 UNL     1      23.283   0.206  52.980  1.00  0.00     0.049 A 
HETATM   28 CL1  UNL     1      22.526  -1.310  53.407  1.00  0.00    -0.083 Cl
HETATM   29  C18 UNL     1      24.610   0.466  53.176  1.00  0.00     0.071 A 
HETATM   30  C20 UNL     1      25.109   1.695  52.805  1.00  0.00     0.047 A 
BRANCH  29  31
HETATM   31  C19 UNL     1      25.469  -0.583  53.781  1.00  0.00     0.419 C 
HETATM   32  F1  UNL     1      24.903  -1.162  54.904  1.00  0.00    -0.166 F 
HETATM   33  F2  UNL     1      26.700  -0.051  54.133  1.00  0.00    -0.166 F 
HETATM   34  F3  UNL     1      25.711  -1.603  52.855  1.00  0.00    -0.166 F 
ENDBRANCH  29  31
ENDBRANCH  21  24
ENDBRANCH   3  18
TORSDOF 8
ENDMDL
MODEL 3
REMARK VINA RESULT:      -8.7      2.323      3.439
REMARK  8 active torsions:
REMARK  status: ('A' for Active; 'I' for Inactive)
REMARK    1  A    between atoms: C3_3  and  C4_4 
REMARK    2  A    between atoms: C3_3  and  N3_17 
REMARK    3  A    between atoms: C5_5  and  C6_6 
REMARK    4  A    between atoms: C6_6  and  O1_7 
REMARK    5  A    between atoms: O1_7  and  C7_8 
REMARK    6  A    between atoms: C8_9  and  C9_10 
REMARK       I    between atoms: C9_10  and  N1_12 
REMARK       I    between atoms: N3_17  and  C13_18 
REMARK       I    between atoms: C13_18  and  N4_20 
REMARK    7  A    between atoms: N4_20  and  C14_21 
REMARK    8  A    between atoms: C18_26  and  C19_27 
ROOT
HETATM    1  C1  UNL     1      25.526   7.789  46.968  1.00  0.00     0.038 C 
HETATM    2  C2  UNL     1      25.018   7.270  48.260  1.00  0.00    -0.002 C 
HETATM    3  C3  UNL     1      25.836   6.568  49.024  1.00  0.00     0.032 C 
ENDROOT
BRANCH   3   4
HETATM    4  C4  UNL     1      27.162   6.419  48.434  1.00  0.00     0.027 C 
HETATM    5  C5  UNL     1      27.998   5.370  48.543  1.00  0.00     0.002 C 
BRANCH   5   6
HETATM    6  C6  UNL     1      29.361   5.191  47.950  1.00  0.00     0.203 C 
BRANCH   6   7
HETATM    7  O1  UNL     1      30.290   5.533  48.912  1.00  0.00    -0.349 OA
BRANCH   7   8
HETATM    8  C7  UNL     1      31.377   6.325  48.867  1.00  0.00     0.085 A 
HETATM    9  C8  UNL     1      32.671   6.261  48.621  1.00  0.00     0.153 A 
HETATM   10  N2  UNL     1      33.234   7.545  48.764  1.00  0.00    -0.257 NA
HETATM   11  C11 UNL     1      32.351   8.407  49.091  1.00  0.00     0.097 A 
HETATM   12  C12 UNL     1      31.004   7.744  49.211  1.00  0.00     0.114 A 
BRANCH   9  13
HETATM   13  C9  UNL     1      33.407   5.067  48.255  1.00  0.00     0.272 C 
HETATM   14  O2  UNL     1      34.618   4.890  48.011  1.00  0.00    -0.266 OA
HETATM   15  N1  UNL     1      32.740   3.843  48.124  1.00  0.00    -0.360 N 
HETATM   16  C10 UNL     1      33.492   2.660  47.757  1.00  0.00     0.149 C 
HETATM   17  H9  UNL     1      31.702   3.698  48.274  1.00  0.00     0.162 HD
ENDBRANCH   9  13
ENDBRANCH   7   8
ENDBRANCH   6   7
ENDBRANCH   5   6
ENDBRANCH   3   4
BRANCH   3  18
HETATM   18  N3  UNL     1      25.598   5.972  50.281  1.00  0.00    -0.309 N 
HETATM   19  C13 UNL     1      25.113   4.661  50.498  1.00  0.00     0.325 C 
HETATM   20  O3  UNL     1      24.862   3.940  49.525  1.00  0.00    -0.247 OA
HETATM   21  N4  UNL     1      24.897   4.124  51.767  1.00  0.00    -0.309 N 
HETATM   22  H17 UNL     1      25.129   4.783  52.569  1.00  0.00     0.170 HD
HETATM   23  H16 UNL     1      25.785   6.513  51.149  1.00  0.00     0.170 HD
BRANCH  21  24
HETATM   24  C14 UNL     1      24.424   2.853  52.165  1.00  0.00     0.037 A 
HETATM   25  C15 UNL     1      23.085   2.541  52.100  1.00  0.00     0.031 A 
HETATM   26  C16 UNL     1      22.563   1.339  52.466  1.00  0.00     0.027 A 
HETATM   27  C17 UNL     1      23.371   0.327  52.939  1.00  0.00     0.049 A 
HETATM   28 CL1  UNL     1      22.643  -1.195  53.394  1.00  0.00    -0.083 Cl
HETATM   29  C18 UNL     1      24.712   0.576  53.027  1.00  0.00     0.071 A 
HETATM   30  C20 UNL     1      25.186   1.811  52.642  1.00  0.00     0.047 A 
BRANCH  29  31
HETATM   31  C19 UNL     1      25.612  -0.491  53.532  1.00  0.00     0.419 C 
HETATM   32  F1  UNL     1      25.671  -1.590  52.691  1.00  0.00    -0.166 F 
HETATM   33  F2  UNL     1      25.196  -0.917  54.783  1.00  0.00    -0.166 F 
HETATM   34  F3  UNL     1      26.912   0.002  53.676  1.00  0.00    -0.166 F 
ENDBRANCH  29  31
ENDBRANCH  21  24
ENDBRANCH   3  18
TORSDOF 8
ENDMDL
MODEL 4
REMARK VINA RESULT:      -8.6      1.280      2.572
REMARK  8 active torsions:
REMARK  status: ('A' for Active; 'I' for Inactive)
REMARK    1  A    between atoms: C3_3  and  C4_4 
REMARK    2  A    between atoms: C3_3  and  N3_17 
REMARK    3  A    between atoms: C5_5  and  C6_6 
REMARK    4  A    between atoms: C6_6  and  O1_7 
REMARK    5  A    between atoms: O1_7  and  C7_8 
REMARK    6  A    between atoms: C8_9  and  C9_10 
REMARK       I    between atoms: C9_10  and  N1_12 
REMARK       I    between atoms: N3_17  and  C13_18 
REMARK       I    between atoms: C13_18  and  N4_20 
REMARK    7  A    between atoms: N4_20  and  C14_21 
REMARK    8  A    between atoms: C18_26  and  C19_27 
ROOT
HETATM    1  C1  UNL     1      25.124   7.345  47.365  1.00  0.00     0.038 C 
HETATM    2  C2  UNL     1      24.767   6.694  48.648  1.00  0.00    -0.002 C 
HETATM    3  C3  UNL     1      25.712   6.059  49.319  1.00  0.00     0.032 C 
ENDROOT
BRANCH   3   4
HETATM    4  C4  UNL     1      27.006   6.112  48.646  1.00  0.00     0.027 C 
HETATM    5  C5  UNL     1      27.957   5.160  48.617  1.00  0.00     0.002 C 
BRANCH   5   6
HETATM    6  C6  UNL     1      29.290   5.187  47.937  1.00  0.00     0.203 C 
BRANCH   6   7
HETATM    7  O1  UNL     1      30.241   5.522  48.880  1.00  0.00    -0.349 OA
BRANCH   7   8
HETATM    8  C7  UNL     1      31.306   6.342  48.827  1.00  0.00     0.085 A 
HETATM    9  C8  UNL     1      32.604   6.306  48.595  1.00  0.00     0.153 A 
HETATM   10  N2  UNL     1      33.132   7.607  48.713  1.00  0.00    -0.257 NA
HETATM   11  C11 UNL     1      32.224   8.452  49.011  1.00  0.00     0.097 A 
HETATM   12  C12 UNL     1      30.893   7.758  49.134  1.00  0.00     0.114 A 
BRANCH   9  13
HETATM   13  C9  UNL     1      33.375   5.123  48.264  1.00  0.00     0.272 C 
HETATM   14  O2  UNL     1      34.596   4.969  48.058  1.00  0.00    -0.266 OA
HETATM   15  N1  UNL     1      32.738   3.885  48.129  1.00  0.00    -0.360 N 
HETATM   16  C10 UNL     1      33.524   2.713  47.798  1.00  0.00     0.149 C 
HETATM   17  H9  UNL     1      31.699   3.719  48.251  1.00  0.00     0.162 HD
ENDBRANCH   9  13
ENDBRANCH   7   8
ENDBRANCH   6   7
ENDBRANCH   5   6
ENDBRANCH   3   4
BRANCH   3  18
HETATM   18  N3  UNL     1      25.630   5.368  50.547  1.00  0.00    -0.309 N 
HETATM   19  C13 UNL     1      24.888   4.188  50.785  1.00  0.00     0.325 C 
HETATM   20  O3  UNL     1      24.238   3.684  49.861  1.00  0.00    -0.247 OA
HETATM   21  N4  UNL     1      24.844   3.547  52.023  1.00  0.00    -0.309 N 
HETATM   22  H17 UNL     1      25.419   4.019  52.783  1.00  0.00     0.170 HD
HETATM   23  H16 UNL     1      26.148   5.728  51.373  1.00  0.00     0.170 HD
BRANCH  21  24
HETATM   24  C14 UNL     1      24.166   2.377  52.435  1.00  0.00     0.037 A 
HETATM   25  C15 UNL     1      24.848   1.204  52.662  1.00  0.00     0.031 A 
HETATM   26  C16 UNL     1      24.260   0.043  53.060  1.00  0.00     0.027 A 
HETATM   27  C17 UNL     1      22.899  -0.029  53.268  1.00  0.00     0.049 A 
HETATM   28 CL1  UNL     1      22.199  -1.547  53.778  1.00  0.00    -0.083 Cl
HETATM   29  C18 UNL     1      22.165   1.105  53.059  1.00  0.00     0.071 A 
HETATM   30  C20 UNL     1      22.814   2.252  52.657  1.00  0.00     0.047 A 
BRANCH  29  31
HETATM   31  C19 UNL     1      20.697   1.064  53.273  1.00  0.00     0.419 C 
HETATM   32  F1  UNL     1      20.350   0.690  54.560  1.00  0.00    -0.166 F 
HETATM   33  F2  UNL     1      20.107   0.180  52.384  1.00  0.00    -0.166 F 
HETATM   34  F3  UNL     1      20.138   2.324  53.033  1.00  0.00    -0.166 F 
ENDBRANCH  29  31
ENDBRANCH  21  24
ENDBRANCH   3  18
TORSDOF 8
ENDMDL
MODEL 5
REMARK VINA RESULT:      -8.4      6.248     10.345
REMARK  8 active torsions:
REMARK  status: ('A' for Active; 'I' for Inactive)
REMARK    1  A    between atoms: C3_3  and  C4_4 
REMARK    2  A    between atoms: C3_3  and  N3_17 
REMARK    3  A    between atoms: C5_5  and  C6_6 
REMARK    4  A    between atoms: C6_6  and  O1_7 
REMARK    5  A    between atoms: O1_7  and  C7_8 
REMARK    6  A    between atoms: C8_9  and  C9_10 
REMARK       I    between atoms: C9_10  and  N1_12 
REMARK       I    between atoms: N3_17  and  C13_18 
REMARK       I    between atoms: C13_18  and  N4_20 
REMARK    7  A    between atoms: N4_20  and  C14_21 
REMARK    8  A    between atoms: C18_26  and  C19_27 
ROOT
HETATM    1  C1  UNL     1      23.284   3.073  48.890  1.00  0.00     0.038 C 
HETATM    2  C2  UNL     1      23.759   4.441  49.204  1.00  0.00    -0.002 C 
HETATM    3  C3  UNL     1      24.665   4.594  50.153  1.00  0.00     0.032 C 
ENDROOT
BRANCH   3   4
HETATM    4  C4  UNL     1      25.059   3.325  50.757  1.00  0.00     0.027 C 
HETATM    5  C5  UNL     1      26.306   2.849  50.931  1.00  0.00     0.002 C 
BRANCH   5   6
HETATM    6  C6  UNL     1      26.739   1.555  51.546  1.00  0.00     0.203 C 
BRANCH   6   7
HETATM    7  O1  UNL     1      25.644   0.998  52.176  1.00  0.00    -0.349 OA
BRANCH   7   8
HETATM    8  C7  UNL     1      25.533   0.258  53.294  1.00  0.00     0.085 A 
HETATM    9  C8  UNL     1      26.282  -0.256  54.251  1.00  0.00     0.153 A 
HETATM   10  N2  UNL     1      25.460  -0.956  55.157  1.00  0.00    -0.257 NA
HETATM   11  C11 UNL     1      24.234  -0.904  54.809  1.00  0.00     0.097 A 
HETATM   12  C12 UNL     1      24.091  -0.106  53.539  1.00  0.00     0.114 A 
BRANCH   9  13
HETATM   13  C9  UNL     1      27.721  -0.125  54.365  1.00  0.00     0.272 C 
HETATM   14  O2  UNL     1      28.425   0.698  54.985  1.00  0.00    -0.266 OA
HETATM   15  N1  UNL     1      28.563  -1.025  53.703  1.00  0.00    -0.360 N 
HETATM   16  C10 UNL     1      30.000  -0.878  53.828  1.00  0.00     0.149 C 
HETATM   17  H9  UNL     1      28.237  -1.832  53.100  1.00  0.00     0.162 HD
ENDBRANCH   9  13
ENDBRANCH   7   8
ENDBRANCH   6   7
ENDBRANCH   5   6
ENDBRANCH   3   4
BRANCH   3  18
HETATM   18  N3  UNL     1      25.271   5.774  50.633  1.00  0.00    -0.309 N 
HETATM   19  C13 UNL     1      25.883   6.773  49.841  1.00  0.00     0.325 C 
HETATM   20  O3  UNL     1      25.912   6.637  48.611  1.00  0.00    -0.247 OA
HETATM   21  N4  UNL     1      26.468   7.922  50.372  1.00  0.00    -0.309 N 
HETATM   22  H17 UNL     1      26.417   7.992  51.432  1.00  0.00     0.170 HD
HETATM   23  H16 UNL     1      25.289   5.963  51.656  1.00  0.00     0.170 HD
BRANCH  21  24
HETATM   24  C14 UNL     1      27.114   9.008  49.739  1.00  0.00     0.037 A 
HETATM   25  C15 UNL     1      26.393   9.978  49.081  1.00  0.00     0.031 A 
HETATM   26  C16 UNL     1      26.950  11.048  48.452  1.00  0.00     0.027 A 
HETATM   27  C17 UNL     1      28.317  11.232  48.437  1.00  0.00     0.049 A 
HETATM   28 CL1  UNL     1      28.975  12.626  47.612  1.00  0.00    -0.083 Cl
HETATM   29  C18 UNL     1      29.088  10.301  49.074  1.00  0.00     0.071 A 
HETATM   30  C20 UNL     1      28.471   9.238  49.694  1.00  0.00     0.047 A 
BRANCH  29  31
HETATM   31  C19 UNL     1      30.563  10.467  49.077  1.00  0.00     0.419 C 
HETATM   32  F1  UNL     1      31.218   9.456  49.761  1.00  0.00    -0.166 F 
HETATM   33  F2  UNL     1      30.908  11.681  49.651  1.00  0.00    -0.166 F 
HETATM   34  F3  UNL     1      31.052  10.477  47.767  1.00  0.00    -0.166 F 
ENDBRANCH  29  31
ENDBRANCH  21  24
ENDBRANCH   3  18
TORSDOF 8
ENDMDL
MODEL 6
REMARK VINA RESULT:      -8.2      2.214      3.455
REMARK  8 active torsions:
REMARK  status: ('A' for Active; 'I' for Inactive)
REMARK    1  A    between atoms: C3_3  and  C4_4 
REMARK    2  A    between atoms: C3_3  and  N3_17 
REMARK    3  A    between atoms: C5_5  and  C6_6 
REMARK    4  A    between atoms: C6_6  and  O1_7 
REMARK    5  A    between atoms: O1_7  and  C7_8 
REMARK    6  A    between atoms: C8_9  and  C9_10 
REMARK       I    between atoms: C9_10  and  N1_12 
REMARK       I    between atoms: N3_17  and  C13_18 
REMARK       I    between atoms: C13_18  and  N4_20 
REMARK    7  A    between atoms: N4_20  and  C14_21 
REMARK    8  A    between atoms: C18_26  and  C19_27 
ROOT
HETATM    1  C1  UNL     1      25.353   7.235  48.112  1.00  0.00     0.038 C 
HETATM    2  C2  UNL     1      25.407   5.862  48.667  1.00  0.00    -0.002 C 
HETATM    3  C3  UNL     1      26.590   5.314  48.885  1.00  0.00     0.032 C 
ENDROOT
BRANCH   3   4
HETATM    4  C4  UNL     1      27.691   6.202  48.523  1.00  0.00     0.027 C 
HETATM    5  C5  UNL     1      28.937   5.856  48.151  1.00  0.00     0.002 C 
BRANCH   5   6
HETATM    6  C6  UNL     1      30.084   6.742  47.776  1.00  0.00     0.203 C 
BRANCH   6   7
HETATM    7  O1  UNL     1      31.076   5.947  47.238  1.00  0.00    -0.349 OA
BRANCH   7   8
HETATM    8  C7  UNL     1      32.349   5.725  47.612  1.00  0.00     0.085 A 
HETATM    9  C8  UNL     1      33.195   4.729  47.794  1.00  0.00     0.153 A 
HETATM   10  N2  UNL     1      34.436   5.246  48.215  1.00  0.00    -0.257 NA
HETATM   11  C11 UNL     1      34.403   6.519  48.306  1.00  0.00     0.097 A 
HETATM   12  C12 UNL     1      33.036   7.027  47.929  1.00  0.00     0.114 A 
BRANCH   9  13
HETATM   13  C9  UNL     1      32.906   3.323  47.591  1.00  0.00     0.272 C 
HETATM   14  O2  UNL     1      32.308   2.730  46.670  1.00  0.00    -0.266 OA
HETATM   15  N1  UNL     1      33.326   2.377  48.533  1.00  0.00    -0.360 N 
HETATM   16  C10 UNL     1      33.028   0.975  48.314  1.00  0.00     0.149 C 
HETATM   17  H9  UNL     1      33.860   2.598  49.421  1.00  0.00     0.162 HD
ENDBRANCH   9  13
ENDBRANCH   7   8
ENDBRANCH   6   7
ENDBRANCH   5   6
ENDBRANCH   3   4
BRANCH   3  18
HETATM   18  N3  UNL     1      26.907   4.039  49.399  1.00  0.00    -0.309 N 
HETATM   19  C13 UNL     1      26.238   3.384  50.460  1.00  0.00     0.325 C 
HETATM   20  O3  UNL     1      25.285   3.946  51.013  1.00  0.00    -0.247 OA
HETATM   21  N4  UNL     1      26.597   2.120  50.928  1.00  0.00    -0.309 N 
HETATM   22  H17 UNL     1      27.420   1.680  50.419  1.00  0.00     0.170 HD
HETATM   23  H16 UNL     1      27.696   3.501  48.988  1.00  0.00     0.170 HD
BRANCH  21  24
HETATM   24  C14 UNL     1      26.049   1.327  51.961  1.00  0.00     0.037 A 
HETATM   25  C15 UNL     1      26.833   0.866  52.994  1.00  0.00     0.031 A 
HETATM   26  C16 UNL     1      26.371   0.100  54.019  1.00  0.00     0.027 A 
HETATM   27  C17 UNL     1      25.046  -0.272  54.088  1.00  0.00     0.049 A 
HETATM   28 CL1  UNL     1      24.511  -1.258  55.429  1.00  0.00    -0.083 Cl
HETATM   29  C18 UNL     1      24.215   0.154  53.090  1.00  0.00     0.071 A 
HETATM   30  C20 UNL     1      24.737   0.928  52.077  1.00  0.00     0.047 A 
BRANCH  29  31
HETATM   31  C19 UNL     1      22.782  -0.227  53.131  1.00  0.00     0.419 C 
HETATM   32  F1  UNL     1      22.589  -1.598  53.192  1.00  0.00    -0.166 F 
HETATM   33  F2  UNL     1      22.123   0.260  52.013  1.00  0.00    -0.166 F 
HETATM   34  F3  UNL     1      22.163   0.337  54.252  1.00  0.00    -0.166 F 
ENDBRANCH  29  31
ENDBRANCH  21  24
ENDBRANCH   3  18
TORSDOF 8
ENDMDL
MODEL 7
REMARK VINA RESULT:      -8.1      6.426     10.550
REMARK  8 active torsions:
REMARK  status: ('A' for Active; 'I' for Inactive)
REMARK    1  A    between atoms: C3_3  and  C4_4 
REMARK    2  A    between atoms: C3_3  and  N3_17 
REMARK    3  A    between atoms: C5_5  and  C6_6 
REMARK    4  A    between atoms: C6_6  and  O1_7 
REMARK    5  A    between atoms: O1_7  and  C7_8 
REMARK    6  A    between atoms: C8_9  and  C9_10 
REMARK       I    between atoms: C9_10  and  N1_12 
REMARK       I    between atoms: N3_17  and  C13_18 
REMARK       I    between atoms: C13_18  and  N4_20 
REMARK    7  A    between atoms: N4_20  and  C14_21 
REMARK    8  A    between atoms: C18_26  and  C19_27 
ROOT
HETATM    1  C1  UNL     1      24.022   6.731  47.872  1.00  0.00     0.038 C 
HETATM    2  C2  UNL     1      25.200   7.538  48.268  1.00  0.00    -0.002 C 
HETATM    3  C3  UNL     1      26.170   6.950  48.945  1.00  0.00     0.032 C 
ENDROOT
BRANCH   3   4
HETATM    4  C4  UNL     1      25.899   5.538  49.198  1.00  0.00     0.027 C 
HETATM    5  C5  UNL     1      26.784   4.524  49.232  1.00  0.00     0.002 C 
BRANCH   5   6
HETATM    6  C6  UNL     1      26.534   3.071  49.488  1.00  0.00     0.203 C 
BRANCH   6   7
HETATM    7  O1  UNL     1      26.807   2.821  50.818  1.00  0.00    -0.349 OA
BRANCH   7   8
HETATM    8  C7  UNL     1      26.274   1.951  51.696  1.00  0.00     0.085 A 
HETATM    9  C8  UNL     1      26.644   1.093  52.627  1.00  0.00     0.153 A 
HETATM   10  N2  UNL     1      25.498   0.489  53.182  1.00  0.00    -0.257 NA
HETATM   11  C11 UNL     1      24.430   0.930  52.638  1.00  0.00     0.097 A 
HETATM   12  C12 UNL     1      24.772   1.950  51.583  1.00  0.00     0.114 A 
BRANCH   9  13
HETATM   13  C9  UNL     1      28.008   0.811  53.027  1.00  0.00     0.272 C 
HETATM   14  O2  UNL     1      29.008   1.552  53.119  1.00  0.00    -0.266 OA
HETATM   15  N1  UNL     1      28.378  -0.488  53.395  1.00  0.00    -0.360 N 
HETATM   16  C10 UNL     1      29.746  -0.751  53.793  1.00  0.00     0.149 C 
HETATM   17  H9  UNL     1      27.727  -1.323  53.412  1.00  0.00     0.162 HD
ENDBRANCH   9  13
ENDBRANCH   7   8
ENDBRANCH   6   7
ENDBRANCH   5   6
ENDBRANCH   3   4
BRANCH   3  18
HETATM   18  N3  UNL     1      27.380   7.490  49.432  1.00  0.00    -0.309 N 
HETATM   19  C13 UNL     1      28.594   7.586  48.712  1.00  0.00     0.325 C 
HETATM   20  O3  UNL     1      28.641   7.168  47.548  1.00  0.00    -0.247 OA
HETATM   21  N4  UNL     1      29.760   8.131  49.246  1.00  0.00    -0.309 N 
HETATM   22  H17 UNL     1      29.667   8.475  50.247  1.00  0.00     0.170 HD
HETATM   23  H16 UNL     1      27.422   7.863  50.402  1.00  0.00     0.170 HD
BRANCH  21  24
HETATM   24  C14 UNL     1      31.044   8.304  48.679  1.00  0.00     0.037 A 
HETATM   25  C15 UNL     1      31.356   9.435  47.960  1.00  0.00     0.031 A 
HETATM   26  C16 UNL     1      32.569   9.665  47.388  1.00  0.00     0.027 A 
HETATM   27  C17 UNL     1      33.594   8.750  47.501  1.00  0.00     0.049 A 
HETATM   28 CL1  UNL     1      35.130   9.100  46.746  1.00  0.00    -0.083 Cl
HETATM   29  C18 UNL     1      33.345   7.605  48.204  1.00  0.00     0.071 A 
HETATM   30  C20 UNL     1      32.099   7.423  48.761  1.00  0.00     0.047 A 
BRANCH  29  31
HETATM   31  C19 UNL     1      34.425   6.596  48.346  1.00  0.00     0.419 C 
HETATM   32  F1  UNL     1      34.787   6.020  47.139  1.00  0.00    -0.166 F 
HETATM   33  F2  UNL     1      34.030   5.589  49.213  1.00  0.00    -0.166 F 
HETATM   34  F3  UNL     1      35.569   7.186  48.893  1.00  0.00    -0.166 F 
ENDBRANCH  29  31
ENDBRANCH  21  24
ENDBRANCH   3  18
TORSDOF 8
ENDMDL
MODEL 8
REMARK VINA RESULT:      -8.1      3.694      4.444
REMARK  8 active torsions:
REMARK  status: ('A' for Active; 'I' for Inactive)
REMARK    1  A    between atoms: C3_3  and  C4_4 
REMARK    2  A    between atoms: C3_3  and  N3_17 
REMARK    3  A    between atoms: C5_5  and  C6_6 
REMARK    4  A    between atoms: C6_6  and  O1_7 
REMARK    5  A    between atoms: O1_7  and  C7_8 
REMARK    6  A    between atoms: C8_9  and  C9_10 
REMARK       I    between atoms: C9_10  and  N1_12 
REMARK       I    between atoms: N3_17  and  C13_18 
REMARK       I    between atoms: C13_18  and  N4_20 
REMARK    7  A    between atoms: N4_20  and  C14_21 
REMARK    8  A    between atoms: C18_26  and  C19_27 
ROOT
HETATM    1  C1  UNL     1      21.944   7.519  49.505  1.00  0.00     0.038 C 
HETATM    2  C2  UNL     1      22.093   6.457  50.528  1.00  0.00    -0.002 C 
HETATM    3  C3  UNL     1      23.216   6.399  51.220  1.00  0.00     0.032 C 
ENDROOT
BRANCH   3   4
HETATM    4  C4  UNL     1      24.163   7.441  50.837  1.00  0.00     0.027 C 
HETATM    5  C5  UNL     1      25.414   7.283  50.366  1.00  0.00     0.002 C 
BRANCH   5   6
HETATM    6  C6  UNL     1      26.405   8.331  49.966  1.00  0.00     0.203 C 
BRANCH   6   7
HETATM    7  O1  UNL     1      26.965   7.949  48.764  1.00  0.00    -0.349 OA
BRANCH   7   8
HETATM    8  C7  UNL     1      28.154   7.396  48.463  1.00  0.00     0.085 A 
HETATM    9  C8  UNL     1      29.396   7.746  48.188  1.00  0.00     0.153 A 
HETATM   10  N2  UNL     1      30.164   6.586  47.961  1.00  0.00    -0.257 NA
HETATM   11  C11 UNL     1      29.458   5.530  48.080  1.00  0.00     0.097 A 
HETATM   12  C12 UNL     1      28.037   5.895  48.423  1.00  0.00     0.114 A 
BRANCH   9  13
HETATM   13  C9  UNL     1      29.902   9.103  48.130  1.00  0.00     0.272 C 
HETATM   14  O2  UNL     1      30.827   9.607  47.460  1.00  0.00    -0.266 OA
HETATM   15  N1  UNL     1      29.327  10.102  48.923  1.00  0.00    -0.360 N 
HETATM   16  C10 UNL     1      29.848  11.453  48.853  1.00  0.00     0.149 C 
HETATM   17  H9  UNL     1      28.520   9.957  49.593  1.00  0.00     0.162 HD
ENDBRANCH   9  13
ENDBRANCH   7   8
ENDBRANCH   6   7
ENDBRANCH   5   6
ENDBRANCH   3   4
BRANCH   3  18
HETATM   18  N3  UNL     1      23.598   5.496  52.236  1.00  0.00    -0.309 N 
HETATM   19  C13 UNL     1      24.358   4.318  52.054  1.00  0.00     0.325 C 
HETATM   20  O3  UNL     1      24.742   4.014  50.918  1.00  0.00    -0.247 OA
HETATM   21  N4  UNL     1      24.707   3.461  53.098  1.00  0.00    -0.309 N 
HETATM   22  H17 UNL     1      24.354   3.767  54.053  1.00  0.00     0.170 HD
HETATM   23  H16 UNL     1      23.315   5.681  53.219  1.00  0.00     0.170 HD
BRANCH  21  24
HETATM   24  C14 UNL     1      25.450   2.259  53.099  1.00  0.00     0.037 A 
HETATM   25  C15 UNL     1      24.920   1.096  52.589  1.00  0.00     0.031 A 
HETATM   26  C16 UNL     1      25.578  -0.094  52.559  1.00  0.00     0.027 A 
HETATM   27  C17 UNL     1      26.860  -0.210  53.053  1.00  0.00     0.049 A 
HETATM   28 CL1  UNL     1      27.656  -1.765  52.987  1.00  0.00    -0.083 Cl
HETATM   29  C18 UNL     1      27.442   0.911  53.574  1.00  0.00     0.071 A 
HETATM   30  C20 UNL     1      26.729   2.090  53.579  1.00  0.00     0.047 A 
BRANCH  29  31
HETATM   31  C19 UNL     1      28.821   0.823  54.115  1.00  0.00     0.419 C 
HETATM   32  F1  UNL     1      29.319   2.049  54.525  1.00  0.00    -0.166 F 
HETATM   33  F2  UNL     1      29.678   0.297  53.161  1.00  0.00    -0.166 F 
HETATM   34  F3  UNL     1      28.854  -0.037  55.218  1.00  0.00    -0.166 F 
ENDBRANCH  29  31
ENDBRANCH  21  24
ENDBRANCH   3  18
TORSDOF 8
ENDMDL
MODEL 9
REMARK VINA RESULT:      -8.1      5.964      8.557
REMARK  8 active torsions:
REMARK  status: ('A' for Active; 'I' for Inactive)
REMARK    1  A    between atoms: C3_3  and  C4_4 
REMARK    2  A    between atoms: C3_3  and  N3_17 
REMARK    3  A    between atoms: C5_5  and  C6_6 
REMARK    4  A    between atoms: C6_6  and  O1_7 
REMARK    5  A    between atoms: O1_7  and  C7_8 
REMARK    6  A    between atoms: C8_9  and  C9_10 
REMARK       I    between atoms: C9_10  and  N1_12 
REMARK       I    between atoms: N3_17  and  C13_18 
REMARK       I    between atoms: C13_18  and  N4_20 
REMARK    7  A    between atoms: N4_20  and  C14_21 
REMARK    8  A    between atoms: C18_26  and  C19_27 
ROOT
HETATM    1  C1  UNL     1      22.458   7.860  49.752  1.00  0.00     0.038 C 
HETATM    2  C2  UNL     1      23.226   7.155  50.806  1.00  0.00    -0.002 C 
HETATM    3  C3  UNL     1      22.694   6.085  51.368  1.00  0.00     0.032 C 
ENDROOT
BRANCH   3   4
HETATM    4  C4  UNL     1      21.376   5.768  50.827  1.00  0.00     0.027 C 
HETATM    5  C5  UNL     1      20.547   4.778  51.208  1.00  0.00     0.002 C 
BRANCH   5   6
HETATM    6  C6  UNL     1      19.193   4.430  50.673  1.00  0.00     0.203 C 
BRANCH   6   7
HETATM    7  O1  UNL     1      19.179   3.077  50.402  1.00  0.00    -0.349 OA
BRANCH   7   8
HETATM    8  C7  UNL     1      20.161   2.216  50.079  1.00  0.00     0.085 A 
HETATM    9  C8  UNL     1      21.022   1.397  50.651  1.00  0.00     0.153 A 
HETATM   10  N2  UNL     1      21.798   0.770  49.655  1.00  0.00    -0.257 NA
HETATM   11  C11 UNL     1      21.461   1.162  48.488  1.00  0.00     0.097 A 
HETATM   12  C12 UNL     1      20.343   2.167  48.584  1.00  0.00     0.114 A 
BRANCH   9  13
HETATM   13  C9  UNL     1      21.156   1.166  52.076  1.00  0.00     0.272 C 
HETATM   14  O2  UNL     1      21.567   1.906  52.993  1.00  0.00    -0.266 OA
HETATM   15  N1  UNL     1      20.789  -0.068  52.625  1.00  0.00    -0.360 N 
HETATM   16  C10 UNL     1      20.931  -0.281  54.052  1.00  0.00     0.149 C 
HETATM   17  H9  UNL     1      20.405  -0.888  52.076  1.00  0.00     0.162 HD
ENDBRANCH   9  13
ENDBRANCH   7   8
ENDBRANCH   6   7
ENDBRANCH   5   6
ENDBRANCH   3   4
BRANCH   3  18
HETATM   18  N3  UNL     1      23.215   5.249  52.378  1.00  0.00    -0.309 N 
HETATM   19  C13 UNL     1      24.050   4.126  52.175  1.00  0.00     0.325 C 
HETATM   20  O3  UNL     1      24.375   3.814  51.023  1.00  0.00    -0.247 OA
HETATM   21  N4  UNL     1      24.536   3.335  53.215  1.00  0.00    -0.309 N 
HETATM   22  H17 UNL     1      24.229   3.644  54.185  1.00  0.00     0.170 HD
HETATM   23  H16 UNL     1      22.988   5.445  53.374  1.00  0.00     0.170 HD
BRANCH  21  24
HETATM   24  C14 UNL     1      25.369   2.192  53.197  1.00  0.00     0.037 A 
HETATM   25  C15 UNL     1      24.914   0.990  52.706  1.00  0.00     0.031 A 
HETATM   26  C16 UNL     1      25.661  -0.147  52.658  1.00  0.00     0.027 A 
HETATM   27  C17 UNL     1      26.963  -0.162  53.113  1.00  0.00     0.049 A 
HETATM   28 CL1  UNL     1      27.873  -1.651  53.027  1.00  0.00    -0.083 Cl
HETATM   29  C18 UNL     1      27.472   1.003  53.613  1.00  0.00     0.071 A 
HETATM   30  C20 UNL     1      26.671   2.124  53.637  1.00  0.00     0.047 A 
BRANCH  29  31
HETATM   31  C19 UNL     1      28.870   1.024  54.112  1.00  0.00     0.419 C 
HETATM   32  F1  UNL     1      29.290   2.288  54.489  1.00  0.00    -0.166 F 
HETATM   33  F2  UNL     1      29.734   0.546  53.138  1.00  0.00    -0.166 F 
HETATM   34  F3  UNL     1      28.999   0.186  55.224  1.00  0.00    -0.166 F 
ENDBRANCH  29  31
ENDBRANCH  21  24
ENDBRANCH   3  18
TORSDOF 8
ENDMDL
