MODEL 1
REMARK VINA RESULT:      -8.3      0.000      0.000
REMARK  7 active torsions:
REMARK  status: ('A' for Active; 'I' for Inactive)
REMARK    1  A    between atoms: C5_6  and  C6_7 
REMARK    2  A    between atoms: C9_10  and  S1_11 
REMARK    3  A    between atoms: S1_11  and  N2_12 
REMARK    4  A    between atoms: C13_19  and  N5_20 
REMARK    5  A    between atoms: N5_20  and  C14_21 
REMARK    6  A    between atoms: C14_21  and  C15_22 
REMARK    7  A    between atoms: C15_22  and  N6_23 
ROOT
HETATM    1  C1  UNL     1      20.041  -1.103  53.808  1.00  0.00     0.051 C 
HETATM    2  C2  UNL     1      21.066  -0.367  53.014  1.00  0.00    -0.023 A 
HETATM    3  C3  UNL     1      22.374  -0.309  53.446  1.00  0.00     0.081 A 
HETATM    4  C4  UNL     1      22.724  -0.962  54.661  1.00  0.00     0.102 C 
HETATM    5  N1  UNL     1      22.993  -1.481  55.654  1.00  0.00    -0.191 NA
HETATM    6  C5  UNL     1      23.282   0.379  52.683  1.00  0.00     0.090 A 
HETATM    7  N3  UNL     1      22.896   0.977  51.543  1.00  0.00    -0.226 NA
HETATM    8  C12 UNL     1      21.616   0.945  51.079  1.00  0.00     0.181 A 
HETATM    9  N4  UNL     1      21.270   1.558  49.934  1.00  0.00    -0.042 NA
HETATM   10  C13 UNL     1      20.019   1.535  49.467  1.00  0.00     0.724 A 
HETATM   11  N7  UNL     1      19.136   0.858  50.222  1.00  0.00    -0.074 NA
HETATM   12  C16 UNL     1      19.423   0.233  51.365  1.00  0.00     0.152 A 
HETATM   13  C17 UNL     1      20.698   0.256  51.841  1.00  0.00     0.038 A 
ENDROOT
BRANCH   6  14
HETATM   14  C6  UNL     1      24.676   0.466  53.102  1.00  0.00    -0.006 A 
HETATM   15  C7  UNL     1      25.543  -0.616  53.087  1.00  0.00     0.015 A 
HETATM   16  C8  UNL     1      26.847  -0.542  53.477  1.00  0.00     0.023 A 
HETATM   17  C9  UNL     1      27.379   0.651  53.919  1.00  0.00     0.046 A 
HETATM   18  C10 UNL     1      26.520   1.742  53.938  1.00  0.00     0.023 A 
HETATM   19  C11 UNL     1      25.189   1.687  53.544  1.00  0.00     0.015 A 
BRANCH  17  20
HETATM   20  S1  UNL     1      29.036   0.861  54.443  1.00  0.00     0.122 S 
HETATM   21  O1  UNL     1      29.386   2.263  54.860  1.00  0.00    -0.236 OA
BRANCH  20  22
HETATM   22  N2  UNL     1      30.182   0.174  53.316  1.00  0.00    -0.248 NA
HETATM   23  H6  UNL     1      30.870   0.867  53.008  1.00  0.00     0.134 HD
HETATM   24  H7  UNL     1      29.746  -0.411  52.597  1.00  0.00     0.134 HD
ENDBRANCH  20  22
ENDBRANCH  17  20
ENDBRANCH   6  14
BRANCH  10  25
HETATM   25  N5  UNL     1      19.600   2.164  48.264  1.00  0.00    -0.221 N 
HETATM   26  H10 UNL     1      19.026   1.624  47.587  1.00  0.00     0.177 HD
BRANCH  25  27
HETATM   27  C14 UNL     1      19.938   3.529  47.942  1.00  0.00     0.168 C 
BRANCH  27  28
HETATM   28  C15 UNL     1      21.019   3.526  46.901  1.00  0.00     0.286 C 
BRANCH  28  29
HETATM   29  N6  UNL     1      22.330   3.517  47.562  1.00  0.00     0.079 N 
HETATM   30  H15 UNL     1      22.774   2.628  47.241  1.00  0.00     0.312 HD
HETATM   31  H16 UNL     1      22.878   4.298  47.140  1.00  0.00     0.312 HD
ENDBRANCH  28  29
ENDBRANCH  27  28
ENDBRANCH  25  27
ENDBRANCH  10  25
TORSDOF 7
ENDMDL
MODEL 2
REMARK VINA RESULT:      -8.1      3.876      7.401
REMARK  7 active torsions:
REMARK  status: ('A' for Active; 'I' for Inactive)
REMARK    1  A    between atoms: C5_6  and  C6_7 
REMARK    2  A    between atoms: C9_10  and  S1_11 
REMARK    3  A    between atoms: S1_11  and  N2_12 
REMARK    4  A    between atoms: C13_19  and  N5_20 
REMARK    5  A    between atoms: N5_20  and  C14_21 
REMARK    6  A    between atoms: C14_21  and  C15_22 
REMARK    7  A    between atoms: C15_22  and  N6_23 
ROOT
HETATM    1  C1  UNL     1      21.252  -1.170  54.205  1.00  0.00     0.051 C 
HETATM    2  C2  UNL     1      22.218  -0.375  53.393  1.00  0.00    -0.023 A 
HETATM    3  C3  UNL     1      21.794   0.305  52.272  1.00  0.00     0.081 A 
HETATM    4  C4  UNL     1      20.421   0.233  51.906  1.00  0.00     0.102 C 
HETATM    5  N1  UNL     1      19.310   0.156  51.610  1.00  0.00    -0.191 NA
HETATM    6  C5  UNL     1      22.719   1.022  51.557  1.00  0.00     0.090 A 
HETATM    7  N3  UNL     1      24.003   1.054  51.949  1.00  0.00    -0.226 NA
HETATM    8  C12 UNL     1      24.466   0.398  53.049  1.00  0.00     0.181 A 
HETATM    9  N4  UNL     1      25.760   0.455  53.407  1.00  0.00    -0.042 NA
HETATM   10  C13 UNL     1      26.227  -0.183  54.483  1.00  0.00     0.724 A 
HETATM   11  N7  UNL     1      25.314  -0.884  55.177  1.00  0.00    -0.074 NA
HETATM   12  C16 UNL     1      24.019  -0.976  54.869  1.00  0.00     0.152 A 
HETATM   13  C17 UNL     1      23.543  -0.325  53.772  1.00  0.00     0.038 A 
ENDROOT
BRANCH   6  14
HETATM   14  C6  UNL     1      22.314   1.757  50.364  1.00  0.00    -0.006 A 
HETATM   15  C7  UNL     1      21.912   1.138  49.190  1.00  0.00     0.015 A 
HETATM   16  C8  UNL     1      21.532   1.818  48.072  1.00  0.00     0.023 A 
HETATM   17  C9  UNL     1      21.533   3.197  48.057  1.00  0.00     0.046 A 
HETATM   18  C10 UNL     1      21.935   3.828  49.227  1.00  0.00     0.023 A 
HETATM   19  C11 UNL     1      22.324   3.153  50.376  1.00  0.00     0.015 A 
BRANCH  17  20
HETATM   20  S1  UNL     1      21.067   4.171  46.679  1.00  0.00     0.122 S 
HETATM   21  O1  UNL     1      19.581   4.285  46.470  1.00  0.00    -0.236 OA
BRANCH  20  22
HETATM   22  N2  UNL     1      21.932   3.725  45.227  1.00  0.00    -0.248 NA
HETATM   23  H6  UNL     1      21.379   3.914  44.385  1.00  0.00     0.134 HD
HETATM   24  H7  UNL     1      22.397   2.816  45.292  1.00  0.00     0.134 HD
ENDBRANCH  20  22
ENDBRANCH  17  20
ENDBRANCH   6  14
BRANCH  10  25
HETATM   25  N5  UNL     1      27.583  -0.156  54.906  1.00  0.00    -0.221 N 
HETATM   26  H10 UNL     1      27.806  -0.386  55.894  1.00  0.00     0.177 HD
BRANCH  25  27
HETATM   27  C14 UNL     1      28.669   0.178  54.017  1.00  0.00     0.168 C 
BRANCH  27  28
HETATM   28  C15 UNL     1      29.177   1.546  54.368  1.00  0.00     0.286 C 
BRANCH  28  29
HETATM   29  N6  UNL     1      28.212   2.554  53.914  1.00  0.00     0.079 N 
HETATM   30  H15 UNL     1      28.252   2.497  52.871  1.00  0.00     0.312 HD
HETATM   31  H16 UNL     1      27.270   2.211  54.199  1.00  0.00     0.312 HD
ENDBRANCH  28  29
ENDBRANCH  27  28
ENDBRANCH  25  27
ENDBRANCH  10  25
TORSDOF 7
ENDMDL
MODEL 3
REMARK VINA RESULT:      -7.7      4.552      8.310
REMARK  7 active torsions:
REMARK  status: ('A' for Active; 'I' for Inactive)
REMARK    1  A    between atoms: C5_6  and  C6_7 
REMARK    2  A    between atoms: C9_10  and  S1_11 
REMARK    3  A    between atoms: S1_11  and  N2_12 
REMARK    4  A    between atoms: C13_19  and  N5_20 
REMARK    5  A    between atoms: N5_20  and  C14_21 
REMARK    6  A    between atoms: C14_21  and  C15_22 
REMARK    7  A    between atoms: C15_22  and  N6_23 
ROOT
HETATM    1  C1  UNL     1      23.780   4.121  52.459  1.00  0.00     0.051 C 
HETATM    2  C2  UNL     1      23.459   2.681  52.674  1.00  0.00    -0.023 A 
HETATM    3  C3  UNL     1      22.172   2.219  52.494  1.00  0.00     0.081 A 
HETATM    4  C4  UNL     1      21.163   3.141  52.100  1.00  0.00     0.102 C 
HETATM    5  N1  UNL     1      20.349   3.899  51.797  1.00  0.00    -0.191 NA
HETATM    6  C5  UNL     1      21.923   0.887  52.704  1.00  0.00     0.090 A 
HETATM    7  N3  UNL     1      22.916   0.062  53.075  1.00  0.00    -0.226 NA
HETATM    8  C12 UNL     1      24.199   0.474  53.264  1.00  0.00     0.181 A 
HETATM    9  N4  UNL     1      25.164  -0.384  53.637  1.00  0.00    -0.042 NA
HETATM   10  C13 UNL     1      26.427   0.006  53.826  1.00  0.00     0.724 A 
HETATM   11  N7  UNL     1      26.661   1.313  53.618  1.00  0.00    -0.074 NA
HETATM   12  C16 UNL     1      25.745   2.210  53.249  1.00  0.00     0.152 A 
HETATM   13  C17 UNL     1      24.457   1.811  53.056  1.00  0.00     0.038 A 
ENDROOT
BRANCH   6  14
HETATM   14  C6  UNL     1      20.577   0.355  52.524  1.00  0.00    -0.006 A 
HETATM   15  C7  UNL     1      19.865   0.472  51.340  1.00  0.00     0.015 A 
HETATM   16  C8  UNL     1      18.607  -0.022  51.165  1.00  0.00     0.023 A 
HETATM   17  C9  UNL     1      17.965  -0.681  52.192  1.00  0.00     0.046 A 
HETATM   18  C10 UNL     1      18.668  -0.804  53.384  1.00  0.00     0.023 A 
HETATM   19  C11 UNL     1      19.950  -0.308  53.581  1.00  0.00     0.015 A 
BRANCH  17  20
HETATM   20  S1  UNL     1      16.353  -1.354  52.079  1.00  0.00     0.122 S 
HETATM   21  O1  UNL     1      15.245  -0.353  52.259  1.00  0.00    -0.236 OA
BRANCH  20  22
HETATM   22  N2  UNL     1      16.157  -2.781  53.070  1.00  0.00    -0.248 NA
HETATM   23  H6  UNL     1      16.724  -2.730  53.921  1.00  0.00     0.134 HD
HETATM   24  H7  UNL     1      16.183  -3.654  52.537  1.00  0.00     0.134 HD
ENDBRANCH  20  22
ENDBRANCH  17  20
ENDBRANCH   6  14
BRANCH  10  25
HETATM   25  N5  UNL     1      27.484  -0.858  54.218  1.00  0.00    -0.221 N 
HETATM   26  H10 UNL     1      27.253  -1.800  54.589  1.00  0.00     0.177 HD
BRANCH  25  27
HETATM   27  C14 UNL     1      28.874  -0.481  54.121  1.00  0.00     0.168 C 
BRANCH  27  28
HETATM   28  C15 UNL     1      29.579  -1.462  53.230  1.00  0.00     0.286 C 
BRANCH  28  29
HETATM   29  N6  UNL     1      28.955  -2.783  53.371  1.00  0.00     0.079 N 
HETATM   30  H15 UNL     1      29.642  -3.439  52.938  1.00  0.00     0.312 HD
HETATM   31  H16 UNL     1      28.938  -2.994  54.392  1.00  0.00     0.312 HD
ENDBRANCH  28  29
ENDBRANCH  27  28
ENDBRANCH  25  27
ENDBRANCH  10  25
TORSDOF 7
ENDMDL
MODEL 4
REMARK VINA RESULT:      -7.7      4.789      8.425
REMARK  7 active torsions:
REMARK  status: ('A' for Active; 'I' for Inactive)
REMARK    1  A    between atoms: C5_6  and  C6_7 
REMARK    2  A    between atoms: C9_10  and  S1_11 
REMARK    3  A    between atoms: S1_11  and  N2_12 
REMARK    4  A    between atoms: C13_19  and  N5_20 
REMARK    5  A    between atoms: N5_20  and  C14_21 
REMARK    6  A    between atoms: C14_21  and  C15_22 
REMARK    7  A    between atoms: C15_22  and  N6_23 
ROOT
HETATM    1  C1  UNL     1      22.743   3.977  52.451  1.00  0.00     0.051 C 
HETATM    2  C2  UNL     1      22.494   2.513  52.585  1.00  0.00    -0.023 A 
HETATM    3  C3  UNL     1      21.222   2.005  52.433  1.00  0.00     0.081 A 
HETATM    4  C4  UNL     1      20.156   2.902  52.147  1.00  0.00     0.102 C 
HETATM    5  N1  UNL     1      19.297   3.639  51.932  1.00  0.00    -0.191 NA
HETATM    6  C5  UNL     1      21.041   0.651  52.565  1.00  0.00     0.090 A 
HETATM    7  N3  UNL     1      22.085  -0.149  52.836  1.00  0.00    -0.226 NA
HETATM    8  C12 UNL     1      23.357   0.309  52.994  1.00  0.00     0.181 A 
HETATM    9  N4  UNL     1      24.376  -0.526  53.265  1.00  0.00    -0.042 NA
HETATM   10  C13 UNL     1      25.628  -0.090  53.422  1.00  0.00     0.724 A 
HETATM   11  N7  UNL     1      25.795   1.237  53.290  1.00  0.00    -0.074 NA
HETATM   12  C16 UNL     1      24.824   2.112  53.023  1.00  0.00     0.152 A 
HETATM   13  C17 UNL     1      23.547   1.667  52.862  1.00  0.00     0.038 A 
ENDROOT
BRANCH   6  14
HETATM   14  C6  UNL     1      19.712   0.070  52.413  1.00  0.00    -0.006 A 
HETATM   15  C7  UNL     1      18.945   0.218  51.267  1.00  0.00     0.015 A 
HETATM   16  C8  UNL     1      17.703  -0.321  51.117  1.00  0.00     0.023 A 
HETATM   17  C9  UNL     1      17.135  -1.062  52.132  1.00  0.00     0.046 A 
HETATM   18  C10 UNL     1      17.893  -1.217  53.285  1.00  0.00     0.023 A 
HETATM   19  C11 UNL     1      19.160  -0.675  53.456  1.00  0.00     0.015 A 
BRANCH  17  20
HETATM   20  S1  UNL     1      15.549  -1.799  52.049  1.00  0.00     0.122 S 
HETATM   21  O1  UNL     1      15.057  -2.063  50.652  1.00  0.00    -0.236 OA
BRANCH  20  22
HETATM   22  N2  UNL     1      14.376  -0.969  53.044  1.00  0.00    -0.248 NA
HETATM   23  H6  UNL     1      14.705  -0.039  53.320  1.00  0.00     0.134 HD
HETATM   24  H7  UNL     1      13.968  -1.561  53.773  1.00  0.00     0.134 HD
ENDBRANCH  20  22
ENDBRANCH  17  20
ENDBRANCH   6  14
BRANCH  10  25
HETATM   25  N5  UNL     1      26.739  -0.928  53.707  1.00  0.00    -0.221 N 
HETATM   26  H10 UNL     1      26.589  -1.787  54.272  1.00  0.00     0.177 HD
BRANCH  25  27
HETATM   27  C14 UNL     1      28.073  -0.636  53.243  1.00  0.00     0.168 C 
BRANCH  27  28
HETATM   28  C15 UNL     1      28.925  -0.266  54.422  1.00  0.00     0.286 C 
BRANCH  28  29
HETATM   29  N6  UNL     1      28.675   1.134  54.783  1.00  0.00     0.079 N 
HETATM   30  H15 UNL     1      28.458   1.599  53.873  1.00  0.00     0.312 HD
HETATM   31  H16 UNL     1      27.795   1.142  55.343  1.00  0.00     0.312 HD
ENDBRANCH  28  29
ENDBRANCH  27  28
ENDBRANCH  25  27
ENDBRANCH  10  25
TORSDOF 7
ENDMDL
MODEL 5
REMARK VINA RESULT:      -7.6      3.963      5.829
REMARK  7 active torsions:
REMARK  status: ('A' for Active; 'I' for Inactive)
REMARK    1  A    between atoms: C5_6  and  C6_7 
REMARK    2  A    between atoms: C9_10  and  S1_11 
REMARK    3  A    between atoms: S1_11  and  N2_12 
REMARK    4  A    between atoms: C13_19  and  N5_20 
REMARK    5  A    between atoms: N5_20  and  C14_21 
REMARK    6  A    between atoms: C14_21  and  C15_22 
REMARK    7  A    between atoms: C15_22  and  N6_23 
ROOT
HETATM    1  C1  UNL     1      25.132  -0.764  54.530  1.00  0.00     0.051 C 
HETATM    2  C2  UNL     1      24.138   0.077  53.804  1.00  0.00    -0.023 A 
HETATM    3  C3  UNL     1      24.544   1.199  53.115  1.00  0.00     0.081 A 
HETATM    4  C4  UNL     1      25.926   1.537  53.110  1.00  0.00     0.102 C 
HETATM    5  N1  UNL     1      27.045   1.811  53.126  1.00  0.00    -0.191 NA
HETATM    6  C5  UNL     1      23.594   1.943  52.462  1.00  0.00     0.090 A 
HETATM    7  N3  UNL     1      22.302   1.576  52.500  1.00  0.00    -0.226 NA
HETATM    8  C12 UNL     1      21.856   0.477  53.168  1.00  0.00     0.181 A 
HETATM    9  N4  UNL     1      20.554   0.144  53.182  1.00  0.00    -0.042 NA
HETATM   10  C13 UNL     1      20.103  -0.931  53.833  1.00  0.00     0.724 A 
HETATM   11  N7  UNL     1      21.041  -1.653  54.469  1.00  0.00    -0.074 NA
HETATM   12  C16 UNL     1      22.345  -1.371  54.490  1.00  0.00     0.152 A 
HETATM   13  C17 UNL     1      22.805  -0.275  53.826  1.00  0.00     0.038 A 
ENDROOT
BRANCH   6  14
HETATM   14  C6  UNL     1      23.979   3.138  51.720  1.00  0.00    -0.006 A 
HETATM   15  C7  UNL     1      24.658   3.096  50.512  1.00  0.00     0.015 A 
HETATM   16  C8  UNL     1      25.021   4.208  49.813  1.00  0.00     0.023 A 
HETATM   17  C9  UNL     1      24.721   5.465  50.293  1.00  0.00     0.046 A 
HETATM   18  C10 UNL     1      24.042   5.520  51.503  1.00  0.00     0.023 A 
HETATM   19  C11 UNL     1      23.663   4.398  52.229  1.00  0.00     0.015 A 
BRANCH  17  20
HETATM   20  S1  UNL     1      25.139   6.959  49.481  1.00  0.00     0.122 S 
HETATM   21  O1  UNL     1      25.045   6.900  47.980  1.00  0.00    -0.236 OA
BRANCH  20  22
HETATM   22  N2  UNL     1      26.653   7.624  50.048  1.00  0.00    -0.248 NA
HETATM   23  H6  UNL     1      26.619   8.646  50.103  1.00  0.00     0.134 HD
HETATM   24  H7  UNL     1      27.474   7.201  49.608  1.00  0.00     0.134 HD
ENDBRANCH  20  22
ENDBRANCH  17  20
ENDBRANCH   6  14
BRANCH  10  25
HETATM   25  N5  UNL     1      18.740  -1.328  53.879  1.00  0.00    -0.221 N 
HETATM   26  H10 UNL     1      18.398  -1.861  54.703  1.00  0.00     0.177 HD
BRANCH  25  27
HETATM   27  C14 UNL     1      17.803  -1.017  52.826  1.00  0.00     0.168 C 
BRANCH  27  28
HETATM   28  C15 UNL     1      16.723  -2.059  52.818  1.00  0.00     0.286 C 
BRANCH  28  29
HETATM   29  N6  UNL     1      17.105  -3.163  53.707  1.00  0.00     0.079 N 
HETATM   30  H15 UNL     1      17.568  -3.853  53.075  1.00  0.00     0.312 HD
HETATM   31  H16 UNL     1      17.846  -2.789  54.340  1.00  0.00     0.312 HD
ENDBRANCH  28  29
ENDBRANCH  27  28
ENDBRANCH  25  27
ENDBRANCH  10  25
TORSDOF 7
ENDMDL
MODEL 6
REMARK VINA RESULT:      -7.5      3.892      7.489
REMARK  7 active torsions:
REMARK  status: ('A' for Active; 'I' for Inactive)
REMARK    1  A    between atoms: C5_6  and  C6_7 
REMARK    2  A    between atoms: C9_10  and  S1_11 
REMARK    3  A    between atoms: S1_11  and  N2_12 
REMARK    4  A    between atoms: C13_19  and  N5_20 
REMARK    5  A    between atoms: N5_20  and  C14_21 
REMARK    6  A    between atoms: C14_21  and  C15_22 
REMARK    7  A    between atoms: C15_22  and  N6_23 
ROOT
HETATM    1  C1  UNL     1      22.101   0.181  53.934  1.00  0.00     0.051 C 
HETATM    2  C2  UNL     1      23.144   0.714  53.010  1.00  0.00    -0.023 A 
HETATM    3  C3  UNL     1      22.817   1.659  52.061  1.00  0.00     0.081 A 
HETATM    4  C4  UNL     1      21.471   2.113  51.981  1.00  0.00     0.102 C 
HETATM    5  N1  UNL     1      20.375   2.462  51.914  1.00  0.00    -0.191 NA
HETATM    6  C5  UNL     1      23.809   2.121  51.233  1.00  0.00     0.090 A 
HETATM    7  N3  UNL     1      25.064   1.656  51.354  1.00  0.00    -0.226 NA
HETATM    8  C12 UNL     1      25.431   0.724  52.276  1.00  0.00     0.181 A 
HETATM    9  N4  UNL     1      26.698   0.284  52.364  1.00  0.00    -0.042 NA
HETATM   10  C13 UNL     1      27.072  -0.629  53.264  1.00  0.00     0.724 A 
HETATM   11  N7  UNL     1      26.093  -1.075  54.070  1.00  0.00    -0.074 NA
HETATM   12  C16 UNL     1      24.820  -0.676  54.028  1.00  0.00     0.152 A 
HETATM   13  C17 UNL     1      24.440   0.256  53.111  1.00  0.00     0.038 A 
ENDROOT
BRANCH   6  14
HETATM   14  C6  UNL     1      23.509   3.120  50.215  1.00  0.00    -0.006 A 
HETATM   15  C7  UNL     1      22.965   2.806  48.979  1.00  0.00     0.015 A 
HETATM   16  C8  UNL     1      22.682   3.735  48.022  1.00  0.00     0.023 A 
HETATM   17  C9  UNL     1      22.933   5.072  48.249  1.00  0.00     0.046 A 
HETATM   18  C10 UNL     1      23.477   5.399  49.484  1.00  0.00     0.023 A 
HETATM   19  C11 UNL     1      23.772   4.467  50.471  1.00  0.00     0.015 A 
BRANCH  17  20
HETATM   20  S1  UNL     1      22.609   6.348  47.095  1.00  0.00     0.122 S 
HETATM   21  O1  UNL     1      23.803   7.198  46.754  1.00  0.00    -0.236 OA
BRANCH  20  22
HETATM   22  N2  UNL     1      21.197   7.286  47.519  1.00  0.00    -0.248 NA
HETATM   23  H6  UNL     1      20.382   6.688  47.685  1.00  0.00     0.134 HD
HETATM   24  H7  UNL     1      21.064   8.112  46.929  1.00  0.00     0.134 HD
ENDBRANCH  20  22
ENDBRANCH  17  20
ENDBRANCH   6  14
BRANCH  10  25
HETATM   25  N5  UNL     1      28.395  -1.126  53.400  1.00  0.00    -0.221 N 
HETATM   26  H10 UNL     1      28.567  -2.142  53.267  1.00  0.00     0.177 HD
BRANCH  25  27
HETATM   27  C14 UNL     1      29.517  -0.276  53.714  1.00  0.00     0.168 C 
BRANCH  27  28
HETATM   28  C15 UNL     1      29.041   0.848  54.588  1.00  0.00     0.286 C 
BRANCH  28  29
HETATM   29  N6  UNL     1      29.110   2.108  53.840  1.00  0.00     0.079 N 
HETATM   30  H15 UNL     1      28.431   1.980  53.057  1.00  0.00     0.312 HD
HETATM   31  H16 UNL     1      28.714   2.844  54.465  1.00  0.00     0.312 HD
ENDBRANCH  28  29
ENDBRANCH  27  28
ENDBRANCH  25  27
ENDBRANCH  10  25
TORSDOF 7
ENDMDL
MODEL 7
REMARK VINA RESULT:      -7.4      4.737      7.083
REMARK  7 active torsions:
REMARK  status: ('A' for Active; 'I' for Inactive)
REMARK    1  A    between atoms: C5_6  and  C6_7 
REMARK    2  A    between atoms: C9_10  and  S1_11 
REMARK    3  A    between atoms: S1_11  and  N2_12 
REMARK    4  A    between atoms: C13_19  and  N5_20 
REMARK    5  A    between atoms: N5_20  and  C14_21 
REMARK    6  A    between atoms: C14_21  and  C15_22 
REMARK    7  A    between atoms: C15_22  and  N6_23 
ROOT
HETATM    1  C1  UNL     1      25.378  -0.550  54.517  1.00  0.00     0.051 C 
HETATM    2  C2  UNL     1      24.520   0.116  53.495  1.00  0.00    -0.023 A 
HETATM    3  C3  UNL     1      23.176  -0.178  53.415  1.00  0.00     0.081 A 
HETATM    4  C4  UNL     1      22.626  -1.125  54.323  1.00  0.00     0.102 C 
HETATM    5  N1  UNL     1      22.194  -1.905  55.053  1.00  0.00    -0.191 NA
HETATM    6  C5  UNL     1      22.426   0.459  52.459  1.00  0.00     0.090 A 
HETATM    7  N3  UNL     1      22.998   1.345  51.627  1.00  0.00    -0.226 NA
HETATM    8  C12 UNL     1      24.321   1.665  51.670  1.00  0.00     0.181 A 
HETATM    9  N4  UNL     1      24.855   2.557  50.819  1.00  0.00    -0.042 NA
HETATM   10  C13 UNL     1      26.151   2.881  50.850  1.00  0.00     0.724 A 
HETATM   11  N7  UNL     1      26.877   2.251  51.790  1.00  0.00    -0.074 NA
HETATM   12  C16 UNL     1      26.401   1.358  52.660  1.00  0.00     0.152 A 
HETATM   13  C17 UNL     1      25.080   1.030  52.628  1.00  0.00     0.038 A 
ENDROOT
BRANCH   6  14
HETATM   14  C6  UNL     1      21.000   0.179  52.338  1.00  0.00    -0.006 A 
HETATM   15  C7  UNL     1      20.240  -0.355  53.368  1.00  0.00     0.015 A 
HETATM   16  C8  UNL     1      18.907  -0.619  53.263  1.00  0.00     0.023 A 
HETATM   17  C9  UNL     1      18.233  -0.360  52.088  1.00  0.00     0.046 A 
HETATM   18  C10 UNL     1      18.983   0.175  51.049  1.00  0.00     0.023 A 
HETATM   19  C11 UNL     1      20.341   0.452  51.138  1.00  0.00     0.015 A 
BRANCH  17  20
HETATM   20  S1  UNL     1      16.526  -0.659  51.842  1.00  0.00     0.122 S 
HETATM   21  O1  UNL     1      15.956  -0.034  50.598  1.00  0.00    -0.236 OA
BRANCH  20  22
HETATM   22  N2  UNL     1      15.579  -0.326  53.273  1.00  0.00    -0.248 NA
HETATM   23  H6  UNL     1      15.281   0.653  53.309  1.00  0.00     0.134 HD
HETATM   24  H7  UNL     1      15.974  -0.731  54.126  1.00  0.00     0.134 HD
ENDBRANCH  20  22
ENDBRANCH  17  20
ENDBRANCH   6  14
BRANCH  10  25
HETATM   25  N5  UNL     1      26.765   3.816  49.976  1.00  0.00    -0.221 N 
HETATM   26  H10 UNL     1      27.748   3.657  49.678  1.00  0.00     0.177 HD
BRANCH  25  27
HETATM   27  C14 UNL     1      26.079   4.984  49.479  1.00  0.00     0.168 C 
BRANCH  27  28
HETATM   28  C15 UNL     1      27.030   5.780  48.635  1.00  0.00     0.286 C 
BRANCH  28  29
HETATM   29  N6  UNL     1      27.399   7.010  49.346  1.00  0.00     0.079 N 
HETATM   30  H15 UNL     1      28.369   6.828  49.688  1.00  0.00     0.312 HD
HETATM   31  H16 UNL     1      27.469   7.759  48.624  1.00  0.00     0.312 HD
ENDBRANCH  28  29
ENDBRANCH  27  28
ENDBRANCH  25  27
ENDBRANCH  10  25
TORSDOF 7
ENDMDL
MODEL 8
REMARK VINA RESULT:      -7.4      4.215      5.739
REMARK  7 active torsions:
REMARK  status: ('A' for Active; 'I' for Inactive)
REMARK    1  A    between atoms: C5_6  and  C6_7 
REMARK    2  A    between atoms: C9_10  and  S1_11 
REMARK    3  A    between atoms: S1_11  and  N2_12 
REMARK    4  A    between atoms: C13_19  and  N5_20 
REMARK    5  A    between atoms: N5_20  and  C14_21 
REMARK    6  A    between atoms: C14_21  and  C15_22 
REMARK    7  A    between atoms: C15_22  and  N6_23 
ROOT
HETATM    1  C1  UNL     1      25.345   0.048  53.654  1.00  0.00     0.051 C 
HETATM    2  C2  UNL     1      24.685   0.904  52.628  1.00  0.00    -0.023 A 
HETATM    3  C3  UNL     1      25.391   1.903  51.993  1.00  0.00     0.081 A 
HETATM    4  C4  UNL     1      26.757   2.101  52.337  1.00  0.00     0.102 C 
HETATM    5  N1  UNL     1      27.859   2.263  52.634  1.00  0.00    -0.191 NA
HETATM    6  C5  UNL     1      24.741   2.666  51.056  1.00  0.00     0.090 A 
HETATM    7  N3  UNL     1      23.449   2.435  50.771  1.00  0.00    -0.226 NA
HETATM    8  C12 UNL     1      22.714   1.460  51.372  1.00  0.00     0.181 A 
HETATM    9  N4  UNL     1      21.422   1.261  51.060  1.00  0.00    -0.042 NA
HETATM   10  C13 UNL     1      20.689   0.308  51.641  1.00  0.00     0.724 A 
HETATM   11  N7  UNL     1      21.334  -0.433  52.558  1.00  0.00    -0.074 NA
HETATM   12  C16 UNL     1      22.612  -0.281  52.909  1.00  0.00     0.152 A 
HETATM   13  C17 UNL     1      23.359   0.690  52.315  1.00  0.00     0.038 A 
ENDROOT
BRANCH   6  14
HETATM   14  C6  UNL     1      25.450   3.734  50.360  1.00  0.00    -0.006 A 
HETATM   15  C7  UNL     1      25.082   5.069  50.443  1.00  0.00     0.015 A 
HETATM   16  C8  UNL     1      25.739   6.072  49.795  1.00  0.00     0.023 A 
HETATM   17  C9  UNL     1      26.834   5.795  49.003  1.00  0.00     0.046 A 
HETATM   18  C10 UNL     1      27.211   4.462  48.913  1.00  0.00     0.023 A 
HETATM   19  C11 UNL     1      26.555   3.426  49.565  1.00  0.00     0.015 A 
BRANCH  17  20
HETATM   20  S1  UNL     1      27.751   7.003  48.128  1.00  0.00     0.122 S 
HETATM   21  O1  UNL     1      26.977   7.712  47.050  1.00  0.00    -0.236 OA
BRANCH  20  22
HETATM   22  N2  UNL     1      29.295   6.396  47.579  1.00  0.00    -0.248 NA
HETATM   23  H6  UNL     1      29.260   6.107  46.597  1.00  0.00     0.134 HD
HETATM   24  H7  UNL     1      29.742   5.758  48.243  1.00  0.00     0.134 HD
ENDBRANCH  20  22
ENDBRANCH  17  20
ENDBRANCH   6  14
BRANCH  10  25
HETATM   25  N5  UNL     1      19.322   0.056  51.347  1.00  0.00    -0.221 N 
HETATM   26  H10 UNL     1      19.062  -0.253  50.390  1.00  0.00     0.177 HD
BRANCH  25  27
HETATM   27  C14 UNL     1      18.275   0.208  52.328  1.00  0.00     0.168 C 
BRANCH  27  28
HETATM   28  C15 UNL     1      17.781  -1.153  52.722  1.00  0.00     0.286 C 
BRANCH  28  29
HETATM   29  N6  UNL     1      18.596  -1.664  53.830  1.00  0.00     0.079 N 
HETATM   30  H15 UNL     1      19.508  -1.164  53.730  1.00  0.00     0.312 HD
HETATM   31  H16 UNL     1      18.156  -1.313  54.708  1.00  0.00     0.312 HD
ENDBRANCH  28  29
ENDBRANCH  27  28
ENDBRANCH  25  27
ENDBRANCH  10  25
TORSDOF 7
ENDMDL
MODEL 9
REMARK VINA RESULT:      -7.2      4.700      6.567
REMARK  7 active torsions:
REMARK  status: ('A' for Active; 'I' for Inactive)
REMARK    1  A    between atoms: C5_6  and  C6_7 
REMARK    2  A    between atoms: C9_10  and  S1_11 
REMARK    3  A    between atoms: S1_11  and  N2_12 
REMARK    4  A    between atoms: C13_19  and  N5_20 
REMARK    5  A    between atoms: N5_20  and  C14_21 
REMARK    6  A    between atoms: C14_21  and  C15_22 
REMARK    7  A    between atoms: C15_22  and  N6_23 
ROOT
HETATM    1  C1  UNL     1      22.201   4.353  47.780  1.00  0.00     0.051 C 
HETATM    2  C2  UNL     1      23.403   4.587  48.631  1.00  0.00    -0.023 A 
HETATM    3  C3  UNL     1      23.778   3.658  49.578  1.00  0.00     0.081 A 
HETATM    4  C4  UNL     1      22.999   2.478  49.726  1.00  0.00     0.102 C 
HETATM    5  N1  UNL     1      22.352   1.532  49.849  1.00  0.00    -0.191 NA
HETATM    6  C5  UNL     1      24.891   3.916  50.338  1.00  0.00     0.090 A 
HETATM    7  N3  UNL     1      25.590   5.049  50.155  1.00  0.00    -0.226 NA
HETATM    8  C12 UNL     1      25.255   5.993  49.232  1.00  0.00     0.181 A 
HETATM    9  N4  UNL     1      25.981   7.114  49.081  1.00  0.00    -0.042 NA
HETATM   10  C13 UNL     1      25.665   8.048  48.180  1.00  0.00     0.724 A 
HETATM   11  N7  UNL     1      24.573   7.786  47.440  1.00  0.00    -0.074 NA
HETATM   12  C16 UNL     1      23.816   6.693  47.548  1.00  0.00     0.152 A 
HETATM   13  C17 UNL     1      24.139   5.741  48.465  1.00  0.00     0.038 A 
ENDROOT
BRANCH   6  14
HETATM   14  C6  UNL     1      25.324   2.962  51.352  1.00  0.00    -0.006 A 
HETATM   15  C7  UNL     1      24.697   2.820  52.580  1.00  0.00     0.015 A 
HETATM   16  C8  UNL     1      25.096   1.930  53.532  1.00  0.00     0.023 A 
HETATM   17  C9  UNL     1      26.179   1.105  53.308  1.00  0.00     0.046 A 
HETATM   18  C10 UNL     1      26.816   1.238  52.082  1.00  0.00     0.023 A 
HETATM   19  C11 UNL     1      26.423   2.138  51.099  1.00  0.00     0.015 A 
BRANCH  17  20
HETATM   20  S1  UNL     1      26.778  -0.072  54.458  1.00  0.00     0.122 S 
HETATM   21  O1  UNL     1      27.827  -1.001  53.909  1.00  0.00    -0.236 OA
BRANCH  20  22
HETATM   22  N2  UNL     1      25.487  -0.908  55.288  1.00  0.00    -0.248 NA
HETATM   23  H6  UNL     1      25.842  -1.681  55.857  1.00  0.00     0.134 HD
HETATM   24  H7  UNL     1      24.673  -1.093  54.694  1.00  0.00     0.134 HD
ENDBRANCH  20  22
ENDBRANCH  17  20
ENDBRANCH   6  14
BRANCH  10  25
HETATM   25  N5  UNL     1      26.397   9.248  47.978  1.00  0.00    -0.221 N 
HETATM   26  H10 UNL     1      25.898  10.088  47.625  1.00  0.00     0.177 HD
BRANCH  25  27
HETATM   27  C14 UNL     1      27.811   9.352  48.247  1.00  0.00     0.168 C 
BRANCH  27  28
HETATM   28  C15 UNL     1      28.007  10.160  49.496  1.00  0.00     0.286 C 
BRANCH  28  29
HETATM   29  N6  UNL     1      27.740   9.318  50.668  1.00  0.00     0.079 N 
HETATM   30  H15 UNL     1      28.606   8.744  50.774  1.00  0.00     0.312 HD
HETATM   31  H16 UNL     1      27.699   9.958  51.489  1.00  0.00     0.312 HD
ENDBRANCH  28  29
ENDBRANCH  27  28
ENDBRANCH  25  27
ENDBRANCH  10  25
TORSDOF 7
ENDMDL
