MODEL 1
REMARK VINA RESULT:      -8.1      0.000      0.000
REMARK  5 active torsions:
REMARK  status: ('A' for Active; 'I' for Inactive)
REMARK    1  A    between atoms: C4_4  and  N1_5 
REMARK    2  A    between atoms: N1_5  and  P1_6 
REMARK    3  A    between atoms: C8_10  and  O1_11 
REMARK    4  A    between atoms: O1_11  and  C9_12 
REMARK    5  A    between atoms: C9_12  and  C10_13 
ROOT
HETATM    1  P1  UNL     1      25.601   7.350  49.895  1.00  0.00    -0.012 P 
HETATM    2  C5  UNL     1      24.512   7.085  51.057  1.00  0.00    -0.002 C 
HETATM    3  C6  UNL     1      23.848   5.965  51.045  1.00  0.00     0.029 C 
HETATM    4  C7  UNL     1      24.459   4.684  50.710  1.00  0.00     0.008 C 
HETATM    5  C8  UNL     1      23.919   3.535  51.091  1.00  0.00     0.148 C 
HETATM    6  C16 UNL     1      25.695   4.679  49.935  1.00  0.00     0.048 C 
HETATM    7 CL1  UNL     1      26.511   3.174  49.479  1.00  0.00    -0.083 Cl
HETATM    8  C17 UNL     1      26.314   5.768  49.507  1.00  0.00     0.049 C 
HETATM    9  H6  UNL     1      24.975   7.957  48.787  1.00  0.00     0.083 HD
ENDROOT
BRANCH   1  10
HETATM   10  N1  UNL     1      26.780   8.453  50.606  1.00  0.00    -0.349 N 
HETATM   11  H5  UNL     1      26.970   8.492  51.640  1.00  0.00     0.166 HD
BRANCH  10  12
HETATM   12  C4  UNL     1      27.544   9.361  49.795  1.00  0.00     0.130 A 
HETATM   13  C3  UNL     1      28.888   9.264  49.499  1.00  0.00     0.077 A 
HETATM   14  C2  UNL     1      29.496  10.207  48.706  1.00  0.00     0.035 A 
HETATM   15  C1  UNL     1      30.923  10.107  48.389  1.00  0.00     0.070 C 
HETATM   16  N3  UNL     1      28.767  11.248  48.209  1.00  0.00    -0.247 NA
HETATM   17  C18 UNL     1      27.470  11.330  48.503  1.00  0.00     0.235 A 
HETATM   18  N2  UNL     1      26.890  10.417  49.267  1.00  0.00    -0.225 NA
ENDBRANCH  10  12
ENDBRANCH   1  10
BRANCH   5  19
HETATM   19  O1  UNL     1      24.461   2.272  50.798  1.00  0.00    -0.358 OA
BRANCH  19  20
HETATM   20  C9  UNL     1      24.506   1.335  51.836  1.00  0.00     0.213 C 
BRANCH  20  21
HETATM   21  C10 UNL     1      25.839   1.028  52.352  1.00  0.00    -0.031 A 
HETATM   22  C11 UNL     1      26.390  -0.236  52.377  1.00  0.00     0.009 A 
HETATM   23  C12 UNL     1      27.653  -0.474  52.875  1.00  0.00     0.004 A 
HETATM   24  C13 UNL     1      28.431   0.564  53.378  1.00  0.00     0.042 A 
HETATM   25  C14 UNL     1      27.902   1.839  53.364  1.00  0.00     0.117 A 
HETATM   26  F1  UNL     1      28.663   2.858  53.856  1.00  0.00    -0.206 F 
HETATM   27  C15 UNL     1      26.643   2.025  52.859  1.00  0.00     0.051 A 
ENDBRANCH  20  21
ENDBRANCH  19  20
ENDBRANCH   5  19
TORSDOF 5
ENDMDL
MODEL 2
REMARK VINA RESULT:      -8.1      6.916      9.680
REMARK  5 active torsions:
REMARK  status: ('A' for Active; 'I' for Inactive)
REMARK    1  A    between atoms: C4_4  and  N1_5 
REMARK    2  A    between atoms: N1_5  and  P1_6 
REMARK    3  A    between atoms: C8_10  and  O1_11 
REMARK    4  A    between atoms: O1_11  and  C9_12 
REMARK    5  A    between atoms: C9_12  and  C10_13 
ROOT
HETATM    1  P1  UNL     1      24.467   0.355  52.833  1.00  0.00    -0.012 P 
HETATM    2  C5  UNL     1      23.591   1.448  52.029  1.00  0.00    -0.002 C 
HETATM    3  C6  UNL     1      22.421   1.098  51.577  1.00  0.00     0.029 C 
HETATM    4  C7  UNL     1      21.498   0.257  52.331  1.00  0.00     0.008 C 
HETATM    5  C8  UNL     1      20.198   0.247  52.073  1.00  0.00     0.148 C 
HETATM    6  C16 UNL     1      22.030  -0.591  53.391  1.00  0.00     0.048 C 
HETATM    7 CL1  UNL     1      20.989  -1.647  54.361  1.00  0.00    -0.083 Cl
HETATM    8  C17 UNL     1      23.310  -0.655  53.727  1.00  0.00     0.049 C 
HETATM    9  H6  UNL     1      25.253  -0.383  51.925  1.00  0.00     0.083 HD
ENDROOT
BRANCH   1  10
HETATM   10  N1  UNL     1      25.502   1.292  53.911  1.00  0.00    -0.349 N 
HETATM   11  H5  UNL     1      25.120   1.980  54.610  1.00  0.00     0.166 HD
BRANCH  10  12
HETATM   12  C4  UNL     1      26.933   1.157  53.884  1.00  0.00     0.130 A 
HETATM   13  C3  UNL     1      27.644  -0.019  53.775  1.00  0.00     0.077 A 
HETATM   14  C2  UNL     1      29.018  -0.004  53.761  1.00  0.00     0.035 A 
HETATM   15  C1  UNL     1      29.777  -1.251  53.645  1.00  0.00     0.070 C 
HETATM   16  N3  UNL     1      29.684   1.183  53.857  1.00  0.00    -0.247 NA
HETATM   17  C18 UNL     1      28.986   2.313  53.963  1.00  0.00     0.235 A 
HETATM   18  N2  UNL     1      27.662   2.291  53.974  1.00  0.00    -0.225 NA
ENDBRANCH  10  12
ENDBRANCH   1  10
BRANCH   5  19
HETATM   19  O1  UNL     1      19.262  -0.541  52.763  1.00  0.00    -0.358 OA
BRANCH  19  20
HETATM   20  C9  UNL     1      17.909  -0.324  52.485  1.00  0.00     0.213 C 
BRANCH  20  21
HETATM   21  C10 UNL     1      17.047  -1.502  52.578  1.00  0.00    -0.031 A 
HETATM   22  C11 UNL     1      15.814  -1.612  51.971  1.00  0.00     0.009 A 
HETATM   23  C12 UNL     1      15.039  -2.746  52.090  1.00  0.00     0.004 A 
HETATM   24  C13 UNL     1      15.475  -3.836  52.835  1.00  0.00     0.042 A 
HETATM   25  C14 UNL     1      16.708  -3.750  53.452  1.00  0.00     0.117 A 
HETATM   26  F1  UNL     1      17.138  -4.818  54.183  1.00  0.00    -0.206 F 
HETATM   27  C15 UNL     1      17.441  -2.604  53.305  1.00  0.00     0.051 A 
ENDBRANCH  20  21
ENDBRANCH  19  20
ENDBRANCH   5  19
TORSDOF 5
ENDMDL
MODEL 3
REMARK VINA RESULT:      -7.8      3.670      4.359
REMARK  5 active torsions:
REMARK  status: ('A' for Active; 'I' for Inactive)
REMARK    1  A    between atoms: C4_4  and  N1_5 
REMARK    2  A    between atoms: N1_5  and  P1_6 
REMARK    3  A    between atoms: C8_10  and  O1_11 
REMARK    4  A    between atoms: O1_11  and  C9_12 
REMARK    5  A    between atoms: C9_12  and  C10_13 
ROOT
HETATM    1  P1  UNL     1      28.040   6.508  48.297  1.00  0.00    -0.012 P 
HETATM    2  C5  UNL     1      27.010   7.435  49.126  1.00  0.00    -0.002 C 
HETATM    3  C6  UNL     1      25.806   6.989  49.342  1.00  0.00     0.029 C 
HETATM    4  C7  UNL     1      25.523   5.598  49.680  1.00  0.00     0.008 C 
HETATM    5  C8  UNL     1      24.400   5.245  50.289  1.00  0.00     0.148 C 
HETATM    6  C16 UNL     1      26.508   4.579  49.333  1.00  0.00     0.048 C 
HETATM    7 CL1  UNL     1      26.254   2.865  49.703  1.00  0.00    -0.083 Cl
HETATM    8  C17 UNL     1      27.658   4.826  48.725  1.00  0.00     0.049 C 
HETATM    9  H6  UNL     1      27.906   6.767  46.917  1.00  0.00     0.083 HD
ENDROOT
BRANCH   1  10
HETATM   10  N1  UNL     1      29.645   6.987  48.851  1.00  0.00    -0.349 N 
HETATM   11  H5  UNL     1      29.812   7.847  49.435  1.00  0.00     0.166 HD
BRANCH  10  12
HETATM   12  C4  UNL     1      30.813   6.215  48.527  1.00  0.00     0.130 A 
HETATM   13  C3  UNL     1      30.876   5.147  47.656  1.00  0.00     0.077 A 
HETATM   14  C2  UNL     1      32.065   4.495  47.437  1.00  0.00     0.035 A 
HETATM   15  C1  UNL     1      32.135   3.362  46.512  1.00  0.00     0.070 C 
HETATM   16  N3  UNL     1      33.193   4.905  48.087  1.00  0.00    -0.247 NA
HETATM   17  C18 UNL     1      33.119   5.937  48.927  1.00  0.00     0.235 A 
HETATM   18  N2  UNL     1      31.970   6.561  49.132  1.00  0.00    -0.225 NA
ENDBRANCH  10  12
ENDBRANCH   1  10
BRANCH   5  19
HETATM   19  O1  UNL     1      24.073   3.925  50.639  1.00  0.00    -0.358 OA
BRANCH  19  20
HETATM   20  C9  UNL     1      23.642   3.695  51.950  1.00  0.00     0.213 C 
BRANCH  20  21
HETATM   21  C10 UNL     1      24.115   2.454  52.563  1.00  0.00    -0.031 A 
HETATM   22  C11 UNL     1      25.314   2.326  53.230  1.00  0.00     0.009 A 
HETATM   23  C12 UNL     1      25.715   1.132  53.792  1.00  0.00     0.004 A 
HETATM   24  C13 UNL     1      24.916  -0.003  53.706  1.00  0.00     0.042 A 
HETATM   25  C14 UNL     1      23.709   0.101  53.043  1.00  0.00     0.117 A 
HETATM   26  F1  UNL     1      22.923  -1.011  52.958  1.00  0.00    -0.206 F 
HETATM   27  C15 UNL     1      23.355   1.306  52.502  1.00  0.00     0.051 A 
ENDBRANCH  20  21
ENDBRANCH  19  20
ENDBRANCH   5  19
TORSDOF 5
ENDMDL
MODEL 4
REMARK VINA RESULT:      -7.8      7.544     10.231
REMARK  5 active torsions:
REMARK  status: ('A' for Active; 'I' for Inactive)
REMARK    1  A    between atoms: C4_4  and  N1_5 
REMARK    2  A    between atoms: N1_5  and  P1_6 
REMARK    3  A    between atoms: C8_10  and  O1_11 
REMARK    4  A    between atoms: O1_11  and  C9_12 
REMARK    5  A    between atoms: C9_12  and  C10_13 
ROOT
HETATM    1  P1  UNL     1      23.938  -0.011  53.543  1.00  0.00    -0.012 P 
HETATM    2  C5  UNL     1      23.132  -0.934  54.595  1.00  0.00    -0.002 C 
HETATM    3  C6  UNL     1      21.848  -0.761  54.719  1.00  0.00     0.029 C 
HETATM    4  C7  UNL     1      20.967  -0.512  53.583  1.00  0.00     0.008 C 
HETATM    5  C8  UNL     1      19.665  -0.747  53.648  1.00  0.00     0.148 C 
HETATM    6  C16 UNL     1      21.546   0.011  52.350  1.00  0.00     0.048 C 
HETATM    7 CL1  UNL     1      20.558   0.346  50.918  1.00  0.00    -0.083 Cl
HETATM    8  C17 UNL     1      22.832   0.280  52.182  1.00  0.00     0.049 C 
HETATM    9  H6  UNL     1      24.354   1.178  54.176  1.00  0.00     0.083 HD
ENDROOT
BRANCH   1  10
HETATM   10  N1  UNL     1      25.341  -0.968  53.065  1.00  0.00    -0.349 N 
HETATM   11  H5  UNL     1      25.255  -1.916  52.615  1.00  0.00     0.166 HD
BRANCH  10  12
HETATM   12  C4  UNL     1      26.681  -0.492  53.272  1.00  0.00     0.130 A 
HETATM   13  C3  UNL     1      27.079   0.826  53.360  1.00  0.00     0.077 A 
HETATM   14  C2  UNL     1      28.401   1.142  53.561  1.00  0.00     0.035 A 
HETATM   15  C1  UNL     1      28.828   2.540  53.656  1.00  0.00     0.070 C 
HETATM   16  N3  UNL     1      29.327   0.146  53.674  1.00  0.00    -0.247 NA
HETATM   17  C18 UNL     1      28.930  -1.123  53.586  1.00  0.00     0.235 A 
HETATM   18  N2  UNL     1      27.654  -1.420  53.393  1.00  0.00    -0.225 NA
ENDBRANCH  10  12
ENDBRANCH   1  10
BRANCH   5  19
HETATM   19  O1  UNL     1      18.768  -0.526  52.589  1.00  0.00    -0.358 OA
BRANCH  19  20
HETATM   20  C9  UNL     1      17.404  -0.667  52.861  1.00  0.00     0.213 C 
BRANCH  20  21
HETATM   21  C10 UNL     1      16.909  -2.042  52.919  1.00  0.00    -0.031 A 
HETATM   22  C11 UNL     1      17.566  -3.078  53.548  1.00  0.00     0.009 A 
HETATM   23  C12 UNL     1      17.057  -4.359  53.575  1.00  0.00     0.004 A 
HETATM   24  C13 UNL     1      15.845  -4.660  52.962  1.00  0.00     0.042 A 
HETATM   25  C14 UNL     1      15.167  -3.639  52.326  1.00  0.00     0.117 A 
HETATM   26  F1  UNL     1      13.978  -3.931  51.725  1.00  0.00    -0.206 F 
HETATM   27  C15 UNL     1      15.713  -2.384  52.326  1.00  0.00     0.051 A 
ENDBRANCH  20  21
ENDBRANCH  19  20
ENDBRANCH   5  19
TORSDOF 5
ENDMDL
MODEL 5
REMARK VINA RESULT:      -7.8      6.244      9.002
REMARK  5 active torsions:
REMARK  status: ('A' for Active; 'I' for Inactive)
REMARK    1  A    between atoms: C4_4  and  N1_5 
REMARK    2  A    between atoms: N1_5  and  P1_6 
REMARK    3  A    between atoms: C8_10  and  O1_11 
REMARK    4  A    between atoms: O1_11  and  C9_12 
REMARK    5  A    between atoms: C9_12  and  C10_13 
ROOT
HETATM    1  P1  UNL     1      24.942   2.450  51.770  1.00  0.00    -0.012 P 
HETATM    2  C5  UNL     1      23.919   3.670  52.045  1.00  0.00    -0.002 C 
HETATM    3  C6  UNL     1      22.648   3.474  51.846  1.00  0.00     0.029 C 
HETATM    4  C7  UNL     1      21.969   2.236  52.209  1.00  0.00     0.008 C 
HETATM    5  C8  UNL     1      20.657   2.190  52.391  1.00  0.00     0.148 C 
HETATM    6  C16 UNL     1      22.763   1.023  52.371  1.00  0.00     0.048 C 
HETATM    7 CL1  UNL     1      22.030  -0.529  52.810  1.00  0.00    -0.083 Cl
HETATM    8  C17 UNL     1      24.077   0.962  52.212  1.00  0.00     0.049 C 
HETATM    9  H6  UNL     1      25.348   2.468  50.420  1.00  0.00     0.083 HD
ENDROOT
BRANCH   1  10
HETATM   10  N1  UNL     1      26.323   2.754  52.824  1.00  0.00    -0.349 N 
HETATM   11  H5  UNL     1      26.695   3.721  53.009  1.00  0.00     0.166 HD
BRANCH  10  12
HETATM   12  C4  UNL     1      27.012   1.682  53.488  1.00  0.00     0.130 A 
HETATM   13  C3  UNL     1      28.212   1.118  53.107  1.00  0.00     0.077 A 
HETATM   14  C2  UNL     1      28.763   0.093  53.837  1.00  0.00     0.035 A 
HETATM   15  C1  UNL     1      30.038  -0.508  53.437  1.00  0.00     0.070 C 
HETATM   16  N3  UNL     1      28.118  -0.374  54.945  1.00  0.00    -0.247 NA
HETATM   17  C18 UNL     1      26.959   0.178  55.302  1.00  0.00     0.235 A 
HETATM   18  N2  UNL     1      26.434   1.167  54.595  1.00  0.00    -0.225 NA
ENDBRANCH  10  12
ENDBRANCH   1  10
BRANCH   5  19
HETATM   19  O1  UNL     1      19.949   1.028  52.741  1.00  0.00    -0.358 OA
BRANCH  19  20
HETATM   20  C9  UNL     1      18.863   0.670  51.935  1.00  0.00     0.213 C 
BRANCH  20  21
HETATM   21  C10 UNL     1      18.115  -0.509  52.369  1.00  0.00    -0.031 A 
HETATM   22  C11 UNL     1      18.587  -1.441  53.269  1.00  0.00     0.009 A 
HETATM   23  C12 UNL     1      17.840  -2.537  53.647  1.00  0.00     0.004 A 
HETATM   24  C13 UNL     1      16.567  -2.748  53.130  1.00  0.00     0.042 A 
HETATM   25  C14 UNL     1      16.071  -1.828  52.227  1.00  0.00     0.117 A 
HETATM   26  F1  UNL     1      14.822  -2.033  51.718  1.00  0.00    -0.206 F 
HETATM   27  C15 UNL     1      16.849  -0.757  51.882  1.00  0.00     0.051 A 
ENDBRANCH  20  21
ENDBRANCH  19  20
ENDBRANCH   5  19
TORSDOF 5
ENDMDL
MODEL 6
REMARK VINA RESULT:      -7.6      4.104      8.386
REMARK  5 active torsions:
REMARK  status: ('A' for Active; 'I' for Inactive)
REMARK    1  A    between atoms: C4_4  and  N1_5 
REMARK    2  A    between atoms: N1_5  and  P1_6 
REMARK    3  A    between atoms: C8_10  and  O1_11 
REMARK    4  A    between atoms: O1_11  and  C9_12 
REMARK    5  A    between atoms: C9_12  and  C10_13 
ROOT
HETATM    1  P1  UNL     1      24.773   3.230  51.189  1.00  0.00    -0.012 P 
HETATM    2  C5  UNL     1      26.247   2.876  50.632  1.00  0.00    -0.002 C 
HETATM    3  C6  UNL     1      26.674   3.490  49.567  1.00  0.00     0.029 C 
HETATM    4  C7  UNL     1      26.433   4.906  49.316  1.00  0.00     0.008 C 
HETATM    5  C8  UNL     1      27.191   5.603  48.482  1.00  0.00     0.148 C 
HETATM    6  C16 UNL     1      25.327   5.562  50.006  1.00  0.00     0.048 C 
HETATM    7 CL1  UNL     1      24.956   7.277  49.766  1.00  0.00    -0.083 Cl
HETATM    8  C17 UNL     1      24.513   4.957  50.857  1.00  0.00     0.049 C 
HETATM    9  H6  UNL     1      23.818   2.401  50.566  1.00  0.00     0.083 HD
ENDROOT
BRANCH   1  10
HETATM   10  N1  UNL     1      24.835   2.890  52.919  1.00  0.00    -0.349 N 
HETATM   11  H5  UNL     1      24.448   3.549  53.642  1.00  0.00     0.166 HD
BRANCH  10  12
HETATM   12  C4  UNL     1      25.427   1.682  53.426  1.00  0.00     0.130 A 
HETATM   13  C3  UNL     1      26.709   1.538  53.914  1.00  0.00     0.077 A 
HETATM   14  C2  UNL     1      27.149   0.320  54.371  1.00  0.00     0.035 A 
HETATM   15  C1  UNL     1      28.510   0.163  54.889  1.00  0.00     0.070 C 
HETATM   16  N3  UNL     1      26.312  -0.758  54.342  1.00  0.00    -0.247 NA
HETATM   17  C18 UNL     1      25.075  -0.606  53.868  1.00  0.00     0.235 A 
HETATM   18  N2  UNL     1      24.658   0.572  53.430  1.00  0.00    -0.225 NA
ENDBRANCH  10  12
ENDBRANCH   1  10
BRANCH   5  19
HETATM   19  O1  UNL     1      27.008   6.968  48.200  1.00  0.00    -0.358 OA
BRANCH  19  20
HETATM   20  C9  UNL     1      27.921   7.573  47.330  1.00  0.00     0.213 C 
BRANCH  20  21
HETATM   21  C10 UNL     1      29.267   7.774  47.865  1.00  0.00    -0.031 A 
HETATM   22  C11 UNL     1      30.361   7.010  47.522  1.00  0.00     0.009 A 
HETATM   23  C12 UNL     1      31.612   7.242  48.055  1.00  0.00     0.004 A 
HETATM   24  C13 UNL     1      31.820   8.267  48.971  1.00  0.00     0.042 A 
HETATM   25  C14 UNL     1      30.739   9.047  49.331  1.00  0.00     0.117 A 
HETATM   26  F1  UNL     1      30.941  10.053  50.229  1.00  0.00    -0.206 F 
HETATM   27  C15 UNL     1      29.518   8.779  48.775  1.00  0.00     0.051 A 
ENDBRANCH  20  21
ENDBRANCH  19  20
ENDBRANCH   5  19
TORSDOF 5
ENDMDL
MODEL 7
REMARK VINA RESULT:      -7.6      4.035      8.304
REMARK  5 active torsions:
REMARK  status: ('A' for Active; 'I' for Inactive)
REMARK    1  A    between atoms: C4_4  and  N1_5 
REMARK    2  A    between atoms: N1_5  and  P1_6 
REMARK    3  A    between atoms: C8_10  and  O1_11 
REMARK    4  A    between atoms: O1_11  and  C9_12 
REMARK    5  A    between atoms: C9_12  and  C10_13 
ROOT
HETATM    1  P1  UNL     1      24.660   3.247  51.160  1.00  0.00    -0.012 P 
HETATM    2  C5  UNL     1      26.081   2.701  50.619  1.00  0.00    -0.002 C 
HETATM    3  C6  UNL     1      26.595   3.248  49.556  1.00  0.00     0.029 C 
HETATM    4  C7  UNL     1      26.545   4.683  49.299  1.00  0.00     0.008 C 
HETATM    5  C8  UNL     1      27.396   5.271  48.471  1.00  0.00     0.148 C 
HETATM    6  C16 UNL     1      25.528   5.481  49.975  1.00  0.00     0.048 C 
HETATM    7 CL1  UNL     1      25.388   7.229  49.727  1.00  0.00    -0.083 Cl
HETATM    8  C17 UNL     1      24.632   4.992  50.819  1.00  0.00     0.049 C 
HETATM    9  H6  UNL     1      23.611   2.548  50.528  1.00  0.00     0.083 HD
ENDROOT
BRANCH   1  10
HETATM   10  N1  UNL     1      24.660   2.909  52.891  1.00  0.00    -0.349 N 
HETATM   11  H5  UNL     1      24.230   3.559  53.597  1.00  0.00     0.166 HD
BRANCH  10  12
HETATM   12  C4  UNL     1      25.256   1.714  53.423  1.00  0.00     0.130 A 
HETATM   13  C3  UNL     1      26.541   1.584  53.909  1.00  0.00     0.077 A 
HETATM   14  C2  UNL     1      26.984   0.377  54.391  1.00  0.00     0.035 A 
HETATM   15  C1  UNL     1      28.348   0.235  54.909  1.00  0.00     0.070 C 
HETATM   16  N3  UNL     1      26.150  -0.703  54.389  1.00  0.00    -0.247 NA
HETATM   17  C18 UNL     1      24.911  -0.565  53.917  1.00  0.00     0.235 A 
HETATM   18  N2  UNL     1      24.490   0.602  53.454  1.00  0.00    -0.225 NA
ENDBRANCH  10  12
ENDBRANCH   1  10
BRANCH   5  19
HETATM   19  O1  UNL     1      27.397   6.647  48.184  1.00  0.00    -0.358 OA
BRANCH  19  20
HETATM   20  C9  UNL     1      28.463   7.145  47.428  1.00  0.00     0.213 C 
BRANCH  20  21
HETATM   21  C10 UNL     1      29.655   7.522  48.187  1.00  0.00    -0.031 A 
HETATM   22  C11 UNL     1      29.860   8.766  48.743  1.00  0.00     0.009 A 
HETATM   23  C12 UNL     1      31.003   9.071  49.452  1.00  0.00     0.004 A 
HETATM   24  C13 UNL     1      32.005   8.125  49.636  1.00  0.00     0.042 A 
HETATM   25  C14 UNL     1      31.822   6.870  49.089  1.00  0.00     0.117 A 
HETATM   26  F1  UNL     1      32.803   5.940  49.268  1.00  0.00    -0.206 F 
HETATM   27  C15 UNL     1      30.671   6.615  48.394  1.00  0.00     0.051 A 
ENDBRANCH  20  21
ENDBRANCH  19  20
ENDBRANCH   5  19
TORSDOF 5
ENDMDL
MODEL 8
REMARK VINA RESULT:      -7.3      1.571      2.226
REMARK  5 active torsions:
REMARK  status: ('A' for Active; 'I' for Inactive)
REMARK    1  A    between atoms: C4_4  and  N1_5 
REMARK    2  A    between atoms: N1_5  and  P1_6 
REMARK    3  A    between atoms: C8_10  and  O1_11 
REMARK    4  A    between atoms: O1_11  and  C9_12 
REMARK    5  A    between atoms: C9_12  and  C10_13 
ROOT
HETATM    1  P1  UNL     1      26.784   7.395  48.976  1.00  0.00    -0.012 P 
HETATM    2  C5  UNL     1      25.899   7.890  50.233  1.00  0.00    -0.002 C 
HETATM    3  C6  UNL     1      24.803   7.248  50.514  1.00  0.00     0.029 C 
HETATM    4  C7  UNL     1      24.692   5.796  50.439  1.00  0.00     0.008 C 
HETATM    5  C8  UNL     1      23.753   5.135  51.100  1.00  0.00     0.148 C 
HETATM    6  C16 UNL     1      25.643   5.063  49.610  1.00  0.00     0.048 C 
HETATM    7 CL1  UNL     1      25.589   3.299  49.455  1.00  0.00    -0.083 Cl
HETATM    8  C17 UNL     1      26.615   5.627  48.910  1.00  0.00     0.049 C 
HETATM    9  H6  UNL     1      26.338   8.033  47.801  1.00  0.00     0.083 HD
ENDROOT
BRANCH   1  10
HETATM   10  N1  UNL     1      28.436   7.891  49.347  1.00  0.00    -0.349 N 
HETATM   11  H5  UNL     1      29.153   7.229  49.741  1.00  0.00     0.166 HD
BRANCH  10  12
HETATM   12  C4  UNL     1      28.884   9.239  49.127  1.00  0.00     0.130 A 
HETATM   13  C3  UNL     1      28.085  10.352  48.964  1.00  0.00     0.077 A 
HETATM   14  C2  UNL     1      28.648  11.589  48.760  1.00  0.00     0.035 A 
HETATM   15  C1  UNL     1      27.804  12.773  48.588  1.00  0.00     0.070 C 
HETATM   16  N3  UNL     1      30.005  11.718  48.717  1.00  0.00    -0.247 NA
HETATM   17  C18 UNL     1      30.766  10.635  48.875  1.00  0.00     0.235 A 
HETATM   18  N2  UNL     1      30.217   9.446  49.072  1.00  0.00    -0.225 NA
ENDBRANCH  10  12
ENDBRANCH   1  10
BRANCH   5  19
HETATM   19  O1  UNL     1      23.597   3.739  51.066  1.00  0.00    -0.358 OA
BRANCH  19  20
HETATM   20  C9  UNL     1      23.049   3.125  52.198  1.00  0.00     0.213 C 
BRANCH  20  21
HETATM   21  C10 UNL     1      23.846   2.046  52.780  1.00  0.00    -0.031 A 
HETATM   22  C11 UNL     1      23.397   0.754  52.950  1.00  0.00     0.009 A 
HETATM   23  C12 UNL     1      24.189  -0.229  53.505  1.00  0.00     0.004 A 
HETATM   24  C13 UNL     1      25.487   0.047  53.919  1.00  0.00     0.042 A 
HETATM   25  C14 UNL     1      25.961   1.334  53.758  1.00  0.00     0.117 A 
HETATM   26  F1  UNL     1      27.234   1.607  54.162  1.00  0.00    -0.206 F 
HETATM   27  C15 UNL     1      25.137   2.276  53.203  1.00  0.00     0.051 A 
ENDBRANCH  20  21
ENDBRANCH  19  20
ENDBRANCH   5  19
TORSDOF 5
ENDMDL
MODEL 9
REMARK VINA RESULT:      -7.3      4.066      8.103
REMARK  5 active torsions:
REMARK  status: ('A' for Active; 'I' for Inactive)
REMARK    1  A    between atoms: C4_4  and  N1_5 
REMARK    2  A    between atoms: N1_5  and  P1_6 
REMARK    3  A    between atoms: C8_10  and  O1_11 
REMARK    4  A    between atoms: O1_11  and  C9_12 
REMARK    5  A    between atoms: C9_12  and  C10_13 
ROOT
HETATM    1  P1  UNL     1      24.033   3.189  52.228  1.00  0.00    -0.012 P 
HETATM    2  C5  UNL     1      24.813   2.825  50.862  1.00  0.00    -0.002 C 
HETATM    3  C6  UNL     1      24.438   3.403  49.758  1.00  0.00     0.029 C 
HETATM    4  C7  UNL     1      24.056   4.809  49.689  1.00  0.00     0.008 C 
HETATM    5  C8  UNL     1      24.082   5.481  48.547  1.00  0.00     0.148 C 
HETATM    6  C16 UNL     1      23.635   5.482  50.913  1.00  0.00     0.048 C 
HETATM    7 CL1  UNL     1      23.152   7.186  50.930  1.00  0.00    -0.083 Cl
HETATM    8  C17 UNL     1      23.574   4.901  52.102  1.00  0.00     0.049 C 
HETATM    9  H6  UNL     1      22.923   2.333  52.383  1.00  0.00     0.083 HD
ENDROOT
BRANCH   1  10
HETATM   10  N1  UNL     1      25.201   2.908  53.520  1.00  0.00    -0.349 N 
HETATM   11  H5  UNL     1      25.423   3.631  54.252  1.00  0.00     0.166 HD
BRANCH  10  12
HETATM   12  C4  UNL     1      25.912   1.664  53.632  1.00  0.00     0.130 A 
HETATM   13  C3  UNL     1      27.282   1.504  53.689  1.00  0.00     0.077 A 
HETATM   14  C2  UNL     1      27.832   0.251  53.797  1.00  0.00     0.035 A 
HETATM   15  C1  UNL     1      29.286   0.077  53.858  1.00  0.00     0.070 C 
HETATM   16  N3  UNL     1      27.021  -0.845  53.848  1.00  0.00    -0.247 NA
HETATM   17  C18 UNL     1      25.700  -0.678  53.791  1.00  0.00     0.235 A 
HETATM   18  N2  UNL     1      25.176   0.534  53.688  1.00  0.00    -0.225 NA
ENDBRANCH  10  12
ENDBRANCH   1  10
BRANCH   5  19
HETATM   19  O1  UNL     1      23.725   6.834  48.419  1.00  0.00    -0.358 OA
BRANCH  19  20
HETATM   20  C9  UNL     1      24.488   7.621  47.550  1.00  0.00     0.213 C 
BRANCH  20  21
HETATM   21  C10 UNL     1      25.851   7.914  47.995  1.00  0.00    -0.031 A 
HETATM   22  C11 UNL     1      26.984   7.624  47.266  1.00  0.00     0.009 A 
HETATM   23  C12 UNL     1      28.248   7.921  47.730  1.00  0.00     0.004 A 
HETATM   24  C13 UNL     1      28.432   8.531  48.966  1.00  0.00     0.042 A 
HETATM   25  C14 UNL     1      27.311   8.832  49.715  1.00  0.00     0.117 A 
HETATM   26  F1  UNL     1      27.488   9.431  50.928  1.00  0.00    -0.206 F 
HETATM   27  C15 UNL     1      26.078   8.518  49.212  1.00  0.00     0.051 A 
ENDBRANCH  20  21
ENDBRANCH  19  20
ENDBRANCH   5  19
TORSDOF 5
ENDMDL
