MODEL 1
REMARK VINA RESULT:      -8.8      0.000      0.000
REMARK  3 active torsions:
REMARK  status: ('A' for Active; 'I' for Inactive)
REMARK    1  A    between atoms: O1_2  and  C2_3 
REMARK    2  A    between atoms: C10_12  and  N2_13 
REMARK    3  A    between atoms: N2_13  and  C11_14 
ROOT
HETATM    1  C2  UNL     1      19.762   0.431  51.164  1.00  0.00     0.069 A 
HETATM    2  C3  UNL     1      19.806   1.067  49.914  1.00  0.00     0.039 A 
HETATM    3  C4  UNL     1      20.883   1.861  49.569  1.00  0.00     0.040 A 
HETATM    4  C5  UNL     1      21.878   1.978  50.515  1.00  0.00     0.086 A 
HETATM    5  C6  UNL     1      21.916   1.398  51.749  1.00  0.00    -0.004 A 
HETATM    6  C7  UNL     1      20.807   0.601  52.061  1.00  0.00     0.048 A 
HETATM    7  C8  UNL     1      22.799   1.352  52.899  1.00  0.00     0.161 C 
HETATM    8  N1  UNL     1      23.960   2.202  52.828  1.00  0.00    -0.379 N 
HETATM    9  C9  UNL     1      24.644   2.610  51.641  1.00  0.00     0.129 A 
HETATM   10  C10 UNL     1      26.003   2.733  51.869  1.00  0.00     0.160 A 
HETATM   11  N3  UNL     1      26.781   3.107  50.849  1.00  0.00    -0.222 NA
HETATM   12  C17 UNL     1      26.389   3.384  49.602  1.00  0.00     0.238 A 
HETATM   13  N4  UNL     1      25.066   3.265  49.382  1.00  0.00    -0.215 NA
HETATM   14  C18 UNL     1      24.207   2.887  50.372  1.00  0.00     0.202 A 
HETATM   15  O2  UNL     1      22.872   2.815  49.982  1.00  0.00    -0.289 OA
HETATM   16  H9  UNL     1      24.444   2.622  53.678  1.00  0.00     0.160 HD
ENDROOT
BRANCH  10  17
HETATM   17  N2  UNL     1      26.583   2.463  53.154  1.00  0.00    -0.339 N 
HETATM   18  H10 UNL     1      26.499   2.975  54.067  1.00  0.00     0.167 HD
BRANCH  17  19
HETATM   19  C11 UNL     1      27.425   1.294  53.232  1.00  0.00     0.035 A 
HETATM   20  C12 UNL     1      28.731   1.405  53.661  1.00  0.00     0.032 A 
HETATM   21  C13 UNL     1      29.606   0.338  53.763  1.00  0.00     0.046 A 
HETATM   22  C14 UNL     1      29.145  -0.912  53.416  1.00  0.00     0.138 A 
HETATM   23  F1  UNL     1      30.000  -1.983  53.512  1.00  0.00    -0.204 F 
HETATM   24  C15 UNL     1      27.856  -1.052  52.987  1.00  0.00     0.074 A 
HETATM   25 CL1  UNL     1      27.361  -2.675  52.571  1.00  0.00    -0.081 Cl
HETATM   26  C16 UNL     1      27.013   0.022  52.896  1.00  0.00     0.056 A 
ENDBRANCH  17  19
ENDBRANCH  10  17
BRANCH   1  27
HETATM   27  O1  UNL     1      18.614  -0.298  51.280  1.00  0.00    -0.356 OA
HETATM   28  C1  UNL     1      17.779  -0.469  52.377  1.00  0.00     0.210 C 
ENDBRANCH   1  27
TORSDOF 3
ENDMDL
MODEL 2
REMARK VINA RESULT:      -8.8      2.797      4.420
REMARK  3 active torsions:
REMARK  status: ('A' for Active; 'I' for Inactive)
REMARK    1  A    between atoms: O1_2  and  C2_3 
REMARK    2  A    between atoms: C10_12  and  N2_13 
REMARK    3  A    between atoms: N2_13  and  C11_14 
ROOT
HETATM    1  C2  UNL     1      16.955   0.203  51.790  1.00  0.00     0.069 A 
HETATM    2  C3  UNL     1      16.756  -0.746  52.804  1.00  0.00     0.039 A 
HETATM    3  C4  UNL     1      17.835  -1.338  53.434  1.00  0.00     0.040 A 
HETATM    4  C5  UNL     1      19.082  -0.937  53.003  1.00  0.00     0.086 A 
HETATM    5  C6  UNL     1      19.365  -0.026  52.029  1.00  0.00    -0.004 A 
HETATM    6  C7  UNL     1      18.245   0.551  51.415  1.00  0.00     0.048 A 
HETATM    7  C8  UNL     1      20.533   0.561  51.399  1.00  0.00     0.161 C 
HETATM    8  N1  UNL     1      21.802   0.019  51.812  1.00  0.00    -0.379 N 
HETATM    9  C9  UNL     1      22.108  -0.553  53.086  1.00  0.00     0.129 A 
HETATM   10  C10 UNL     1      23.417  -0.288  53.448  1.00  0.00     0.160 A 
HETATM   11  N3  UNL     1      23.855  -0.757  54.619  1.00  0.00    -0.222 NA
HETATM   12  C17 UNL     1      23.156  -1.473  55.506  1.00  0.00     0.238 A 
HETATM   13  N4  UNL     1      21.884  -1.732  55.153  1.00  0.00    -0.215 NA
HETATM   14  C18 UNL     1      21.364  -1.287  53.973  1.00  0.00     0.202 A 
HETATM   15  O2  UNL     1      20.035  -1.642  53.756  1.00  0.00    -0.289 OA
HETATM   16  H9  UNL     1      22.669  -0.009  51.195  1.00  0.00     0.160 HD
ENDROOT
BRANCH  10  17
HETATM   17  N2  UNL     1      24.295   0.476  52.607  1.00  0.00    -0.339 N 
HETATM   18  H10 UNL     1      24.087   1.148  51.827  1.00  0.00     0.167 HD
BRANCH  17  19
HETATM   19  C11 UNL     1      25.706   0.315  52.859  1.00  0.00     0.035 A 
HETATM   20  C12 UNL     1      26.302  -0.920  52.712  1.00  0.00     0.032 A 
HETATM   21  C13 UNL     1      27.646  -1.162  52.935  1.00  0.00     0.046 A 
HETATM   22  C14 UNL     1      28.438  -0.107  53.328  1.00  0.00     0.138 A 
HETATM   23  F1  UNL     1      29.774  -0.329  53.554  1.00  0.00    -0.204 F 
HETATM   24  C15 UNL     1      27.874   1.128  53.483  1.00  0.00     0.074 A 
HETATM   25 CL1  UNL     1      28.957   2.405  53.982  1.00  0.00    -0.081 Cl
HETATM   26  C16 UNL     1      26.542   1.338  53.255  1.00  0.00     0.056 A 
ENDBRANCH  17  19
ENDBRANCH  10  17
BRANCH   1  27
HETATM   27  O1  UNL     1      15.753   0.648  51.321  1.00  0.00    -0.356 OA
HETATM   28  C1  UNL     1      14.525   0.732  51.963  1.00  0.00     0.210 C 
ENDBRANCH   1  27
TORSDOF 3
ENDMDL
MODEL 3
REMARK VINA RESULT:      -8.4      2.288      3.357
REMARK  3 active torsions:
REMARK  status: ('A' for Active; 'I' for Inactive)
REMARK    1  A    between atoms: O1_2  and  C2_3 
REMARK    2  A    between atoms: C10_12  and  N2_13 
REMARK    3  A    between atoms: N2_13  and  C11_14 
ROOT
HETATM    1  C2  UNL     1      17.433  -1.647  52.978  1.00  0.00     0.069 A 
HETATM    2  C3  UNL     1      17.276  -0.651  52.003  1.00  0.00     0.039 A 
HETATM    3  C4  UNL     1      18.310   0.220  51.717  1.00  0.00     0.040 A 
HETATM    4  C5  UNL     1      19.471   0.041  52.439  1.00  0.00     0.086 A 
HETATM    5  C6  UNL     1      19.708  -0.897  53.401  1.00  0.00    -0.004 A 
HETATM    6  C7  UNL     1      18.636  -1.760  53.662  1.00  0.00     0.048 A 
HETATM    7  C8  UNL     1      20.789  -1.295  54.284  1.00  0.00     0.161 C 
HETATM    8  N1  UNL     1      21.960  -0.458  54.253  1.00  0.00    -0.379 N 
HETATM    9  C9  UNL     1      22.429   0.307  53.140  1.00  0.00     0.129 A 
HETATM   10  C10 UNL     1      23.812   0.363  53.124  1.00  0.00     0.160 A 
HETATM   11  N3  UNL     1      24.403   1.044  52.139  1.00  0.00    -0.222 NA
HETATM   12  C17 UNL     1      23.799   1.695  51.140  1.00  0.00     0.238 A 
HETATM   13  N4  UNL     1      22.454   1.641  51.158  1.00  0.00    -0.215 NA
HETATM   14  C18 UNL     1      21.778   0.966  52.131  1.00  0.00     0.202 A 
HETATM   15  O2  UNL     1      20.391   1.010  52.007  1.00  0.00    -0.289 OA
HETATM   16  H9  UNL     1      22.617  -0.321  55.079  1.00  0.00     0.160 HD
ENDROOT
BRANCH  10  17
HETATM   17  N2  UNL     1      24.608  -0.293  54.123  1.00  0.00    -0.339 N 
HETATM   18  H10 UNL     1      24.331  -0.777  55.013  1.00  0.00     0.167 HD
BRANCH  17  19
HETATM   19  C11 UNL     1      26.031  -0.307  53.885  1.00  0.00     0.035 A 
HETATM   20  C12 UNL     1      26.604  -1.332  53.161  1.00  0.00     0.032 A 
HETATM   21  C13 UNL     1      27.957  -1.425  52.889  1.00  0.00     0.046 A 
HETATM   22  C14 UNL     1      28.783  -0.435  53.371  1.00  0.00     0.138 A 
HETATM   23  F1  UNL     1      30.130  -0.510  53.110  1.00  0.00    -0.204 F 
HETATM   24  C15 UNL     1      28.244   0.592  54.093  1.00  0.00     0.074 A 
HETATM   25 CL1  UNL     1      29.369   1.801  54.661  1.00  0.00    -0.081 Cl
HETATM   26  C16 UNL     1      26.901   0.658  54.346  1.00  0.00     0.056 A 
ENDBRANCH  17  19
ENDBRANCH  10  17
BRANCH   1  27
HETATM   27  O1  UNL     1      16.289  -2.384  53.087  1.00  0.00    -0.356 OA
HETATM   28  C1  UNL     1      16.049  -3.707  52.740  1.00  0.00     0.210 C 
ENDBRANCH   1  27
TORSDOF 3
ENDMDL
MODEL 4
REMARK VINA RESULT:      -8.4      3.552      6.589
REMARK  3 active torsions:
REMARK  status: ('A' for Active; 'I' for Inactive)
REMARK    1  A    between atoms: O1_2  and  C2_3 
REMARK    2  A    between atoms: C10_12  and  N2_13 
REMARK    3  A    between atoms: N2_13  and  C11_14 
ROOT
HETATM    1  C2  UNL     1      28.430   6.613  48.011  1.00  0.00     0.069 A 
HETATM    2  C3  UNL     1      27.571   7.689  48.277  1.00  0.00     0.039 A 
HETATM    3  C4  UNL     1      26.355   7.479  48.901  1.00  0.00     0.040 A 
HETATM    4  C5  UNL     1      26.061   6.173  49.231  1.00  0.00     0.086 A 
HETATM    5  C6  UNL     1      26.835   5.072  49.009  1.00  0.00    -0.004 A 
HETATM    6  C7  UNL     1      28.058   5.327  48.375  1.00  0.00     0.048 A 
HETATM    7  C8  UNL     1      26.776   3.641  49.241  1.00  0.00     0.161 C 
HETATM    8  N1  UNL     1      25.539   3.149  49.791  1.00  0.00    -0.379 N 
HETATM    9  C9  UNL     1      24.639   3.868  50.637  1.00  0.00     0.129 A 
HETATM   10  C10 UNL     1      24.034   3.023  51.550  1.00  0.00     0.160 A 
HETATM   11  N3  UNL     1      23.162   3.550  52.415  1.00  0.00    -0.222 NA
HETATM   12  C17 UNL     1      22.798   4.833  52.503  1.00  0.00     0.238 A 
HETATM   13  N4  UNL     1      23.387   5.653  51.613  1.00  0.00    -0.215 NA
HETATM   14  C18 UNL     1      24.286   5.191  50.699  1.00  0.00     0.202 A 
HETATM   15  O2  UNL     1      24.801   6.167  49.849  1.00  0.00    -0.289 OA
HETATM   16  H9  UNL     1      25.159   2.169  49.621  1.00  0.00     0.160 HD
ENDROOT
BRANCH  10  17
HETATM   17  N2  UNL     1      24.325   1.618  51.590  1.00  0.00    -0.339 N 
HETATM   18  H10 UNL     1      23.928   0.818  51.038  1.00  0.00     0.167 HD
BRANCH  17  19
HETATM   19  C11 UNL     1      25.334   1.210  52.537  1.00  0.00     0.035 A 
HETATM   20  C12 UNL     1      25.153   0.075  53.300  1.00  0.00     0.032 A 
HETATM   21  C13 UNL     1      26.067  -0.385  54.231  1.00  0.00     0.046 A 
HETATM   22  C14 UNL     1      27.227   0.333  54.409  1.00  0.00     0.138 A 
HETATM   23  F1  UNL     1      28.146  -0.109  55.330  1.00  0.00    -0.204 F 
HETATM   24  C15 UNL     1      27.433   1.463  53.669  1.00  0.00     0.074 A 
HETATM   25 CL1  UNL     1      28.934   2.308  53.963  1.00  0.00    -0.081 Cl
HETATM   26  C16 UNL     1      26.511   1.894  52.754  1.00  0.00     0.056 A 
ENDBRANCH  17  19
ENDBRANCH  10  17
BRANCH   1  27
HETATM   27  O1  UNL     1      29.565   7.058  47.396  1.00  0.00    -0.356 OA
HETATM   28  C1  UNL     1      30.657   7.732  47.928  1.00  0.00     0.210 C 
ENDBRANCH   1  27
TORSDOF 3
ENDMDL
MODEL 5
REMARK VINA RESULT:      -8.1      4.212      7.369
REMARK  3 active torsions:
REMARK  status: ('A' for Active; 'I' for Inactive)
REMARK    1  A    between atoms: O1_2  and  C2_3 
REMARK    2  A    between atoms: C10_12  and  N2_13 
REMARK    3  A    between atoms: N2_13  and  C11_14 
ROOT
HETATM    1  C2  UNL     1      28.418   6.375  48.128  1.00  0.00     0.069 A 
HETATM    2  C3  UNL     1      27.580   7.472  48.378  1.00  0.00     0.039 A 
HETATM    3  C4  UNL     1      26.356   7.294  48.995  1.00  0.00     0.040 A 
HETATM    4  C5  UNL     1      26.031   5.997  49.334  1.00  0.00     0.086 A 
HETATM    5  C6  UNL     1      26.783   4.878  49.128  1.00  0.00    -0.004 A 
HETATM    6  C7  UNL     1      28.016   5.101  48.501  1.00  0.00     0.048 A 
HETATM    7  C8  UNL     1      26.691   3.450  49.372  1.00  0.00     0.161 C 
HETATM    8  N1  UNL     1      25.440   2.990  49.916  1.00  0.00    -0.379 N 
HETATM    9  C9  UNL     1      24.550   3.736  50.749  1.00  0.00     0.129 A 
HETATM   10  C10 UNL     1      23.920   2.912  51.666  1.00  0.00     0.160 A 
HETATM   11  N3  UNL     1      23.054   3.465  52.519  1.00  0.00    -0.222 NA
HETATM   12  C17 UNL     1      22.717   4.756  52.594  1.00  0.00     0.238 A 
HETATM   13  N4  UNL     1      23.329   5.556  51.701  1.00  0.00    -0.215 NA
HETATM   14  C18 UNL     1      24.225   5.066  50.797  1.00  0.00     0.202 A 
HETATM   15  O2  UNL     1      24.766   6.024  49.943  1.00  0.00    -0.289 OA
HETATM   16  H9  UNL     1      25.040   2.017  49.753  1.00  0.00     0.160 HD
ENDROOT
BRANCH  10  17
HETATM   17  N2  UNL     1      24.181   1.501  51.720  1.00  0.00    -0.339 N 
HETATM   18  H10 UNL     1      24.989   0.937  51.355  1.00  0.00     0.167 HD
BRANCH  17  19
HETATM   19  C11 UNL     1      23.183   0.701  52.388  1.00  0.00     0.035 A 
HETATM   20  C12 UNL     1      23.532  -0.090  53.463  1.00  0.00     0.032 A 
HETATM   21  C13 UNL     1      22.640  -0.888  54.157  1.00  0.00     0.046 A 
HETATM   22  C14 UNL     1      21.325  -0.894  53.751  1.00  0.00     0.138 A 
HETATM   23  F1  UNL     1      20.426  -1.681  54.430  1.00  0.00    -0.204 F 
HETATM   24  C15 UNL     1      20.951  -0.122  52.689  1.00  0.00     0.074 A 
HETATM   25 CL1  UNL     1      19.262  -0.193  52.247  1.00  0.00    -0.081 Cl
HETATM   26  C16 UNL     1      21.855   0.659  52.020  1.00  0.00     0.056 A 
ENDBRANCH  17  19
ENDBRANCH  10  17
BRANCH   1  27
HETATM   27  O1  UNL     1      29.566   6.791  47.517  1.00  0.00    -0.356 OA
HETATM   28  C1  UNL     1      30.373   7.887  47.795  1.00  0.00     0.210 C 
ENDBRANCH   1  27
TORSDOF 3
ENDMDL
MODEL 6
REMARK VINA RESULT:      -8.1      2.589      4.807
REMARK  3 active torsions:
REMARK  status: ('A' for Active; 'I' for Inactive)
REMARK    1  A    between atoms: O1_2  and  C2_3 
REMARK    2  A    between atoms: C10_12  and  N2_13 
REMARK    3  A    between atoms: N2_13  and  C11_14 
ROOT
HETATM    1  C2  UNL     1      23.789   6.736  47.496  1.00  0.00     0.069 A 
HETATM    2  C3  UNL     1      22.658   5.946  47.243  1.00  0.00     0.039 A 
HETATM    3  C4  UNL     1      22.455   4.768  47.936  1.00  0.00     0.040 A 
HETATM    4  C5  UNL     1      23.418   4.438  48.866  1.00  0.00     0.086 A 
HETATM    5  C6  UNL     1      24.543   5.144  49.174  1.00  0.00    -0.004 A 
HETATM    6  C7  UNL     1      24.713   6.332  48.450  1.00  0.00     0.048 A 
HETATM    7  C8  UNL     1      25.680   5.037  50.070  1.00  0.00     0.161 C 
HETATM    8  N1  UNL     1      25.758   3.819  50.835  1.00  0.00    -0.379 N 
HETATM    9  C9  UNL     1      24.658   3.012  51.262  1.00  0.00     0.129 A 
HETATM   10  C10 UNL     1      24.916   2.433  52.492  1.00  0.00     0.160 A 
HETATM   11  N3  UNL     1      23.977   1.647  53.027  1.00  0.00    -0.222 NA
HETATM   12  C17 UNL     1      22.786   1.348  52.500  1.00  0.00     0.238 A 
HETATM   13  N4  UNL     1      22.537   1.911  51.302  1.00  0.00    -0.215 NA
HETATM   14  C18 UNL     1      23.445   2.724  50.691  1.00  0.00     0.202 A 
HETATM   15  O2  UNL     1      23.036   3.223  49.457  1.00  0.00    -0.289 OA
HETATM   16  H9  UNL     1      26.668   3.384  51.174  1.00  0.00     0.160 HD
ENDROOT
BRANCH  10  17
HETATM   17  N2  UNL     1      26.146   2.662  53.194  1.00  0.00    -0.339 N 
HETATM   18  H10 UNL     1      26.509   3.519  53.683  1.00  0.00     0.167 HD
BRANCH  17  19
HETATM   19  C11 UNL     1      27.054   1.543  53.258  1.00  0.00     0.035 A 
HETATM   20  C12 UNL     1      28.348   1.721  53.701  1.00  0.00     0.032 A 
HETATM   21  C13 UNL     1      29.282   0.705  53.791  1.00  0.00     0.046 A 
HETATM   22  C14 UNL     1      28.898  -0.562  53.416  1.00  0.00     0.138 A 
HETATM   23  F1  UNL     1      29.813  -1.584  53.499  1.00  0.00    -0.204 F 
HETATM   24  C15 UNL     1      27.623  -0.769  52.972  1.00  0.00     0.074 A 
HETATM   25 CL1  UNL     1      27.227  -2.409  52.519  1.00  0.00    -0.081 Cl
HETATM   26  C16 UNL     1      26.720   0.256  52.893  1.00  0.00     0.056 A 
ENDBRANCH  17  19
ENDBRANCH  10  17
BRANCH   1  27
HETATM   27  O1  UNL     1      23.776   7.845  46.701  1.00  0.00    -0.356 OA
HETATM   28  C1  UNL     1      24.674   8.903  46.638  1.00  0.00     0.210 C 
ENDBRANCH   1  27
TORSDOF 3
ENDMDL
MODEL 7
REMARK VINA RESULT:      -8.1      4.992      8.811
REMARK  3 active torsions:
REMARK  status: ('A' for Active; 'I' for Inactive)
REMARK    1  A    between atoms: O1_2  and  C2_3 
REMARK    2  A    between atoms: C10_12  and  N2_13 
REMARK    3  A    between atoms: N2_13  and  C11_14 
ROOT
HETATM    1  C2  UNL     1      26.377  -0.093  54.368  1.00  0.00     0.069 A 
HETATM    2  C3  UNL     1      26.460   0.667  53.192  1.00  0.00     0.039 A 
HETATM    3  C4  UNL     1      25.347   0.847  52.392  1.00  0.00     0.040 A 
HETATM    4  C5  UNL     1      24.186   0.242  52.824  1.00  0.00     0.086 A 
HETATM    5  C6  UNL     1      24.017  -0.511  53.949  1.00  0.00    -0.004 A 
HETATM    6  C7  UNL     1      25.168  -0.669  54.732  1.00  0.00     0.048 A 
HETATM    7  C8  UNL     1      22.954  -1.237  54.618  1.00  0.00     0.161 C 
HETATM    8  N1  UNL     1      21.699  -1.293  53.914  1.00  0.00    -0.379 N 
HETATM    9  C9  UNL     1      21.191  -0.317  53.001  1.00  0.00     0.129 A 
HETATM   10  C10 UNL     1      19.813  -0.228  53.085  1.00  0.00     0.160 A 
HETATM   11  N3  UNL     1      19.189   0.646  52.291  1.00  0.00    -0.222 NA
HETATM   12  C17 UNL     1      19.755   1.466  51.401  1.00  0.00     0.238 A 
HETATM   13  N4  UNL     1      21.096   1.378  51.320  1.00  0.00    -0.215 NA
HETATM   14  C18 UNL     1      21.805   0.510  52.097  1.00  0.00     0.202 A 
HETATM   15  O2  UNL     1      23.182   0.540  51.889  1.00  0.00    -0.289 OA
HETATM   16  H9  UNL     1      20.998  -2.089  54.007  1.00  0.00     0.160 HD
ENDROOT
BRANCH  10  17
HETATM   17  N2  UNL     1      19.056  -1.037  53.998  1.00  0.00    -0.339 N 
HETATM   18  H10 UNL     1      19.201  -1.240  55.019  1.00  0.00     0.167 HD
BRANCH  17  19
HETATM   19  C11 UNL     1      17.893  -1.689  53.448  1.00  0.00     0.035 A 
HETATM   20  C12 UNL     1      17.667  -3.029  53.690  1.00  0.00     0.032 A 
HETATM   21  C13 UNL     1      16.581  -3.731  53.199  1.00  0.00     0.046 A 
HETATM   22  C14 UNL     1      15.670  -3.053  52.422  1.00  0.00     0.138 A 
HETATM   23  F1  UNL     1      14.585  -3.735  51.927  1.00  0.00    -0.204 F 
HETATM   24  C15 UNL     1      15.868  -1.727  52.164  1.00  0.00     0.074 A 
HETATM   25 CL1  UNL     1      14.659  -0.951  51.170  1.00  0.00    -0.081 Cl
HETATM   26  C16 UNL     1      16.952  -1.057  52.663  1.00  0.00     0.056 A 
ENDBRANCH  17  19
ENDBRANCH  10  17
BRANCH   1  27
HETATM   27  O1  UNL     1      27.591  -0.130  54.991  1.00  0.00    -0.356 OA
HETATM   28  C1  UNL     1      28.810   0.403  54.592  1.00  0.00     0.210 C 
ENDBRANCH   1  27
TORSDOF 3
ENDMDL
MODEL 8
REMARK VINA RESULT:      -8.1      4.743      6.079
REMARK  3 active torsions:
REMARK  status: ('A' for Active; 'I' for Inactive)
REMARK    1  A    between atoms: O1_2  and  C2_3 
REMARK    2  A    between atoms: C10_12  and  N2_13 
REMARK    3  A    between atoms: N2_13  and  C11_14 
ROOT
HETATM    1  C2  UNL     1      22.187   0.344  52.954  1.00  0.00     0.069 A 
HETATM    2  C3  UNL     1      20.879   0.578  52.504  1.00  0.00     0.039 A 
HETATM    3  C4  UNL     1      20.485   1.846  52.121  1.00  0.00     0.040 A 
HETATM    4  C5  UNL     1      21.444   2.832  52.212  1.00  0.00     0.086 A 
HETATM    5  C6  UNL     1      22.733   2.693  52.637  1.00  0.00    -0.004 A 
HETATM    6  C7  UNL     1      23.093   1.393  53.016  1.00  0.00     0.048 A 
HETATM    7  C8  UNL     1      23.907   3.523  52.827  1.00  0.00     0.161 C 
HETATM    8  N1  UNL     1      23.719   4.932  52.596  1.00  0.00    -0.379 N 
HETATM    9  C9  UNL     1      22.778   5.529  51.700  1.00  0.00     0.129 A 
HETATM   10  C10 UNL     1      23.289   6.689  51.145  1.00  0.00     0.160 A 
HETATM   11  N3  UNL     1      22.524   7.363  50.282  1.00  0.00    -0.222 NA
HETATM   12  C17 UNL     1      21.291   7.039  49.881  1.00  0.00     0.238 A 
HETATM   13  N4  UNL     1      20.795   5.911  50.423  1.00  0.00    -0.215 NA
HETATM   14  C18 UNL     1      21.514   5.168  51.312  1.00  0.00     0.202 A 
HETATM   15  O2  UNL     1      20.857   4.033  51.782  1.00  0.00    -0.289 OA
HETATM   16  H9  UNL     1      24.279   5.696  53.081  1.00  0.00     0.160 HD
ENDROOT
BRANCH  10  17
HETATM   17  N2  UNL     1      24.603   7.168  51.467  1.00  0.00    -0.339 N 
HETATM   18  H10 UNL     1      24.985   7.586  52.352  1.00  0.00     0.167 HD
BRANCH  17  19
HETATM   19  C11 UNL     1      25.586   7.065  50.416  1.00  0.00     0.035 A 
HETATM   20  C12 UNL     1      25.736   5.884  49.718  1.00  0.00     0.032 A 
HETATM   21  C13 UNL     1      26.654   5.699  48.699  1.00  0.00     0.046 A 
HETATM   22  C14 UNL     1      27.468   6.757  48.361  1.00  0.00     0.138 A 
HETATM   23  F1  UNL     1      28.385   6.591  47.351  1.00  0.00    -0.204 F 
HETATM   24  C15 UNL     1      27.342   7.937  49.036  1.00  0.00     0.074 A 
HETATM   25 CL1  UNL     1      28.416   9.222  48.536  1.00  0.00    -0.081 Cl
HETATM   26  C16 UNL     1      26.425   8.092  50.039  1.00  0.00     0.056 A 
ENDBRANCH  17  19
ENDBRANCH  10  17
BRANCH   1  27
HETATM   27  O1  UNL     1      22.345  -0.974  53.273  1.00  0.00    -0.356 OA
HETATM   28  C1  UNL     1      21.626  -1.765  54.159  1.00  0.00     0.210 C 
ENDBRANCH   1  27
TORSDOF 3
ENDMDL
MODEL 9
REMARK VINA RESULT:      -8.0      4.241      7.082
REMARK  3 active torsions:
REMARK  status: ('A' for Active; 'I' for Inactive)
REMARK    1  A    between atoms: O1_2  and  C2_3 
REMARK    2  A    between atoms: C10_12  and  N2_13 
REMARK    3  A    between atoms: N2_13  and  C11_14 
ROOT
HETATM    1  C2  UNL     1      27.477  -0.299  53.868  1.00  0.00     0.069 A 
HETATM    2  C3  UNL     1      26.559  -1.260  53.419  1.00  0.00     0.039 A 
HETATM    3  C4  UNL     1      25.294  -0.883  53.008  1.00  0.00     0.040 A 
HETATM    4  C5  UNL     1      25.013   0.465  53.071  1.00  0.00     0.086 A 
HETATM    5  C6  UNL     1      25.842   1.462  53.493  1.00  0.00    -0.004 A 
HETATM    6  C7  UNL     1      27.115   1.040  53.901  1.00  0.00     0.048 A 
HETATM    7  C8  UNL     1      25.809   2.903  53.657  1.00  0.00     0.161 C 
HETATM    8  N1  UNL     1      24.540   3.532  53.395  1.00  0.00    -0.379 N 
HETATM    9  C9  UNL     1      23.534   3.070  52.489  1.00  0.00     0.129 A 
HETATM   10  C10 UNL     1      22.868   4.133  51.904  1.00  0.00     0.160 A 
HETATM   11  N3  UNL     1      21.896   3.862  51.029  1.00  0.00    -0.222 NA
HETATM   12  C17 UNL     1      21.481   2.651  50.642  1.00  0.00     0.238 A 
HETATM   13  N4  UNL     1      22.129   1.619  51.213  1.00  0.00    -0.215 NA
HETATM   14  C18 UNL     1      23.132   1.814  52.116  1.00  0.00     0.202 A 
HETATM   15  O2  UNL     1      23.697   0.643  52.616  1.00  0.00    -0.289 OA
HETATM   16  H9  UNL     1      24.212   4.432  53.858  1.00  0.00     0.160 HD
ENDROOT
BRANCH  10  17
HETATM   17  N2  UNL     1      23.202   5.495  52.208  1.00  0.00    -0.339 N 
HETATM   18  H10 UNL     1      22.984   6.085  53.050  1.00  0.00     0.167 HD
BRANCH  17  19
HETATM   19  C11 UNL     1      23.970   6.195  51.207  1.00  0.00     0.035 A 
HETATM   20  C12 UNL     1      23.690   7.513  50.911  1.00  0.00     0.032 A 
HETATM   21  C13 UNL     1      24.374   8.256  49.966  1.00  0.00     0.046 A 
HETATM   22  C14 UNL     1      25.396   7.643  49.276  1.00  0.00     0.138 A 
HETATM   23  F1  UNL     1      26.086   8.365  48.334  1.00  0.00    -0.204 F 
HETATM   24  C15 UNL     1      25.694   6.338  49.547  1.00  0.00     0.074 A 
HETATM   25 CL1  UNL     1      27.007   5.646  48.624  1.00  0.00    -0.081 Cl
HETATM   26  C16 UNL     1      25.001   5.627  50.488  1.00  0.00     0.056 A 
ENDBRANCH  17  19
ENDBRANCH  10  17
BRANCH   1  27
HETATM   27  O1  UNL     1      28.653  -0.899  54.217  1.00  0.00    -0.356 OA
HETATM   28  C1  UNL     1      29.801  -1.108  53.464  1.00  0.00     0.210 C 
ENDBRANCH   1  27
TORSDOF 3
ENDMDL
