MODEL 1
REMARK VINA RESULT:      -7.5      0.000      0.000
REMARK  6 active torsions:
REMARK  status: ('A' for Active; 'I' for Inactive)
REMARK    1  A    between atoms: O1_2  and  C2_3 
REMARK    2  A    between atoms: C2_3  and  C3_4 
REMARK    3  A    between atoms: C3_4  and  N1_6 
REMARK    4  A    between atoms: N1_6  and  C5_7 
REMARK    5  A    between atoms: N2_11  and  C9_12 
REMARK    6  A    between atoms: N3_19  and  C14_20 
ROOT
HETATM    1  C5  UNL     1      21.806   0.176  53.738  1.00  0.00     0.012 C 
HETATM    2  C6  UNL     1      21.849  -0.648  54.770  1.00  0.00     0.026 C 
HETATM    3  C7  UNL     1      23.017  -1.339  55.307  1.00  0.00     0.020 C 
HETATM    4  C8  UNL     1      24.312  -1.155  55.034  1.00  0.00     0.099 C 
HETATM    5  N2  UNL     1      24.857  -0.195  54.111  1.00  0.00    -0.307 N 
HETATM    6  C13 UNL     1      24.180   0.802  53.320  1.00  0.00     0.117 C 
HETATM    7  N3  UNL     1      24.948   1.840  53.117  1.00  0.00    -0.228 NA
HETATM    8  C15 UNL     1      22.820   0.680  52.808  1.00  0.00     0.135 C 
ENDROOT
BRANCH   1   9
HETATM    9  N1  UNL     1      20.478   0.675  53.487  1.00  0.00    -0.387 N 
HETATM   10  H10 UNL     1      19.919   0.900  54.364  1.00  0.00     0.159 HD
BRANCH   9  11
HETATM   11  C3  UNL     1      19.973   0.844  52.110  1.00  0.00     0.101 C 
HETATM   12  C4  UNL     1      18.847  -0.186  51.987  1.00  0.00     0.034 C 
BRANCH  11  13
HETATM   13  C2  UNL     1      19.459   2.246  51.983  1.00  0.00     0.191 C 
BRANCH  13  14
HETATM   14  O1  UNL     1      20.108   3.225  52.652  1.00  0.00    -0.394 OA
HETATM   15  C1  UNL     1      20.975   4.041  51.999  1.00  0.00     0.201 C 
ENDBRANCH  13  14
ENDBRANCH  11  13
ENDBRANCH   9  11
ENDBRANCH   1   9
BRANCH   5  16
HETATM   16  C9  UNL     1      26.287  -0.283  53.995  1.00  0.00     0.082 A 
HETATM   17  C10 UNL     1      26.945  -1.008  53.095  1.00  0.00     0.165 A 
HETATM   18  F1  UNL     1      26.527  -1.821  52.091  1.00  0.00    -0.202 F 
HETATM   19  C11 UNL     1      28.210  -0.548  53.660  1.00  0.00     0.077 A 
HETATM   20 CL1  UNL     1      29.879  -0.838  53.294  1.00  0.00    -0.081 Cl
HETATM   21  C12 UNL     1      27.545   0.163  54.542  1.00  0.00     0.060 A 
ENDBRANCH   5  16
BRANCH   7  22
HETATM   22  C14 UNL     1      24.439   2.909  52.360  1.00  0.00     0.225 C 
HETATM   23  N4  UNL     1      24.525   3.805  53.300  1.00  0.00    -0.293 NA
HETATM   24  H16 UNL     1      24.211   4.768  53.064  1.00  0.00     0.187 HD
ENDBRANCH   7  22
TORSDOF 6
ENDMDL
MODEL 2
REMARK VINA RESULT:      -7.0      3.812      6.977
REMARK  6 active torsions:
REMARK  status: ('A' for Active; 'I' for Inactive)
REMARK    1  A    between atoms: O1_2  and  C2_3 
REMARK    2  A    between atoms: C2_3  and  C3_4 
REMARK    3  A    between atoms: C3_4  and  N1_6 
REMARK    4  A    between atoms: N1_6  and  C5_7 
REMARK    5  A    between atoms: N2_11  and  C9_12 
REMARK    6  A    between atoms: N3_19  and  C14_20 
ROOT
HETATM    1  C5  UNL     1      25.148   1.792  53.552  1.00  0.00     0.012 C 
HETATM    2  C6  UNL     1      24.903   3.018  53.127  1.00  0.00     0.026 C 
HETATM    3  C7  UNL     1      23.744   3.481  52.371  1.00  0.00     0.020 C 
HETATM    4  C8  UNL     1      22.593   2.853  52.113  1.00  0.00     0.099 C 
HETATM    5  N2  UNL     1      22.233   1.528  52.544  1.00  0.00    -0.307 N 
HETATM    6  C13 UNL     1      22.968   0.602  53.369  1.00  0.00     0.117 C 
HETATM    7  N3  UNL     1      22.157  -0.167  54.047  1.00  0.00    -0.228 NA
HETATM    8  C15 UNL     1      24.423   0.523  53.445  1.00  0.00     0.135 C 
ENDROOT
BRANCH   1   9
HETATM    9  N1  UNL     1      26.395   1.697  54.270  1.00  0.00    -0.387 N 
HETATM   10  H10 UNL     1      26.345   2.020  55.283  1.00  0.00     0.159 HD
BRANCH   9  11
HETATM   11  C3  UNL     1      27.616   1.190  53.614  1.00  0.00     0.101 C 
HETATM   12  C4  UNL     1      28.565   2.391  53.592  1.00  0.00     0.034 C 
BRANCH  11  13
HETATM   13  C2  UNL     1      28.154   0.073  54.457  1.00  0.00     0.191 C 
BRANCH  13  14
HETATM   14  O1  UNL     1      28.256  -1.154  53.899  1.00  0.00    -0.394 OA
HETATM   15  C1  UNL     1      27.459  -1.500  52.855  1.00  0.00     0.201 C 
ENDBRANCH  13  14
ENDBRANCH  11  13
ENDBRANCH   9  11
ENDBRANCH   1   9
BRANCH   5  16
HETATM   16  C9  UNL     1      20.947   1.113  52.055  1.00  0.00     0.082 A 
HETATM   17  C10 UNL     1      20.709   0.597  50.852  1.00  0.00     0.165 A 
HETATM   18  F1  UNL     1      21.518   0.320  49.798  1.00  0.00    -0.202 F 
HETATM   19  C11 UNL     1      19.292   0.486  51.189  1.00  0.00     0.077 A 
HETATM   20 CL1  UNL     1      17.888  -0.087  50.351  1.00  0.00    -0.081 Cl
HETATM   21  C12 UNL     1      19.544   0.997  52.373  1.00  0.00     0.060 A 
ENDBRANCH   5  16
BRANCH   7  22
HETATM   22  C14 UNL     1      22.713  -1.130  54.905  1.00  0.00     0.225 C 
HETATM   23  N4  UNL     1      21.665  -1.902  54.954  1.00  0.00    -0.293 NA
HETATM   24  H16 UNL     1      21.738  -2.760  55.538  1.00  0.00     0.187 HD
ENDBRANCH   7  22
TORSDOF 6
ENDMDL
MODEL 3
REMARK VINA RESULT:      -6.7      1.869      2.473
REMARK  6 active torsions:
REMARK  status: ('A' for Active; 'I' for Inactive)
REMARK    1  A    between atoms: O1_2  and  C2_3 
REMARK    2  A    between atoms: C2_3  and  C3_4 
REMARK    3  A    between atoms: C3_4  and  N1_6 
REMARK    4  A    between atoms: N1_6  and  C5_7 
REMARK    5  A    between atoms: N2_11  and  C9_12 
REMARK    6  A    between atoms: N3_19  and  C14_20 
ROOT
HETATM    1  C5  UNL     1      22.093   1.449  51.985  1.00  0.00     0.012 C 
HETATM    2  C6  UNL     1      21.751   0.743  53.048  1.00  0.00     0.026 C 
HETATM    3  C7  UNL     1      22.582  -0.196  53.795  1.00  0.00     0.020 C 
HETATM    4  C8  UNL     1      23.899  -0.408  53.722  1.00  0.00     0.099 C 
HETATM    5  N2  UNL     1      24.822   0.272  52.853  1.00  0.00    -0.307 N 
HETATM    6  C13 UNL     1      24.581   1.343  51.919  1.00  0.00     0.117 C 
HETATM    7  N3  UNL     1      25.638   2.101  51.792  1.00  0.00    -0.228 NA
HETATM    8  C15 UNL     1      23.328   1.562  51.204  1.00  0.00     0.135 C 
ENDROOT
BRANCH   1   9
HETATM    9  N1  UNL     1      21.016   2.277  51.504  1.00  0.00    -0.387 N 
HETATM   10  H10 UNL     1      21.330   3.157  50.994  1.00  0.00     0.159 HD
BRANCH   9  11
HETATM   11  C3  UNL     1      19.606   1.899  51.724  1.00  0.00     0.101 C 
HETATM   12  C4  UNL     1      18.834   3.216  51.613  1.00  0.00     0.034 C 
BRANCH  11  13
HETATM   13  C2  UNL     1      19.219   0.937  50.642  1.00  0.00     0.191 C 
BRANCH  13  14
HETATM   14  O1  UNL     1      18.444  -0.119  50.975  1.00  0.00    -0.394 OA
HETATM   15  C1  UNL     1      18.257  -0.446  52.280  1.00  0.00     0.201 C 
ENDBRANCH  13  14
ENDBRANCH  11  13
ENDBRANCH   9  11
ENDBRANCH   1   9
BRANCH   5  16
HETATM   16  C9  UNL     1      26.166  -0.223  52.969  1.00  0.00     0.082 A 
HETATM   17  C10 UNL     1      26.958  -0.066  54.027  1.00  0.00     0.165 A 
HETATM   18  F1  UNL     1      26.776   0.550  55.223  1.00  0.00    -0.202 F 
HETATM   19  C11 UNL     1      28.011  -0.806  53.338  1.00  0.00     0.077 A 
HETATM   20 CL1  UNL     1      29.627  -1.279  53.748  1.00  0.00    -0.081 Cl
HETATM   21  C12 UNL     1      27.217  -0.953  52.302  1.00  0.00     0.060 A 
ENDBRANCH   5  16
BRANCH   7  22
HETATM   22  C14 UNL     1      25.572   3.197  50.915  1.00  0.00     0.225 C 
HETATM   23  N4  UNL     1      26.857   3.378  50.812  1.00  0.00    -0.293 NA
HETATM   24  H16 UNL     1      27.177   4.157  50.201  1.00  0.00     0.187 HD
ENDBRANCH   7  22
TORSDOF 6
ENDMDL
MODEL 4
REMARK VINA RESULT:      -6.4      4.217      6.877
REMARK  6 active torsions:
REMARK  status: ('A' for Active; 'I' for Inactive)
REMARK    1  A    between atoms: O1_2  and  C2_3 
REMARK    2  A    between atoms: C2_3  and  C3_4 
REMARK    3  A    between atoms: C3_4  and  N1_6 
REMARK    4  A    between atoms: N1_6  and  C5_7 
REMARK    5  A    between atoms: N2_11  and  C9_12 
REMARK    6  A    between atoms: N3_19  and  C14_20 
ROOT
HETATM    1  C5  UNL     1      25.414   1.234  53.809  1.00  0.00     0.012 C 
HETATM    2  C6  UNL     1      25.027  -0.014  54.008  1.00  0.00     0.026 C 
HETATM    3  C7  UNL     1      23.801  -0.649  53.536  1.00  0.00     0.020 C 
HETATM    4  C8  UNL     1      22.905  -0.210  52.648  1.00  0.00     0.099 C 
HETATM    5  N2  UNL     1      22.957   1.039  51.935  1.00  0.00    -0.307 N 
HETATM    6  C13 UNL     1      23.970   2.064  51.958  1.00  0.00     0.117 C 
HETATM    7  N3  UNL     1      24.028   2.691  50.812  1.00  0.00    -0.228 NA
HETATM    8  C15 UNL     1      24.823   2.372  53.101  1.00  0.00     0.135 C 
ENDROOT
BRANCH   1   9
HETATM    9  N1  UNL     1      26.686   1.521  54.424  1.00  0.00    -0.387 N 
HETATM   10  H10 UNL     1      26.619   2.007  55.367  1.00  0.00     0.159 HD
BRANCH   9  11
HETATM   11  C3  UNL     1      27.953   1.153  53.762  1.00  0.00     0.101 C 
HETATM   12  C4  UNL     1      28.712   2.476  53.627  1.00  0.00     0.034 C 
BRANCH  11  13
HETATM   13  C2  UNL     1      28.672   0.191  54.658  1.00  0.00     0.191 C 
BRANCH  13  14
HETATM   14  O1  UNL     1      29.666  -0.554  54.126  1.00  0.00    -0.394 OA
HETATM   15  C1  UNL     1      29.376  -1.654  53.384  1.00  0.00     0.201 C 
ENDBRANCH  13  14
ENDBRANCH  11  13
ENDBRANCH   9  11
ENDBRANCH   1   9
BRANCH   5  16
HETATM   16  C9  UNL     1      21.812   1.249  51.092  1.00  0.00     0.082 A 
HETATM   17  C10 UNL     1      20.708   1.904  51.439  1.00  0.00     0.165 A 
HETATM   18  F1  UNL     1      20.337   2.529  52.586  1.00  0.00    -0.202 F 
HETATM   19  C11 UNL     1      20.149   1.648  50.116  1.00  0.00     0.077 A 
HETATM   20 CL1  UNL     1      18.654   2.045  49.333  1.00  0.00    -0.081 Cl
HETATM   21  C12 UNL     1      21.246   1.004  49.788  1.00  0.00     0.060 A 
ENDBRANCH   5  16
BRANCH   7  22
HETATM   22  C14 UNL     1      24.967   3.726  50.664  1.00  0.00     0.225 C 
HETATM   23  N4  UNL     1      25.546   3.245  49.602  1.00  0.00    -0.293 NA
HETATM   24  H16 UNL     1      26.334   3.795  49.204  1.00  0.00     0.187 HD
ENDBRANCH   7  22
TORSDOF 6
ENDMDL
MODEL 5
REMARK VINA RESULT:      -6.3      4.617      7.083
REMARK  6 active torsions:
REMARK  status: ('A' for Active; 'I' for Inactive)
REMARK    1  A    between atoms: O1_2  and  C2_3 
REMARK    2  A    between atoms: C2_3  and  C3_4 
REMARK    3  A    between atoms: C3_4  and  N1_6 
REMARK    4  A    between atoms: N1_6  and  C5_7 
REMARK    5  A    between atoms: N2_11  and  C9_12 
REMARK    6  A    between atoms: N3_19  and  C14_20 
ROOT
HETATM    1  C5  UNL     1      25.604   1.314  51.905  1.00  0.00     0.012 C 
HETATM    2  C6  UNL     1      24.374   0.991  52.262  1.00  0.00     0.026 C 
HETATM    3  C7  UNL     1      23.214   1.872  52.350  1.00  0.00     0.020 C 
HETATM    4  C8  UNL     1      23.064   3.124  51.909  1.00  0.00     0.099 C 
HETATM    5  N2  UNL     1      24.056   3.907  51.223  1.00  0.00    -0.307 N 
HETATM    6  C13 UNL     1      25.388   3.540  50.810  1.00  0.00     0.117 C 
HETATM    7  N3  UNL     1      25.743   4.196  49.735  1.00  0.00    -0.228 NA
HETATM    8  C15 UNL     1      26.237   2.569  51.492  1.00  0.00     0.135 C 
ENDROOT
BRANCH   1   9
HETATM    9  N1  UNL     1      26.500   0.185  51.932  1.00  0.00    -0.387 N 
HETATM   10  H10 UNL     1      27.080   0.062  51.049  1.00  0.00     0.159 HD
BRANCH   9  11
HETATM   11  C3  UNL     1      26.573  -0.702  53.110  1.00  0.00     0.101 C 
HETATM   12  C4  UNL     1      27.079  -2.036  52.552  1.00  0.00     0.034 C 
BRANCH  11  13
HETATM   13  C2  UNL     1      27.549  -0.098  54.074  1.00  0.00     0.191 C 
BRANCH  13  14
HETATM   14  O1  UNL     1      28.649   0.506  53.571  1.00  0.00    -0.394 OA
HETATM   15  C1  UNL     1      28.968   1.771  53.947  1.00  0.00     0.201 C 
ENDBRANCH  13  14
ENDBRANCH  11  13
ENDBRANCH   9  11
ENDBRANCH   1   9
BRANCH   5  16
HETATM   16  C9  UNL     1      23.609   5.241  50.929  1.00  0.00     0.082 A 
HETATM   17  C10 UNL     1      22.568   5.554  50.162  1.00  0.00     0.165 A 
HETATM   18  F1  UNL     1      21.676   4.796  49.475  1.00  0.00    -0.202 F 
HETATM   19  C11 UNL     1      22.832   6.971  50.398  1.00  0.00     0.077 A 
HETATM   20 CL1  UNL     1      22.081   8.446  49.881  1.00  0.00    -0.081 Cl
HETATM   21  C12 UNL     1      23.856   6.645  51.152  1.00  0.00     0.060 A 
ENDBRANCH   5  16
BRANCH   7  22
HETATM   22  C14 UNL     1      27.018   3.954  49.198  1.00  0.00     0.225 C 
HETATM   23  N4  UNL     1      27.453   5.177  49.303  1.00  0.00    -0.293 NA
HETATM   24  H16 UNL     1      28.422   5.363  48.975  1.00  0.00     0.187 HD
ENDBRANCH   7  22
TORSDOF 6
ENDMDL
MODEL 6
REMARK VINA RESULT:      -6.1      7.991      9.965
REMARK  6 active torsions:
REMARK  status: ('A' for Active; 'I' for Inactive)
REMARK    1  A    between atoms: O1_2  and  C2_3 
REMARK    2  A    between atoms: C2_3  and  C3_4 
REMARK    3  A    between atoms: C3_4  and  N1_6 
REMARK    4  A    between atoms: N1_6  and  C5_7 
REMARK    5  A    between atoms: N2_11  and  C9_12 
REMARK    6  A    between atoms: N3_19  and  C14_20 
ROOT
HETATM    1  C5  UNL     1      27.184   5.887  48.650  1.00  0.00     0.012 C 
HETATM    2  C6  UNL     1      28.160   5.014  48.473  1.00  0.00     0.026 C 
HETATM    3  C7  UNL     1      29.512   5.278  47.994  1.00  0.00     0.020 C 
HETATM    4  C8  UNL     1      30.140   6.445  47.823  1.00  0.00     0.099 C 
HETATM    5  N2  UNL     1      29.592   7.750  48.084  1.00  0.00    -0.307 N 
HETATM    6  C13 UNL     1      28.305   8.111  48.622  1.00  0.00     0.117 C 
HETATM    7  N3  UNL     1      28.373   9.236  49.286  1.00  0.00    -0.228 NA
HETATM    8  C15 UNL     1      27.081   7.336  48.454  1.00  0.00     0.135 C 
ENDROOT
BRANCH   1   9
HETATM    9  N1  UNL     1      25.975   5.272  49.137  1.00  0.00    -0.387 N 
HETATM   10  H10 UNL     1      26.060   4.230  49.334  1.00  0.00     0.159 HD
BRANCH   9  11
HETATM   11  C3  UNL     1      24.743   6.060  49.331  1.00  0.00     0.101 C 
HETATM   12  C4  UNL     1      23.681   5.318  48.515  1.00  0.00     0.034 C 
BRANCH  11  13
HETATM   13  C2  UNL     1      24.423   6.050  50.796  1.00  0.00     0.191 C 
BRANCH  13  14
HETATM   14  O1  UNL     1      24.024   4.885  51.352  1.00  0.00    -0.394 OA
HETATM   15  C1  UNL     1      22.991   4.864  52.233  1.00  0.00     0.201 C 
ENDBRANCH  13  14
ENDBRANCH  11  13
ENDBRANCH   9  11
ENDBRANCH   1   9
BRANCH   5  16
HETATM   16  C9  UNL     1      30.497   8.813  47.744  1.00  0.00     0.082 A 
HETATM   17  C10 UNL     1      31.690   9.017  48.296  1.00  0.00     0.165 A 
HETATM   18  F1  UNL     1      32.376   8.358  49.264  1.00  0.00    -0.202 F 
HETATM   19  C11 UNL     1      31.878  10.183  47.437  1.00  0.00     0.077 A 
HETATM   20 CL1  UNL     1      33.147  11.347  47.234  1.00  0.00    -0.081 Cl
HETATM   21  C12 UNL     1      30.698   9.967  46.902  1.00  0.00     0.060 A 
ENDBRANCH   5  16
BRANCH   7  22
HETATM   22  C14 UNL     1      27.200   9.733  49.878  1.00  0.00     0.225 C 
HETATM   23  N4  UNL     1      27.582   9.573  51.113  1.00  0.00    -0.293 NA
HETATM   24  H16 UNL     1      26.911   9.857  51.855  1.00  0.00     0.187 HD
ENDBRANCH   7  22
TORSDOF 6
ENDMDL
MODEL 7
REMARK VINA RESULT:      -6.1      2.441      4.078
REMARK  6 active torsions:
REMARK  status: ('A' for Active; 'I' for Inactive)
REMARK    1  A    between atoms: O1_2  and  C2_3 
REMARK    2  A    between atoms: C2_3  and  C3_4 
REMARK    3  A    between atoms: C3_4  and  N1_6 
REMARK    4  A    between atoms: N1_6  and  C5_7 
REMARK    5  A    between atoms: N2_11  and  C9_12 
REMARK    6  A    between atoms: N3_19  and  C14_20 
ROOT
HETATM    1  C5  UNL     1      23.417   3.687  51.090  1.00  0.00     0.012 C 
HETATM    2  C6  UNL     1      24.262   3.988  50.119  1.00  0.00     0.026 C 
HETATM    3  C7  UNL     1      25.660   3.585  50.002  1.00  0.00     0.020 C 
HETATM    4  C8  UNL     1      26.344   2.678  50.705  1.00  0.00     0.099 C 
HETATM    5  N2  UNL     1      25.828   1.869  51.778  1.00  0.00    -0.307 N 
HETATM    6  C13 UNL     1      24.489   1.798  52.308  1.00  0.00     0.117 C 
HETATM    7  N3  UNL     1      24.236   0.605  52.783  1.00  0.00    -0.228 NA
HETATM    8  C15 UNL     1      23.535   2.901  52.321  1.00  0.00     0.135 C 
ENDROOT
BRANCH   1   9
HETATM    9  N1  UNL     1      22.111   4.259  50.880  1.00  0.00    -0.387 N 
HETATM   10  H10 UNL     1      22.075   5.318  50.968  1.00  0.00     0.159 HD
BRANCH   9  11
HETATM   11  C3  UNL     1      20.946   3.406  50.572  1.00  0.00     0.101 C 
HETATM   12  C4  UNL     1      19.815   3.981  51.429  1.00  0.00     0.034 C 
BRANCH  11  13
HETATM   13  C2  UNL     1      20.657   3.544  49.108  1.00  0.00     0.191 C 
BRANCH  13  14
HETATM   14  O1  UNL     1      21.091   2.568  48.279  1.00  0.00    -0.394 OA
HETATM   15  C1  UNL     1      21.389   1.337  48.767  1.00  0.00     0.201 C 
ENDBRANCH  13  14
ENDBRANCH  11  13
ENDBRANCH   9  11
ENDBRANCH   1   9
BRANCH   5  16
HETATM   16  C9  UNL     1      26.829   1.030  52.375  1.00  0.00     0.082 A 
HETATM   17  C10 UNL     1      27.867   1.456  53.090  1.00  0.00     0.165 A 
HETATM   18  F1  UNL     1      28.281   2.696  53.455  1.00  0.00    -0.202 F 
HETATM   19  C11 UNL     1      28.300   0.073  53.270  1.00  0.00     0.077 A 
HETATM   20 CL1  UNL     1      29.627  -0.685  54.088  1.00  0.00    -0.081 Cl
HETATM   21  C12 UNL     1      27.270  -0.331  52.563  1.00  0.00     0.060 A 
ENDBRANCH   5  16
BRANCH   7  22
HETATM   22  C14 UNL     1      22.969   0.364  53.339  1.00  0.00     0.225 C 
HETATM   23  N4  UNL     1      23.009  -0.933  53.232  1.00  0.00    -0.293 NA
HETATM   24  H16 UNL     1      22.179  -1.460  53.571  1.00  0.00     0.187 HD
ENDBRANCH   7  22
TORSDOF 6
ENDMDL
MODEL 8
REMARK VINA RESULT:      -6.1      3.417      4.352
REMARK  6 active torsions:
REMARK  status: ('A' for Active; 'I' for Inactive)
REMARK    1  A    between atoms: O1_2  and  C2_3 
REMARK    2  A    between atoms: C2_3  and  C3_4 
REMARK    3  A    between atoms: C3_4  and  N1_6 
REMARK    4  A    between atoms: N1_6  and  C5_7 
REMARK    5  A    between atoms: N2_11  and  C9_12 
REMARK    6  A    between atoms: N3_19  and  C14_20 
ROOT
HETATM    1  C5  UNL     1      23.175   3.421  50.329  1.00  0.00     0.012 C 
HETATM    2  C6  UNL     1      22.647   3.343  51.538  1.00  0.00     0.026 C 
HETATM    3  C7  UNL     1      23.257   2.781  52.738  1.00  0.00     0.020 C 
HETATM    4  C8  UNL     1      24.523   2.414  52.955  1.00  0.00     0.099 C 
HETATM    5  N2  UNL     1      25.605   2.496  52.009  1.00  0.00    -0.307 N 
HETATM    6  C13 UNL     1      25.609   3.019  50.666  1.00  0.00     0.117 C 
HETATM    7  N3  UNL     1      26.784   3.504  50.356  1.00  0.00    -0.228 NA
HETATM    8  C15 UNL     1      24.464   3.014  49.763  1.00  0.00     0.135 C 
ENDROOT
BRANCH   1   9
HETATM    9  N1  UNL     1      22.285   4.039  49.378  1.00  0.00    -0.387 N 
HETATM   10  H10 UNL     1      21.650   4.787  49.791  1.00  0.00     0.159 HD
BRANCH   9  11
HETATM   11  C3  UNL     1      22.285   3.635  47.959  1.00  0.00     0.101 C 
HETATM   12  C4  UNL     1      20.963   2.885  47.774  1.00  0.00     0.034 C 
BRANCH  11  13
HETATM   13  C2  UNL     1      22.334   4.884  47.131  1.00  0.00     0.191 C 
BRANCH  13  14
HETATM   14  O1  UNL     1      21.971   6.048  47.714  1.00  0.00    -0.394 OA
HETATM   15  C1  UNL     1      20.814   6.662  47.355  1.00  0.00     0.201 C 
ENDBRANCH  13  14
ENDBRANCH  11  13
ENDBRANCH   9  11
ENDBRANCH   1   9
BRANCH   5  16
HETATM   16  C9  UNL     1      26.838   1.967  52.525  1.00  0.00     0.082 A 
HETATM   17  C10 UNL     1      27.254   0.710  52.391  1.00  0.00     0.165 A 
HETATM   18  F1  UNL     1      26.708  -0.376  51.786  1.00  0.00    -0.202 F 
HETATM   19  C11 UNL     1      28.463   1.039  53.140  1.00  0.00     0.077 A 
HETATM   20 CL1  UNL     1      29.860   0.144  53.641  1.00  0.00    -0.081 Cl
HETATM   21  C12 UNL     1      28.038   2.276  53.263  1.00  0.00     0.060 A 
ENDBRANCH   5  16
BRANCH   7  22
HETATM   22  C14 UNL     1      26.960   4.056  49.076  1.00  0.00     0.225 C 
HETATM   23  N4  UNL     1      28.055   4.706  49.349  1.00  0.00    -0.293 NA
HETATM   24  H16 UNL     1      28.482   5.257  48.577  1.00  0.00     0.187 HD
ENDBRANCH   7  22
TORSDOF 6
ENDMDL
MODEL 9
REMARK VINA RESULT:      -6.1      1.986      3.546
REMARK  6 active torsions:
REMARK  status: ('A' for Active; 'I' for Inactive)
REMARK    1  A    between atoms: O1_2  and  C2_3 
REMARK    2  A    between atoms: C2_3  and  C3_4 
REMARK    3  A    between atoms: C3_4  and  N1_6 
REMARK    4  A    between atoms: N1_6  and  C5_7 
REMARK    5  A    between atoms: N2_11  and  C9_12 
REMARK    6  A    between atoms: N3_19  and  C14_20 
ROOT
HETATM    1  C5  UNL     1      21.420   1.524  51.315  1.00  0.00     0.012 C 
HETATM    2  C6  UNL     1      22.174   2.052  50.368  1.00  0.00     0.026 C 
HETATM    3  C7  UNL     1      23.612   2.297  50.411  1.00  0.00     0.020 C 
HETATM    4  C8  UNL     1      24.519   1.873  51.296  1.00  0.00     0.099 C 
HETATM    5  N2  UNL     1      24.262   1.050  52.448  1.00  0.00    -0.307 N 
HETATM    6  C13 UNL     1      23.025   0.457  52.892  1.00  0.00     0.117 C 
HETATM    7  N3  UNL     1      23.245  -0.661  53.534  1.00  0.00    -0.228 NA
HETATM    8  C15 UNL     1      21.698   1.019  52.662  1.00  0.00     0.135 C 
ENDROOT
BRANCH   1   9
HETATM    9  N1  UNL     1      20.034   1.432  50.928  1.00  0.00    -0.387 N 
HETATM   10  H10 UNL     1      19.874   1.018  49.961  1.00  0.00     0.159 HD
BRANCH   9  11
HETATM   11  C3  UNL     1      18.958   1.889  51.829  1.00  0.00     0.101 C 
HETATM   12  C4  UNL     1      18.804   3.380  51.515  1.00  0.00     0.034 C 
BRANCH  11  13
HETATM   13  C2  UNL     1      17.719   1.120  51.485  1.00  0.00     0.191 C 
BRANCH  13  14
HETATM   14  O1  UNL     1      17.841   0.049  50.669  1.00  0.00    -0.394 OA
HETATM   15  C1  UNL     1      16.835  -0.283  49.820  1.00  0.00     0.201 C 
ENDBRANCH  13  14
ENDBRANCH  11  13
ENDBRANCH   9  11
ENDBRANCH   1   9
BRANCH   5  16
HETATM   16  C9  UNL     1      25.438   0.814  53.239  1.00  0.00     0.082 A 
HETATM   17  C10 UNL     1      26.515   0.143  52.839  1.00  0.00     0.165 A 
HETATM   18  F1  UNL     1      26.827  -0.476  51.672  1.00  0.00    -0.202 F 
HETATM   19  C11 UNL     1      27.133   0.375  54.141  1.00  0.00     0.077 A 
HETATM   20 CL1  UNL     1      28.652  -0.055  54.856  1.00  0.00    -0.081 Cl
HETATM   21  C12 UNL     1      26.062   1.035  54.521  1.00  0.00     0.060 A 
ENDBRANCH   5  16
BRANCH   7  22
HETATM   22  C14 UNL     1      22.141  -1.370  54.036  1.00  0.00     0.225 C 
HETATM   23  N4  UNL     1      22.563  -1.443  55.265  1.00  0.00    -0.293 NA
HETATM   24  H16 UNL     1      21.950  -1.936  55.946  1.00  0.00     0.187 HD
ENDBRANCH   7  22
TORSDOF 6
ENDMDL
