MODEL 1
REMARK VINA RESULT:      -8.0      0.000      0.000
REMARK  3 active torsions:
REMARK  status: ('A' for Active; 'I' for Inactive)
REMARK    1  A    between atoms: C8_9  and  O1_10 
REMARK    2  A    between atoms: O1_10  and  C9_11 
REMARK    3  A    between atoms: C16_18  and  O2_19 
ROOT
HETATM    1  C1  UNL     1      28.624   0.724  55.101  1.00  0.00     0.178 C 
HETATM    2  N1  UNL     1      29.157   0.555  53.807  1.00  0.00    -0.290 N 
HETATM    3  C2  UNL     1      30.159  -0.398  53.588  1.00  0.00     0.149 C 
HETATM    4  C3  UNL     1      29.785  -1.855  53.709  1.00  0.00     0.022 C 
HETATM    5  C4  UNL     1      28.738  -2.316  52.719  1.00  0.00     0.007 C 
HETATM    6  C5  UNL     1      27.431  -1.655  52.832  1.00  0.00    -0.001 C 
HETATM    7  C6  UNL     1      26.084  -1.558  52.988  1.00  0.00     0.023 C 
HETATM    8  C7  UNL     1      25.267  -0.294  53.019  1.00  0.00     0.016 C 
HETATM    9  C8  UNL     1      25.139   1.073  52.990  1.00  0.00     0.077 C 
HETATM   10  C15 UNL     1      26.299   1.955  52.916  1.00  0.00     0.102 C 
HETATM   11  C16 UNL     1      27.605   2.106  52.870  1.00  0.00     0.206 C 
HETATM   12  O3  UNL     1      28.875   1.483  52.872  1.00  0.00    -0.215 OA
ENDROOT
BRANCH   9  13
HETATM   13  O1  UNL     1      23.925   1.706  53.052  1.00  0.00    -0.311 OA
BRANCH  13  14
HETATM   14  C9  UNL     1      22.717   1.223  52.644  1.00  0.00     0.076 A 
HETATM   15  C10 UNL     1      22.561   1.338  51.263  1.00  0.00     0.037 A 
HETATM   16  C11 UNL     1      21.400   0.908  50.629  1.00  0.00     0.003 A 
HETATM   17  C12 UNL     1      20.354   0.343  51.369  1.00  0.00     0.000 A 
HETATM   18  C13 UNL     1      20.526   0.236  52.749  1.00  0.00     0.003 A 
HETATM   19  C14 UNL     1      21.689   0.669  53.377  1.00  0.00     0.037 A 
ENDBRANCH  13  14
ENDBRANCH   9  13
BRANCH  11  20
HETATM   20  O2  UNL     1      28.632   3.054  52.793  1.00  0.00    -0.339 OA
HETATM   21  H19 UNL     1      29.592   2.749  52.663  1.00  0.00     0.220 HD
ENDBRANCH  11  20
TORSDOF 3
ENDMDL
MODEL 2
REMARK VINA RESULT:      -7.9      2.724      7.281
REMARK  3 active torsions:
REMARK  status: ('A' for Active; 'I' for Inactive)
REMARK    1  A    between atoms: C8_9  and  O1_10 
REMARK    2  A    between atoms: O1_10  and  C9_11 
REMARK    3  A    between atoms: C16_18  and  O2_19 
ROOT
HETATM    1  C1  UNL     1      20.485   0.977  54.230  1.00  0.00     0.178 C 
HETATM    2  N1  UNL     1      20.358  -0.144  53.385  1.00  0.00    -0.290 N 
HETATM    3  C2  UNL     1      19.318  -0.193  52.449  1.00  0.00     0.149 C 
HETATM    4  C3  UNL     1      19.368   0.773  51.289  1.00  0.00     0.022 C 
HETATM    5  C4  UNL     1      20.569   0.603  50.385  1.00  0.00     0.007 C 
HETATM    6  C5  UNL     1      21.874   0.825  51.024  1.00  0.00    -0.001 C 
HETATM    7  C6  UNL     1      23.100   1.380  51.211  1.00  0.00     0.023 C 
HETATM    8  C7  UNL     1      24.081   1.058  52.306  1.00  0.00     0.016 C 
HETATM    9  C8  UNL     1      24.455   0.389  53.446  1.00  0.00     0.077 C 
HETATM   10  C15 UNL     1      23.554  -0.530  54.132  1.00  0.00     0.102 C 
HETATM   11  C16 UNL     1      22.375  -1.109  54.215  1.00  0.00     0.206 C 
HETATM   12  O3  UNL     1      21.077  -1.248  53.671  1.00  0.00    -0.215 OA
ENDROOT
BRANCH   9  13
HETATM   13  O1  UNL     1      25.683   0.551  54.032  1.00  0.00    -0.311 OA
BRANCH  13  14
HETATM   14  C9  UNL     1      26.827  -0.141  53.764  1.00  0.00     0.076 A 
HETATM   15  C10 UNL     1      27.940   0.469  54.341  1.00  0.00     0.037 A 
HETATM   16  C11 UNL     1      29.215  -0.067  54.194  1.00  0.00     0.003 A 
HETATM   17  C12 UNL     1      29.411  -1.243  53.458  1.00  0.00     0.000 A 
HETATM   18  C13 UNL     1      28.287  -1.840  52.888  1.00  0.00     0.003 A 
HETATM   19  C14 UNL     1      27.015  -1.298  53.038  1.00  0.00     0.037 A 
ENDBRANCH  13  14
ENDBRANCH   9  13
BRANCH  11  20
HETATM   20  O2  UNL     1      21.610  -2.017  54.958  1.00  0.00    -0.339 OA
HETATM   21  H19 UNL     1      21.048  -1.683  55.736  1.00  0.00     0.220 HD
ENDBRANCH  11  20
TORSDOF 3
ENDMDL
MODEL 3
REMARK VINA RESULT:      -7.5      2.386      6.800
REMARK  3 active torsions:
REMARK  status: ('A' for Active; 'I' for Inactive)
REMARK    1  A    between atoms: C8_9  and  O1_10 
REMARK    2  A    between atoms: O1_10  and  C9_11 
REMARK    3  A    between atoms: C16_18  and  O2_19 
ROOT
HETATM    1  C1  UNL     1      21.725   1.031  50.621  1.00  0.00     0.178 C 
HETATM    2  N1  UNL     1      21.213   1.713  51.743  1.00  0.00    -0.290 N 
HETATM    3  C2  UNL     1      19.899   1.468  52.163  1.00  0.00     0.149 C 
HETATM    4  C3  UNL     1      19.587   0.112  52.748  1.00  0.00     0.022 C 
HETATM    5  C4  UNL     1      20.353  -0.216  54.011  1.00  0.00     0.007 C 
HETATM    6  C5  UNL     1      21.814  -0.275  53.864  1.00  0.00    -0.001 C 
HETATM    7  C6  UNL     1      23.060  -0.815  53.928  1.00  0.00     0.023 C 
HETATM    8  C7  UNL     1      24.349  -0.163  53.507  1.00  0.00     0.016 C 
HETATM    9  C8  UNL     1      25.069   0.877  52.971  1.00  0.00     0.077 C 
HETATM   10  C15 UNL     1      24.420   2.075  52.450  1.00  0.00     0.102 C 
HETATM   11  C16 UNL     1      23.317   2.743  52.190  1.00  0.00     0.206 C 
HETATM   12  O3  UNL     1      21.903   2.765  52.225  1.00  0.00    -0.215 OA
ENDROOT
BRANCH   9  13
HETATM   13  O1  UNL     1      26.435   0.857  52.864  1.00  0.00    -0.311 OA
BRANCH  13  14
HETATM   14  C9  UNL     1      27.258  -0.227  52.953  1.00  0.00     0.076 A 
HETATM   15  C10 UNL     1      28.511   0.123  53.455  1.00  0.00     0.037 A 
HETATM   16  C11 UNL     1      29.511  -0.828  53.628  1.00  0.00     0.003 A 
HETATM   17  C12 UNL     1      29.279  -2.170  53.301  1.00  0.00     0.000 A 
HETATM   18  C13 UNL     1      28.020  -2.503  52.801  1.00  0.00     0.003 A 
HETATM   19  C14 UNL     1      27.025  -1.547  52.629  1.00  0.00     0.037 A 
ENDBRANCH  13  14
ENDBRANCH   9  13
BRANCH  11  20
HETATM   20  O2  UNL     1      22.817   3.942  51.666  1.00  0.00    -0.339 OA
HETATM   21  H19 UNL     1      22.139   3.918  50.910  1.00  0.00     0.220 HD
ENDBRANCH  11  20
TORSDOF 3
ENDMDL
MODEL 4
REMARK VINA RESULT:      -7.3      3.029      6.916
REMARK  3 active torsions:
REMARK  status: ('A' for Active; 'I' for Inactive)
REMARK    1  A    between atoms: C8_9  and  O1_10 
REMARK    2  A    between atoms: O1_10  and  C9_11 
REMARK    3  A    between atoms: C16_18  and  O2_19 
ROOT
HETATM    1  C1  UNL     1      23.415   4.709  52.655  1.00  0.00     0.178 C 
HETATM    2  N1  UNL     1      22.788   4.263  51.474  1.00  0.00    -0.290 N 
HETATM    3  C2  UNL     1      22.559   5.165  50.428  1.00  0.00     0.149 C 
HETATM    4  C3  UNL     1      23.758   5.700  49.682  1.00  0.00     0.022 C 
HETATM    5  C4  UNL     1      24.573   4.643  48.970  1.00  0.00     0.007 C 
HETATM    6  C5  UNL     1      25.182   3.626  49.838  1.00  0.00    -0.001 C 
HETATM    7  C6  UNL     1      26.175   2.877  50.386  1.00  0.00     0.023 C 
HETATM    8  C7  UNL     1      26.028   1.819  51.446  1.00  0.00     0.016 C 
HETATM    9  C8  UNL     1      25.285   1.085  52.339  1.00  0.00     0.077 C 
HETATM   10  C15 UNL     1      23.857   1.320  52.529  1.00  0.00     0.102 C 
HETATM   11  C16 UNL     1      22.772   2.001  52.230  1.00  0.00     0.206 C 
HETATM   12  O3  UNL     1      22.197   3.052  51.479  1.00  0.00    -0.215 OA
ENDROOT
BRANCH   9  13
HETATM   13  O1  UNL     1      25.827   0.104  53.127  1.00  0.00    -0.311 OA
BRANCH  13  14
HETATM   14  C9  UNL     1      27.145  -0.093  53.415  1.00  0.00     0.076 A 
HETATM   15  C10 UNL     1      27.604  -1.307  52.904  1.00  0.00     0.037 A 
HETATM   16  C11 UNL     1      28.922  -1.714  53.082  1.00  0.00     0.003 A 
HETATM   17  C12 UNL     1      29.826  -0.906  53.784  1.00  0.00     0.000 A 
HETATM   18  C13 UNL     1      29.351   0.305  54.288  1.00  0.00     0.003 A 
HETATM   19  C14 UNL     1      28.031   0.705  54.107  1.00  0.00     0.037 A 
ENDBRANCH  13  14
ENDBRANCH   9  13
BRANCH  11  20
HETATM   20  O2  UNL     1      21.403   2.123  52.499  1.00  0.00    -0.339 OA
HETATM   21  H19 UNL     1      20.726   1.923  51.769  1.00  0.00     0.220 HD
ENDBRANCH  11  20
TORSDOF 3
ENDMDL
MODEL 5
REMARK VINA RESULT:      -7.2      4.029      6.472
REMARK  3 active torsions:
REMARK  status: ('A' for Active; 'I' for Inactive)
REMARK    1  A    between atoms: C8_9  and  O1_10 
REMARK    2  A    between atoms: O1_10  and  C9_11 
REMARK    3  A    between atoms: C16_18  and  O2_19 
ROOT
HETATM    1  C1  UNL     1      21.945   2.769  52.013  1.00  0.00     0.178 C 
HETATM    2  N1  UNL     1      22.657   1.732  51.377  1.00  0.00    -0.290 N 
HETATM    3  C2  UNL     1      24.053   1.690  51.470  1.00  0.00     0.149 C 
HETATM    4  C3  UNL     1      24.661   1.385  52.817  1.00  0.00     0.022 C 
HETATM    5  C4  UNL     1      24.301   0.025  53.372  1.00  0.00     0.007 C 
HETATM    6  C5  UNL     1      22.870  -0.193  53.626  1.00  0.00    -0.001 C 
HETATM    7  C6  UNL     1      21.755  -0.495  54.344  1.00  0.00     0.023 C 
HETATM    8  C7  UNL     1      20.335  -0.500  53.846  1.00  0.00     0.016 C 
HETATM    9  C8  UNL     1      19.386  -0.302  52.874  1.00  0.00     0.077 C 
HETATM   10  C15 UNL     1      19.732   0.203  51.550  1.00  0.00     0.102 C 
HETATM   11  C16 UNL     1      20.643   0.641  50.708  1.00  0.00     0.206 C 
HETATM   12  O3  UNL     1      22.004   0.959  50.487  1.00  0.00    -0.215 OA
ENDROOT
BRANCH   9  13
HETATM   13  O1  UNL     1      18.052  -0.540  53.079  1.00  0.00    -0.311 OA
BRANCH  13  14
HETATM   14  C9  UNL     1      17.421  -1.749  53.108  1.00  0.00     0.076 A 
HETATM   15  C10 UNL     1      16.215  -1.712  52.409  1.00  0.00     0.037 A 
HETATM   16  C11 UNL     1      15.402  -2.836  52.309  1.00  0.00     0.003 A 
HETATM   17  C12 UNL     1      15.781  -4.042  52.913  1.00  0.00     0.000 A 
HETATM   18  C13 UNL     1      16.991  -4.061  53.609  1.00  0.00     0.003 A 
HETATM   19  C14 UNL     1      17.798  -2.933  53.705  1.00  0.00     0.037 A 
ENDBRANCH  13  14
ENDBRANCH   9  13
BRANCH  11  20
HETATM   20  O2  UNL     1      20.846   1.112  49.405  1.00  0.00    -0.339 OA
HETATM   21  H19 UNL     1      21.746   1.508  49.146  1.00  0.00     0.220 HD
ENDBRANCH  11  20
TORSDOF 3
ENDMDL
MODEL 6
REMARK VINA RESULT:      -7.1      8.306     11.405
REMARK  3 active torsions:
REMARK  status: ('A' for Active; 'I' for Inactive)
REMARK    1  A    between atoms: C8_9  and  O1_10 
REMARK    2  A    between atoms: O1_10  and  C9_11 
REMARK    3  A    between atoms: C16_18  and  O2_19 
ROOT
HETATM    1  C1  UNL     1      28.973   9.176  47.192  1.00  0.00     0.178 C 
HETATM    2  N1  UNL     1      28.456   8.911  48.477  1.00  0.00    -0.290 N 
HETATM    3  C2  UNL     1      27.075   8.762  48.652  1.00  0.00     0.149 C 
HETATM    4  C3  UNL     1      26.416   7.544  48.052  1.00  0.00     0.022 C 
HETATM    5  C4  UNL     1      26.915   6.226  48.604  1.00  0.00     0.007 C 
HETATM    6  C5  UNL     1      28.340   5.947  48.376  1.00  0.00    -0.001 C 
HETATM    7  C6  UNL     1      29.429   5.258  47.943  1.00  0.00     0.023 C 
HETATM    8  C7  UNL     1      30.869   5.674  48.071  1.00  0.00     0.016 C 
HETATM    9  C8  UNL     1      31.852   6.557  48.445  1.00  0.00     0.077 C 
HETATM   10  C15 UNL     1      31.540   7.858  49.027  1.00  0.00     0.102 C 
HETATM   11  C16 UNL     1      30.642   8.738  49.416  1.00  0.00     0.206 C 
HETATM   12  O3  UNL     1      29.272   9.064  49.539  1.00  0.00    -0.215 OA
ENDROOT
BRANCH   9  13
HETATM   13  O1  UNL     1      33.188   6.296  48.279  1.00  0.00    -0.311 OA
BRANCH  13  14
HETATM   14  C9  UNL     1      33.760   5.444  47.381  1.00  0.00     0.076 A 
HETATM   15  C10 UNL     1      34.318   4.335  48.015  1.00  0.00     0.037 A 
HETATM   16  C11 UNL     1      34.958   3.334  47.290  1.00  0.00     0.003 A 
HETATM   17  C12 UNL     1      35.054   3.419  45.895  1.00  0.00     0.000 A 
HETATM   18  C13 UNL     1      34.489   4.535  45.277  1.00  0.00     0.003 A 
HETATM   19  C14 UNL     1      33.852   5.532  46.008  1.00  0.00     0.037 A 
ENDBRANCH  13  14
ENDBRANCH   9  13
BRANCH  11  20
HETATM   20  O2  UNL     1      30.474  10.005  49.988  1.00  0.00    -0.339 OA
HETATM   21  H19 UNL     1      29.960  10.100  50.859  1.00  0.00     0.220 HD
ENDBRANCH  11  20
TORSDOF 3
ENDMDL
MODEL 7
REMARK VINA RESULT:      -7.0      1.766      2.365
REMARK  3 active torsions:
REMARK  status: ('A' for Active; 'I' for Inactive)
REMARK    1  A    between atoms: C8_9  and  O1_10 
REMARK    2  A    between atoms: O1_10  and  C9_11 
REMARK    3  A    between atoms: C16_18  and  O2_19 
ROOT
HETATM    1  C1  UNL     1      27.351   2.450  54.067  1.00  0.00     0.178 C 
HETATM    2  N1  UNL     1      27.919   1.770  52.971  1.00  0.00    -0.290 N 
HETATM    3  C2  UNL     1      29.025   0.935  53.170  1.00  0.00     0.149 C 
HETATM    4  C3  UNL     1      28.814  -0.340  53.951  1.00  0.00     0.022 C 
HETATM    5  C4  UNL     1      27.839  -1.308  53.316  1.00  0.00     0.007 C 
HETATM    6  C5  UNL     1      26.465  -0.811  53.167  1.00  0.00    -0.001 C 
HETATM    7  C6  UNL     1      25.113  -0.797  53.312  1.00  0.00     0.023 C 
HETATM    8  C7  UNL     1      24.160   0.248  52.799  1.00  0.00     0.016 C 
HETATM    9  C8  UNL     1      23.881   1.431  52.159  1.00  0.00     0.077 C 
HETATM   10  C15 UNL     1      24.936   2.300  51.650  1.00  0.00     0.102 C 
HETATM   11  C16 UNL     1      26.218   2.552  51.492  1.00  0.00     0.206 C 
HETATM   12  O3  UNL     1      27.549   2.137  51.728  1.00  0.00    -0.215 OA
ENDROOT
BRANCH   9  13
HETATM   13  O1  UNL     1      22.603   1.890  51.972  1.00  0.00    -0.311 OA
BRANCH  13  14
HETATM   14  C9  UNL     1      21.999   2.202  50.790  1.00  0.00     0.076 A 
HETATM   15  C10 UNL     1      21.806   1.069  50.001  1.00  0.00     0.037 A 
HETATM   16  C11 UNL     1      21.207   1.153  48.749  1.00  0.00     0.003 A 
HETATM   17  C12 UNL     1      20.779   2.390  48.248  1.00  0.00     0.000 A 
HETATM   18  C13 UNL     1      20.979   3.513  49.051  1.00  0.00     0.003 A 
HETATM   19  C14 UNL     1      21.580   3.421  50.301  1.00  0.00     0.037 A 
ENDBRANCH  13  14
ENDBRANCH   9  13
BRANCH  11  20
HETATM   20  O2  UNL     1      27.134   3.465  50.956  1.00  0.00    -0.339 OA
HETATM   21  H19 UNL     1      26.796   4.295  50.476  1.00  0.00     0.220 HD
ENDBRANCH  11  20
TORSDOF 3
ENDMDL
MODEL 8
REMARK VINA RESULT:      -6.9      4.204      6.632
REMARK  3 active torsions:
REMARK  status: ('A' for Active; 'I' for Inactive)
REMARK    1  A    between atoms: C8_9  and  O1_10 
REMARK    2  A    between atoms: O1_10  and  C9_11 
REMARK    3  A    between atoms: C16_18  and  O2_19 
ROOT
HETATM    1  C1  UNL     1      25.655   5.862  49.502  1.00  0.00     0.178 C 
HETATM    2  N1  UNL     1      24.404   6.485  49.682  1.00  0.00    -0.290 N 
HETATM    3  C2  UNL     1      23.908   7.343  48.692  1.00  0.00     0.149 C 
HETATM    4  C3  UNL     1      23.503   6.735  47.371  1.00  0.00     0.022 C 
HETATM    5  C4  UNL     1      22.376   5.730  47.463  1.00  0.00     0.007 C 
HETATM    6  C5  UNL     1      22.661   4.537  48.273  1.00  0.00    -0.001 C 
HETATM    7  C6  UNL     1      22.791   3.214  48.554  1.00  0.00     0.023 C 
HETATM    8  C7  UNL     1      23.225   2.606  49.860  1.00  0.00     0.016 C 
HETATM    9  C8  UNL     1      23.665   2.697  51.158  1.00  0.00     0.077 C 
HETATM   10  C15 UNL     1      23.944   3.982  51.790  1.00  0.00     0.102 C 
HETATM   11  C16 UNL     1      24.002   5.294  51.709  1.00  0.00     0.206 C 
HETATM   12  O3  UNL     1      23.837   6.445  50.903  1.00  0.00    -0.215 OA
ENDROOT
BRANCH   9  13
HETATM   13  O1  UNL     1      23.896   1.597  51.943  1.00  0.00    -0.311 OA
BRANCH  13  14
HETATM   14  C9  UNL     1      23.010   0.965  52.765  1.00  0.00     0.076 A 
HETATM   15  C10 UNL     1      23.619  -0.073  53.470  1.00  0.00     0.037 A 
HETATM   16  C11 UNL     1      22.900  -0.855  54.367  1.00  0.00     0.003 A 
HETATM   17  C12 UNL     1      21.537  -0.615  54.587  1.00  0.00     0.000 A 
HETATM   18  C13 UNL     1      20.945   0.427  53.874  1.00  0.00     0.003 A 
HETATM   19  C14 UNL     1      21.669   1.205  52.977  1.00  0.00     0.037 A 
ENDBRANCH  13  14
ENDBRANCH   9  13
BRANCH  11  20
HETATM   20  O2  UNL     1      24.297   6.459  52.427  1.00  0.00    -0.339 OA
HETATM   21  H19 UNL     1      23.921   7.351  52.117  1.00  0.00     0.220 HD
ENDBRANCH  11  20
TORSDOF 3
ENDMDL
MODEL 9
REMARK VINA RESULT:      -6.9      3.133      7.350
REMARK  3 active torsions:
REMARK  status: ('A' for Active; 'I' for Inactive)
REMARK    1  A    between atoms: C8_9  and  O1_10 
REMARK    2  A    between atoms: O1_10  and  C9_11 
REMARK    3  A    between atoms: C16_18  and  O2_19 
ROOT
HETATM    1  C1  UNL     1      20.651   3.269  51.766  1.00  0.00     0.178 C 
HETATM    2  N1  UNL     1      20.622   2.529  50.567  1.00  0.00    -0.290 N 
HETATM    3  C2  UNL     1      20.321   3.174  49.361  1.00  0.00     0.149 C 
HETATM    4  C3  UNL     1      21.326   4.161  48.819  1.00  0.00     0.022 C 
HETATM    5  C4  UNL     1      22.676   3.561  48.488  1.00  0.00     0.007 C 
HETATM    6  C5  UNL     1      23.401   2.979  49.626  1.00  0.00    -0.001 C 
HETATM    7  C6  UNL     1      24.430   2.796  50.496  1.00  0.00     0.023 C 
HETATM    8  C7  UNL     1      24.470   1.841  51.658  1.00  0.00     0.016 C 
HETATM    9  C8  UNL     1      23.903   0.893  52.474  1.00  0.00     0.077 C 
HETATM   10  C15 UNL     1      22.521   0.457  52.305  1.00  0.00     0.102 C 
HETATM   11  C16 UNL     1      21.375   0.550  51.666  1.00  0.00     0.206 C 
HETATM   12  O3  UNL     1      20.631   1.183  50.643  1.00  0.00    -0.215 OA
ENDROOT
BRANCH   9  13
HETATM   13  O1  UNL     1      24.578   0.308  53.514  1.00  0.00    -0.311 OA
BRANCH  13  14
HETATM   14  C9  UNL     1      25.881  -0.094  53.534  1.00  0.00     0.076 A 
HETATM   15  C10 UNL     1      26.590   0.524  54.563  1.00  0.00     0.037 A 
HETATM   16  C11 UNL     1      27.941   0.262  54.768  1.00  0.00     0.003 A 
HETATM   17  C12 UNL     1      28.624  -0.638  53.940  1.00  0.00     0.000 A 
HETATM   18  C13 UNL     1      27.899  -1.247  52.916  1.00  0.00     0.003 A 
HETATM   19  C14 UNL     1      26.549  -0.980  52.715  1.00  0.00     0.037 A 
ENDBRANCH  13  14
ENDBRANCH   9  13
BRANCH  11  20
HETATM   20  O2  UNL     1      20.070   0.045  51.604  1.00  0.00    -0.339 OA
HETATM   21  H19 UNL     1      19.410   0.435  50.937  1.00  0.00     0.220 HD
ENDBRANCH  11  20
TORSDOF 3
ENDMDL
