MODEL 1
REMARK VINA RESULT:      -9.3      0.000      0.000
REMARK  6 active torsions:
REMARK  status: ('A' for Active; 'I' for Inactive)
REMARK    1  A    between atoms: C2_2  and  C3_3 
REMARK       I    between atoms: C3_3  and  N1_5 
REMARK    2  A    between atoms: N1_5  and  C4_6 
REMARK    3  A    between atoms: C9_13  and  N4_14 
REMARK    4  A    between atoms: N4_14  and  C10_15 
REMARK    5  A    between atoms: C10_15  and  C11_16 
REMARK    6  A    between atoms: C11_16  and  C14_19 
ROOT
HETATM    1  C4  UNL     1      25.968   0.597  54.252  1.00  0.00     0.036 A 
HETATM    2  C5  UNL     1      25.217  -0.567  54.447  1.00  0.00     0.032 A 
HETATM    3  C6  UNL     1      23.931  -0.569  53.949  1.00  0.00     0.035 A 
HETATM    4  C7  UNL     1      23.405   0.520  53.289  1.00  0.00     0.072 A 
HETATM    5  N2  UNL     1      22.156   0.405  52.852  1.00  0.00    -0.241 NA
HETATM    6  C8  UNL     1      21.635   1.457  52.209  1.00  0.00     0.235 A 
HETATM    7  N3  UNL     1      22.355   2.547  52.032  1.00  0.00    -0.224 NA
HETATM    8  C9  UNL     1      23.617   2.770  52.428  1.00  0.00     0.137 A 
HETATM    9  C21 UNL     1      24.131   1.673  53.087  1.00  0.00     0.041 A 
HETATM   10  C22 UNL     1      25.403   1.663  53.586  1.00  0.00     0.047 A 
ENDROOT
BRANCH   8  11
HETATM   11  N4  UNL     1      24.358   3.951  52.208  1.00  0.00    -0.373 N 
HETATM   12  H8  UNL     1      24.798   4.389  53.044  1.00  0.00     0.161 HD
BRANCH  11  13
HETATM   13  C10 UNL     1      24.610   4.658  51.006  1.00  0.00     0.135 C 
BRANCH  13  14
HETATM   14  C11 UNL     1      25.337   3.972  49.918  1.00  0.00    -0.004 C 
HETATM   15  C12 UNL     1      24.319   3.491  48.910  1.00  0.00     0.021 C 
HETATM   16  C13 UNL     1      26.318   2.916  50.321  1.00  0.00     0.021 C 
BRANCH  14  17
HETATM   17  C14 UNL     1      26.168   5.003  49.180  1.00  0.00    -0.049 A 
HETATM   18  C15 UNL     1      27.485   4.604  48.917  1.00  0.00     0.008 A 
HETATM   19  C16 UNL     1      28.370   5.424  48.262  1.00  0.00     0.007 A 
HETATM   20  C17 UNL     1      27.985   6.675  47.841  1.00  0.00    -0.062 A 
HETATM   21  C18 UNL     1      28.849   7.653  47.123  1.00  0.00     0.048 C 
HETATM   22  C19 UNL     1      26.691   7.062  48.102  1.00  0.00     0.007 A 
HETATM   23  C20 UNL     1      25.784   6.258  48.757  1.00  0.00     0.008 A 
ENDBRANCH  14  17
ENDBRANCH  13  14
ENDBRANCH  11  13
ENDBRANCH   8  11
BRANCH   1  24
HETATM   24  N1  UNL     1      27.293   0.575  54.775  1.00  0.00    -0.324 N 
HETATM   25  C3  UNL     1      28.140  -0.045  53.814  1.00  0.00     0.241 C 
HETATM   26  O1  UNL     1      27.912  -0.534  52.672  1.00  0.00    -0.269 OA
HETATM   27  H4  UNL     1      27.830   0.853  55.599  1.00  0.00     0.169 HD
BRANCH  25  28
HETATM   28  C2  UNL     1      29.571  -0.331  53.819  1.00  0.00     0.048 C 
HETATM   29  C1  UNL     1      29.421  -1.576  53.398  1.00  0.00     0.037 C 
ENDBRANCH  25  28
ENDBRANCH   1  24
TORSDOF 6
ENDMDL
MODEL 2
REMARK VINA RESULT:      -9.3      1.448      2.208
REMARK  6 active torsions:
REMARK  status: ('A' for Active; 'I' for Inactive)
REMARK    1  A    between atoms: C2_2  and  C3_3 
REMARK       I    between atoms: C3_3  and  N1_5 
REMARK    2  A    between atoms: N1_5  and  C4_6 
REMARK    3  A    between atoms: C9_13  and  N4_14 
REMARK    4  A    between atoms: N4_14  and  C10_15 
REMARK    5  A    between atoms: C10_15  and  C11_16 
REMARK    6  A    between atoms: C11_16  and  C14_19 
ROOT
HETATM    1  C4  UNL     1      25.151  -0.765  54.133  1.00  0.00     0.036 A 
HETATM    2  C5  UNL     1      24.482  -1.323  55.228  1.00  0.00     0.032 A 
HETATM    3  C6  UNL     1      23.119  -1.122  55.293  1.00  0.00     0.035 A 
HETATM    4  C7  UNL     1      22.442  -0.409  54.329  1.00  0.00     0.072 A 
HETATM    5  N2  UNL     1      21.130  -0.280  54.494  1.00  0.00    -0.241 NA
HETATM    6  C8  UNL     1      20.463   0.412  53.562  1.00  0.00     0.235 A 
HETATM    7  N3  UNL     1      21.107   0.932  52.536  1.00  0.00    -0.224 NA
HETATM    8  C9  UNL     1      22.420   0.864  52.271  1.00  0.00     0.137 A 
HETATM    9  C21 UNL     1      23.085   0.147  53.244  1.00  0.00     0.041 A 
HETATM   10  C22 UNL     1      24.435  -0.058  53.192  1.00  0.00     0.047 A 
ENDROOT
BRANCH   8  11
HETATM   11  N4  UNL     1      23.070   1.426  51.152  1.00  0.00    -0.373 N 
HETATM   12  H8  UNL     1      23.014   0.891  50.261  1.00  0.00     0.161 HD
BRANCH  11  13
HETATM   13  C10 UNL     1      23.807   2.631  51.037  1.00  0.00     0.135 C 
BRANCH  13  14
HETATM   14  C11 UNL     1      23.558   3.506  49.873  1.00  0.00    -0.004 C 
HETATM   15  C12 UNL     1      22.696   4.660  50.335  1.00  0.00     0.021 C 
HETATM   16  C13 UNL     1      23.049   2.849  48.628  1.00  0.00     0.021 C 
BRANCH  14  17
HETATM   17  C14 UNL     1      24.874   4.135  49.462  1.00  0.00    -0.049 A 
HETATM   18  C15 UNL     1      24.770   5.462  49.024  1.00  0.00     0.008 A 
HETATM   19  C16 UNL     1      25.868   6.173  48.610  1.00  0.00     0.007 A 
HETATM   20  C17 UNL     1      27.118   5.597  48.615  1.00  0.00    -0.062 A 
HETATM   21  C18 UNL     1      28.380   6.264  48.192  1.00  0.00     0.048 C 
HETATM   22  C19 UNL     1      27.214   4.296  49.047  1.00  0.00     0.007 A 
HETATM   23  C20 UNL     1      26.128   3.560  49.466  1.00  0.00     0.008 A 
ENDBRANCH  14  17
ENDBRANCH  13  14
ENDBRANCH  11  13
ENDBRANCH   8  11
BRANCH   1  24
HETATM   24  N1  UNL     1      26.557  -0.985  54.089  1.00  0.00    -0.324 N 
HETATM   25  C3  UNL     1      27.206   0.181  54.583  1.00  0.00     0.241 C 
HETATM   26  O1  UNL     1      26.760   1.281  55.015  1.00  0.00    -0.269 OA
HETATM   27  H4  UNL     1      27.247  -1.692  53.823  1.00  0.00     0.169 HD
BRANCH  25  28
HETATM   28  C2  UNL     1      28.617   0.509  54.761  1.00  0.00     0.048 C 
HETATM   29  C1  UNL     1      29.044  -0.526  54.056  1.00  0.00     0.037 C 
ENDBRANCH  25  28
ENDBRANCH   1  24
TORSDOF 6
ENDMDL
MODEL 3
REMARK VINA RESULT:      -9.0      1.196      1.581
REMARK  6 active torsions:
REMARK  status: ('A' for Active; 'I' for Inactive)
REMARK    1  A    between atoms: C2_2  and  C3_3 
REMARK       I    between atoms: C3_3  and  N1_5 
REMARK    2  A    between atoms: N1_5  and  C4_6 
REMARK    3  A    between atoms: C9_13  and  N4_14 
REMARK    4  A    between atoms: N4_14  and  C10_15 
REMARK    5  A    between atoms: C10_15  and  C11_16 
REMARK    6  A    between atoms: C11_16  and  C14_19 
ROOT
HETATM    1  C4  UNL     1      25.681   0.525  52.724  1.00  0.00     0.036 A 
HETATM    2  C5  UNL     1      24.819  -0.502  53.123  1.00  0.00     0.032 A 
HETATM    3  C6  UNL     1      23.477  -0.196  53.197  1.00  0.00     0.035 A 
HETATM    4  C7  UNL     1      23.000   1.060  52.893  1.00  0.00     0.072 A 
HETATM    5  N2  UNL     1      21.688   1.240  53.000  1.00  0.00    -0.241 NA
HETATM    6  C8  UNL     1      21.214   2.458  52.707  1.00  0.00     0.235 A 
HETATM    7  N3  UNL     1      22.037   3.416  52.333  1.00  0.00    -0.224 NA
HETATM    8  C9  UNL     1      23.369   3.345  52.192  1.00  0.00     0.137 A 
HETATM    9  C21 UNL     1      23.833   2.083  52.499  1.00  0.00     0.041 A 
HETATM   10  C22 UNL     1      25.161   1.767  52.430  1.00  0.00     0.047 A 
ENDROOT
BRANCH   8  11
HETATM   11  N4  UNL     1      24.216   4.395  51.777  1.00  0.00    -0.373 N 
HETATM   12  H8  UNL     1      25.104   4.517  52.306  1.00  0.00     0.161 HD
BRANCH  11  13
HETATM   13  C10 UNL     1      24.054   5.337  50.730  1.00  0.00     0.135 C 
BRANCH  13  14
HETATM   14  C11 UNL     1      24.289   4.899  49.339  1.00  0.00    -0.004 C 
HETATM   15  C12 UNL     1      23.425   5.748  48.433  1.00  0.00     0.021 C 
HETATM   16  C13 UNL     1      24.175   3.432  49.063  1.00  0.00     0.021 C 
BRANCH  14  17
HETATM   17  C14 UNL     1      25.716   5.248  48.966  1.00  0.00    -0.049 A 
HETATM   18  C15 UNL     1      25.885   6.555  48.488  1.00  0.00     0.008 A 
HETATM   19  C16 UNL     1      27.115   7.027  48.101  1.00  0.00     0.007 A 
HETATM   20  C17 UNL     1      28.228   6.222  48.173  1.00  0.00    -0.062 A 
HETATM   21  C18 UNL     1      29.610   6.618  47.785  1.00  0.00     0.048 C 
HETATM   22  C19 UNL     1      28.055   4.942  48.643  1.00  0.00     0.007 A 
HETATM   23  C20 UNL     1      26.833   4.443  49.038  1.00  0.00     0.008 A 
ENDBRANCH  14  17
ENDBRANCH  13  14
ENDBRANCH  11  13
ENDBRANCH   8  11
BRANCH   1  24
HETATM   24  N1  UNL     1      27.062   0.185  52.655  1.00  0.00    -0.324 N 
HETATM   25  C3  UNL     1      27.656   0.479  53.915  1.00  0.00     0.241 C 
HETATM   26  O1  UNL     1      27.183   0.953  54.985  1.00  0.00    -0.269 OA
HETATM   27  H4  UNL     1      27.760  -0.195  52.012  1.00  0.00     0.169 HD
BRANCH  25  28
HETATM   28  C2  UNL     1      29.023   0.333  54.404  1.00  0.00     0.048 C 
HETATM   29  C1  UNL     1      29.222  -0.820  53.787  1.00  0.00     0.037 C 
ENDBRANCH  25  28
ENDBRANCH   1  24
TORSDOF 6
ENDMDL
MODEL 4
REMARK VINA RESULT:      -8.7      1.775      4.380
REMARK  6 active torsions:
REMARK  status: ('A' for Active; 'I' for Inactive)
REMARK    1  A    between atoms: C2_2  and  C3_3 
REMARK       I    between atoms: C3_3  and  N1_5 
REMARK    2  A    between atoms: N1_5  and  C4_6 
REMARK    3  A    between atoms: C9_13  and  N4_14 
REMARK    4  A    between atoms: N4_14  and  C10_15 
REMARK    5  A    between atoms: C10_15  and  C11_16 
REMARK    6  A    between atoms: C11_16  and  C14_19 
ROOT
HETATM    1  C4  UNL     1      22.364   0.597  53.415  1.00  0.00     0.036 A 
HETATM    2  C5  UNL     1      22.473  -0.538  54.227  1.00  0.00     0.032 A 
HETATM    3  C6  UNL     1      23.747  -0.945  54.560  1.00  0.00     0.035 A 
HETATM    4  C7  UNL     1      24.864  -0.271  54.120  1.00  0.00     0.072 A 
HETATM    5  N2  UNL     1      26.041  -0.754  54.505  1.00  0.00    -0.241 NA
HETATM    6  C8  UNL     1      27.134  -0.106  54.083  1.00  0.00     0.235 A 
HETATM    7  N3  UNL     1      27.016   0.962  53.319  1.00  0.00    -0.224 NA
HETATM    8  C9  UNL     1      25.887   1.532  52.874  1.00  0.00     0.137 A 
HETATM    9  C21 UNL     1      24.776   0.848  53.322  1.00  0.00     0.041 A 
HETATM   10  C22 UNL     1      23.508   1.241  52.997  1.00  0.00     0.047 A 
ENDROOT
BRANCH   8  11
HETATM   11  N4  UNL     1      25.804   2.685  52.064  1.00  0.00    -0.373 N 
HETATM   12  H8  UNL     1      25.808   3.603  52.555  1.00  0.00     0.161 HD
BRANCH  11  13
HETATM   13  C10 UNL     1      25.713   2.804  50.655  1.00  0.00     0.135 C 
BRANCH  13  14
HETATM   14  C11 UNL     1      24.869   3.876  50.087  1.00  0.00    -0.004 C 
HETATM   15  C12 UNL     1      24.265   4.649  51.237  1.00  0.00     0.021 C 
HETATM   16  C13 UNL     1      23.865   3.471  49.053  1.00  0.00     0.021 C 
BRANCH  14  17
HETATM   17  C14 UNL     1      25.772   4.864  49.376  1.00  0.00    -0.049 A 
HETATM   18  C15 UNL     1      27.061   4.382  49.110  1.00  0.00     0.008 A 
HETATM   19  C16 UNL     1      28.004   5.154  48.479  1.00  0.00     0.007 A 
HETATM   20  C17 UNL     1      27.706   6.438  48.084  1.00  0.00    -0.062 A 
HETATM   21  C18 UNL     1      28.640   7.370  47.393  1.00  0.00     0.048 C 
HETATM   22  C19 UNL     1      26.441   6.906  48.348  1.00  0.00     0.007 A 
HETATM   23  C20 UNL     1      25.477   6.152  48.980  1.00  0.00     0.008 A 
ENDBRANCH  14  17
ENDBRANCH  13  14
ENDBRANCH  11  13
ENDBRANCH   8  11
BRANCH   1  24
HETATM   24  N1  UNL     1      21.038   0.997  53.083  1.00  0.00    -0.324 N 
HETATM   25  C3  UNL     1      20.757   0.554  51.761  1.00  0.00     0.241 C 
HETATM   26  O1  UNL     1      21.446  -0.084  50.916  1.00  0.00    -0.269 OA
HETATM   27  H4  UNL     1      20.232   1.491  53.474  1.00  0.00     0.169 HD
BRANCH  25  28
HETATM   28  C2  UNL     1      19.570   0.684  50.922  1.00  0.00     0.048 C 
HETATM   29  C1  UNL     1      18.773   0.087  51.792  1.00  0.00     0.037 C 
ENDBRANCH  25  28
ENDBRANCH   1  24
TORSDOF 6
ENDMDL
MODEL 5
REMARK VINA RESULT:      -8.5      2.778      5.335
REMARK  6 active torsions:
REMARK  status: ('A' for Active; 'I' for Inactive)
REMARK    1  A    between atoms: C2_2  and  C3_3 
REMARK       I    between atoms: C3_3  and  N1_5 
REMARK    2  A    between atoms: N1_5  and  C4_6 
REMARK    3  A    between atoms: C9_13  and  N4_14 
REMARK    4  A    between atoms: N4_14  and  C10_15 
REMARK    5  A    between atoms: C10_15  and  C11_16 
REMARK    6  A    between atoms: C11_16  and  C14_19 
ROOT
HETATM    1  C4  UNL     1      20.717   0.077  52.539  1.00  0.00     0.036 A 
HETATM    2  C5  UNL     1      20.139  -0.612  53.611  1.00  0.00     0.032 A 
HETATM    3  C6  UNL     1      20.998  -1.095  54.576  1.00  0.00     0.035 A 
HETATM    4  C7  UNL     1      22.360  -0.910  54.495  1.00  0.00     0.072 A 
HETATM    5  N2  UNL     1      23.089  -1.418  55.483  1.00  0.00    -0.241 NA
HETATM    6  C8  UNL     1      24.415  -1.244  55.414  1.00  0.00     0.235 A 
HETATM    7  N3  UNL     1      24.946  -0.593  54.398  1.00  0.00    -0.224 NA
HETATM    8  C9  UNL     1      24.309  -0.042  53.355  1.00  0.00     0.137 A 
HETATM    9  C21 UNL     1      22.946  -0.234  53.448  1.00  0.00     0.041 A 
HETATM   10  C22 UNL     1      22.085   0.238  52.497  1.00  0.00     0.047 A 
ENDROOT
BRANCH   8  11
HETATM   11  N4  UNL     1      24.914   0.658  52.290  1.00  0.00    -0.373 N 
HETATM   12  H8  UNL     1      25.133   0.109  51.433  1.00  0.00     0.161 HD
BRANCH  11  13
HETATM   13  C10 UNL     1      25.285   2.023  52.190  1.00  0.00     0.135 C 
BRANCH  13  14
HETATM   14  C11 UNL     1      24.443   2.929  51.383  1.00  0.00    -0.004 C 
HETATM   15  C12 UNL     1      23.797   3.923  52.322  1.00  0.00     0.021 C 
HETATM   16  C13 UNL     1      23.474   2.290  50.438  1.00  0.00     0.021 C 
BRANCH  14  17
HETATM   17  C14 UNL     1      25.353   3.756  50.496  1.00  0.00    -0.049 A 
HETATM   18  C15 UNL     1      24.959   5.094  50.350  1.00  0.00     0.008 A 
HETATM   19  C16 UNL     1      25.671   5.974  49.575  1.00  0.00     0.007 A 
HETATM   20  C17 UNL     1      26.804   5.565  48.911  1.00  0.00    -0.062 A 
HETATM   21  C18 UNL     1      27.659   6.423  48.045  1.00  0.00     0.048 C 
HETATM   22  C19 UNL     1      27.185   4.252  49.058  1.00  0.00     0.007 A 
HETATM   23  C20 UNL     1      26.489   3.348  49.830  1.00  0.00     0.008 A 
ENDBRANCH  14  17
ENDBRANCH  13  14
ENDBRANCH  11  13
ENDBRANCH   8  11
BRANCH   1  24
HETATM   24  N1  UNL     1      19.811   0.565  51.555  1.00  0.00    -0.324 N 
HETATM   25  C3  UNL     1      19.544   1.934  51.836  1.00  0.00     0.241 C 
HETATM   26  O1  UNL     1      19.954   2.708  52.746  1.00  0.00    -0.269 OA
HETATM   27  H4  UNL     1      19.295   0.264  50.724  1.00  0.00     0.169 HD
BRANCH  25  28
HETATM   28  C2  UNL     1      18.700   2.919  51.167  1.00  0.00     0.048 C 
HETATM   29  C1  UNL     1      17.569   2.317  51.500  1.00  0.00     0.037 C 
ENDBRANCH  25  28
ENDBRANCH   1  24
TORSDOF 6
ENDMDL
MODEL 6
REMARK VINA RESULT:      -8.3      3.039      6.984
REMARK  6 active torsions:
REMARK  status: ('A' for Active; 'I' for Inactive)
REMARK    1  A    between atoms: C2_2  and  C3_3 
REMARK       I    between atoms: C3_3  and  N1_5 
REMARK    2  A    between atoms: N1_5  and  C4_6 
REMARK    3  A    between atoms: C9_13  and  N4_14 
REMARK    4  A    between atoms: N4_14  and  C10_15 
REMARK    5  A    between atoms: C10_15  and  C11_16 
REMARK    6  A    between atoms: C11_16  and  C14_19 
ROOT
HETATM    1  C4  UNL     1      24.426   2.558  51.250  1.00  0.00     0.036 A 
HETATM    2  C5  UNL     1      25.735   2.787  50.815  1.00  0.00     0.032 A 
HETATM    3  C6  UNL     1      26.713   1.956  51.320  1.00  0.00     0.035 A 
HETATM    4  C7  UNL     1      26.421   0.946  52.209  1.00  0.00     0.072 A 
HETATM    5  N2  UNL     1      27.443   0.208  52.629  1.00  0.00    -0.241 NA
HETATM    6  C8  UNL     1      27.170  -0.776  53.494  1.00  0.00     0.235 A 
HETATM    7  N3  UNL     1      25.932  -0.981  53.895  1.00  0.00    -0.224 NA
HETATM    8  C9  UNL     1      24.831  -0.302  53.538  1.00  0.00     0.137 A 
HETATM    9  C21 UNL     1      25.138   0.706  52.648  1.00  0.00     0.041 A 
HETATM   10  C22 UNL     1      24.178   1.537  52.141  1.00  0.00     0.047 A 
ENDROOT
BRANCH   8  11
HETATM   11  N4  UNL     1      23.517  -0.560  53.983  1.00  0.00    -0.373 N 
HETATM   12  H8  UNL     1      23.314  -0.357  54.984  1.00  0.00     0.161 HD
BRANCH  11  13
HETATM   13  C10 UNL     1      22.398  -1.064  53.275  1.00  0.00     0.135 C 
BRANCH  13  14
HETATM   14  C11 UNL     1      21.056  -0.538  53.601  1.00  0.00    -0.004 C 
HETATM   15  C12 UNL     1      21.152   0.186  54.925  1.00  0.00     0.021 C 
HETATM   16  C13 UNL     1      19.915  -1.504  53.535  1.00  0.00     0.021 C 
BRANCH  14  17
HETATM   17  C14 UNL     1      20.708   0.534  52.588  1.00  0.00    -0.049 A 
HETATM   18  C15 UNL     1      20.916   0.158  51.254  1.00  0.00     0.008 A 
HETATM   19  C16 UNL     1      20.657   1.017  50.214  1.00  0.00     0.007 A 
HETATM   20  C17 UNL     1      20.179   2.284  50.455  1.00  0.00    -0.062 A 
HETATM   21  C18 UNL     1      19.860   3.301  49.416  1.00  0.00     0.048 C 
HETATM   22  C19 UNL     1      19.977   2.647  51.765  1.00  0.00     0.007 A 
HETATM   23  C20 UNL     1      20.229   1.805  52.827  1.00  0.00     0.008 A 
ENDBRANCH  14  17
ENDBRANCH  13  14
ENDBRANCH  11  13
ENDBRANCH   8  11
BRANCH   1  24
HETATM   24  N1  UNL     1      23.433   3.429  50.715  1.00  0.00    -0.324 N 
HETATM   25  C3  UNL     1      23.145   4.426  51.689  1.00  0.00     0.241 C 
HETATM   26  O1  UNL     1      23.597   4.633  52.849  1.00  0.00    -0.269 OA
HETATM   27  H4  UNL     1      22.867   3.575  49.876  1.00  0.00     0.169 HD
BRANCH  25  28
HETATM   28  C2  UNL     1      22.223   5.557  51.680  1.00  0.00     0.048 C 
HETATM   29  C1  UNL     1      23.047   6.347  51.012  1.00  0.00     0.037 C 
ENDBRANCH  25  28
ENDBRANCH   1  24
TORSDOF 6
ENDMDL
MODEL 7
REMARK VINA RESULT:      -8.2      1.561      3.117
REMARK  6 active torsions:
REMARK  status: ('A' for Active; 'I' for Inactive)
REMARK    1  A    between atoms: C2_2  and  C3_3 
REMARK       I    between atoms: C3_3  and  N1_5 
REMARK    2  A    between atoms: N1_5  and  C4_6 
REMARK    3  A    between atoms: C9_13  and  N4_14 
REMARK    4  A    between atoms: N4_14  and  C10_15 
REMARK    5  A    between atoms: C10_15  and  C11_16 
REMARK    6  A    between atoms: C11_16  and  C14_19 
ROOT
HETATM    1  C4  UNL     1      26.028   0.101  54.172  1.00  0.00     0.036 A 
HETATM    2  C5  UNL     1      25.078  -0.844  54.574  1.00  0.00     0.032 A 
HETATM    3  C6  UNL     1      23.770  -0.605  54.209  1.00  0.00     0.035 A 
HETATM    4  C7  UNL     1      23.409   0.509  53.484  1.00  0.00     0.072 A 
HETATM    5  N2  UNL     1      22.119   0.636  53.189  1.00  0.00    -0.241 NA
HETATM    6  C8  UNL     1      21.758   1.715  52.484  1.00  0.00     0.235 A 
HETATM    7  N3  UNL     1      22.665   2.597  52.113  1.00  0.00    -0.224 NA
HETATM    8  C9  UNL     1      23.984   2.569  52.353  1.00  0.00     0.137 A 
HETATM    9  C21 UNL     1      24.331   1.449  53.080  1.00  0.00     0.041 A 
HETATM   10  C22 UNL     1      25.624   1.201  53.448  1.00  0.00     0.047 A 
ENDROOT
BRANCH   8  11
HETATM   11  N4  UNL     1      24.925   3.530  51.927  1.00  0.00    -0.373 N 
HETATM   12  H8  UNL     1      25.394   4.087  52.671  1.00  0.00     0.161 HD
BRANCH  11  13
HETATM   13  C10 UNL     1      25.348   3.873  50.619  1.00  0.00     0.135 C 
BRANCH  13  14
HETATM   14  C11 UNL     1      24.800   5.094  49.993  1.00  0.00    -0.004 C 
HETATM   15  C12 UNL     1      25.922   5.774  49.241  1.00  0.00     0.021 C 
HETATM   16  C13 UNL     1      24.034   6.024  50.881  1.00  0.00     0.021 C 
BRANCH  14  17
HETATM   17  C14 UNL     1      23.806   4.676  48.928  1.00  0.00    -0.049 A 
HETATM   18  C15 UNL     1      23.432   5.703  48.051  1.00  0.00     0.008 A 
HETATM   19  C16 UNL     1      22.535   5.491  47.034  1.00  0.00     0.007 A 
HETATM   20  C17 UNL     1      21.971   4.250  46.845  1.00  0.00    -0.062 A 
HETATM   21  C18 UNL     1      20.990   3.897  45.782  1.00  0.00     0.048 C 
HETATM   22  C19 UNL     1      22.342   3.247  47.709  1.00  0.00     0.007 A 
HETATM   23  C20 UNL     1      23.240   3.433  48.737  1.00  0.00     0.008 A 
ENDBRANCH  14  17
ENDBRANCH  13  14
ENDBRANCH  11  13
ENDBRANCH   8  11
BRANCH   1  24
HETATM   24  N1  UNL     1      27.372  -0.167  54.561  1.00  0.00    -0.324 N 
HETATM   25  C3  UNL     1      27.989  -0.930  53.529  1.00  0.00     0.241 C 
HETATM   26  O1  UNL     1      27.561  -1.363  52.423  1.00  0.00    -0.269 OA
HETATM   27  H4  UNL     1      28.032   0.003  55.323  1.00  0.00     0.169 HD
BRANCH  25  28
HETATM   28  C2  UNL     1      29.336  -1.475  53.395  1.00  0.00     0.048 C 
HETATM   29  C1  UNL     1      29.929  -0.304  53.557  1.00  0.00     0.037 C 
ENDBRANCH  25  28
ENDBRANCH   1  24
TORSDOF 6
ENDMDL
MODEL 8
REMARK VINA RESULT:      -8.1      2.792      7.716
REMARK  6 active torsions:
REMARK  status: ('A' for Active; 'I' for Inactive)
REMARK    1  A    between atoms: C2_2  and  C3_3 
REMARK       I    between atoms: C3_3  and  N1_5 
REMARK    2  A    between atoms: N1_5  and  C4_6 
REMARK    3  A    between atoms: C9_13  and  N4_14 
REMARK    4  A    between atoms: N4_14  and  C10_15 
REMARK    5  A    between atoms: C10_15  and  C11_16 
REMARK    6  A    between atoms: C11_16  and  C14_19 
ROOT
HETATM    1  C4  UNL     1      25.833   7.651  50.047  1.00  0.00     0.036 A 
HETATM    2  C5  UNL     1      24.895   8.638  49.726  1.00  0.00     0.032 A 
HETATM    3  C6  UNL     1      23.570   8.336  49.957  1.00  0.00     0.035 A 
HETATM    4  C7  UNL     1      23.181   7.123  50.480  1.00  0.00     0.072 A 
HETATM    5  N2  UNL     1      21.877   6.942  50.661  1.00  0.00    -0.241 NA
HETATM    6  C8  UNL     1      21.489   5.766  51.168  1.00  0.00     0.235 A 
HETATM    7  N3  UNL     1      22.384   4.846  51.467  1.00  0.00    -0.224 NA
HETATM    8  C9  UNL     1      23.716   4.921  51.327  1.00  0.00     0.137 A 
HETATM    9  C21 UNL     1      24.091   6.140  50.803  1.00  0.00     0.041 A 
HETATM   10  C22 UNL     1      25.401   6.451  50.569  1.00  0.00     0.047 A 
ENDROOT
BRANCH   8  11
HETATM   11  N4  UNL     1      24.643   3.914  51.670  1.00  0.00    -0.373 N 
HETATM   12  H8  UNL     1      25.504   4.221  52.170  1.00  0.00     0.161 HD
BRANCH  11  13
HETATM   13  C10 UNL     1      24.598   2.516  51.440  1.00  0.00     0.135 C 
BRANCH  13  14
HETATM   14  C11 UNL     1      25.191   1.612  52.446  1.00  0.00    -0.004 C 
HETATM   15  C12 UNL     1      25.628   2.453  53.625  1.00  0.00     0.021 C 
HETATM   16  C13 UNL     1      26.249   0.667  51.968  1.00  0.00     0.021 C 
BRANCH  14  17
HETATM   17  C14 UNL     1      24.093   0.716  52.984  1.00  0.00    -0.049 A 
HETATM   18  C15 UNL     1      22.798   1.105  52.618  1.00  0.00     0.008 A 
HETATM   19  C16 UNL     1      21.692   0.404  53.029  1.00  0.00     0.007 A 
HETATM   20  C17 UNL     1      21.825  -0.714  53.820  1.00  0.00    -0.062 A 
HETATM   21  C18 UNL     1      20.706  -1.555  54.327  1.00  0.00     0.048 C 
HETATM   22  C19 UNL     1      23.098  -1.090  54.176  1.00  0.00     0.007 A 
HETATM   23  C20 UNL     1      24.225  -0.404  53.778  1.00  0.00     0.008 A 
ENDBRANCH  14  17
ENDBRANCH  13  14
ENDBRANCH  11  13
ENDBRANCH   8  11
BRANCH   1  24
HETATM   24  N1  UNL     1      27.195   7.987  49.800  1.00  0.00    -0.324 N 
HETATM   25  C3  UNL     1      27.646   7.225  48.685  1.00  0.00     0.241 C 
HETATM   26  O1  UNL     1      27.069   6.374  47.951  1.00  0.00    -0.269 OA
HETATM   27  H4  UNL     1      27.947   8.584  50.151  1.00  0.00     0.169 HD
BRANCH  25  28
HETATM   28  C2  UNL     1      28.935   7.164  48.004  1.00  0.00     0.048 C 
HETATM   29  C1  UNL     1      29.063   5.857  48.160  1.00  0.00     0.037 C 
ENDBRANCH  25  28
ENDBRANCH   1  24
TORSDOF 6
ENDMDL
MODEL 9
REMARK VINA RESULT:      -7.9      2.949      7.399
REMARK  6 active torsions:
REMARK  status: ('A' for Active; 'I' for Inactive)
REMARK    1  A    between atoms: C2_2  and  C3_3 
REMARK       I    between atoms: C3_3  and  N1_5 
REMARK    2  A    between atoms: N1_5  and  C4_6 
REMARK    3  A    between atoms: C9_13  and  N4_14 
REMARK    4  A    between atoms: N4_14  and  C10_15 
REMARK    5  A    between atoms: C10_15  and  C11_16 
REMARK    6  A    between atoms: C11_16  and  C14_19 
ROOT
HETATM    1  C4  UNL     1      28.328   5.957  48.141  1.00  0.00     0.036 A 
HETATM    2  C5  UNL     1      27.892   7.087  47.440  1.00  0.00     0.032 A 
HETATM    3  C6  UNL     1      26.579   7.465  47.625  1.00  0.00     0.035 A 
HETATM    4  C7  UNL     1      25.732   6.769  48.458  1.00  0.00     0.072 A 
HETATM    5  N2  UNL     1      24.488   7.226  48.559  1.00  0.00    -0.241 NA
HETATM    6  C8  UNL     1      23.656   6.556  49.367  1.00  0.00     0.235 A 
HETATM    7  N3  UNL     1      24.081   5.493  50.021  1.00  0.00    -0.224 NA
HETATM    8  C9  UNL     1      25.306   4.949  49.994  1.00  0.00     0.137 A 
HETATM    9  C21 UNL     1      26.144   5.655  49.156  1.00  0.00     0.041 A 
HETATM   10  C22 UNL     1      27.447   5.290  48.964  1.00  0.00     0.047 A 
ENDROOT
BRANCH   8  11
HETATM   11  N4  UNL     1      25.725   3.813  50.719  1.00  0.00    -0.373 N 
HETATM   12  H8  UNL     1      26.658   3.870  51.178  1.00  0.00     0.161 HD
BRANCH  11  13
HETATM   13  C10 UNL     1      25.070   2.575  50.933  1.00  0.00     0.135 C 
BRANCH  13  14
HETATM   14  C11 UNL     1      24.933   2.075  52.317  1.00  0.00    -0.004 C 
HETATM   15  C12 UNL     1      23.895   0.976  52.311  1.00  0.00     0.021 C 
HETATM   16  C13 UNL     1      24.708   3.097  53.387  1.00  0.00     0.021 C 
BRANCH  14  17
HETATM   17  C14 UNL     1      26.230   1.393  52.705  1.00  0.00    -0.049 A 
HETATM   18  C15 UNL     1      26.275   0.024  52.408  1.00  0.00     0.008 A 
HETATM   19  C16 UNL     1      27.376  -0.741  52.702  1.00  0.00     0.007 A 
HETATM   20  C17 UNL     1      28.479  -0.179  53.303  1.00  0.00    -0.062 A 
HETATM   21  C18 UNL     1      29.728  -0.902  53.669  1.00  0.00     0.048 C 
HETATM   22  C19 UNL     1      28.428   1.164  53.591  1.00  0.00     0.007 A 
HETATM   23  C20 UNL     1      27.336   1.954  53.307  1.00  0.00     0.008 A 
ENDBRANCH  14  17
ENDBRANCH  13  14
ENDBRANCH  11  13
ENDBRANCH   8  11
BRANCH   1  24
HETATM   24  N1  UNL     1      29.687   5.585  47.934  1.00  0.00    -0.324 N 
HETATM   25  C3  UNL     1      30.515   6.624  48.445  1.00  0.00     0.241 C 
HETATM   26  O1  UNL     1      30.247   7.724  49.004  1.00  0.00    -0.269 OA
HETATM   27  H4  UNL     1      30.259   4.831  47.546  1.00  0.00     0.169 HD
BRANCH  25  28
HETATM   28  C2  UNL     1      31.965   6.774  48.500  1.00  0.00     0.048 C 
HETATM   29  C1  UNL     1      31.948   7.444  49.641  1.00  0.00     0.037 C 
ENDBRANCH  25  28
ENDBRANCH   1  24
TORSDOF 6
ENDMDL
