MODEL 1
REMARK VINA RESULT:      -7.9      0.000      0.000
REMARK  6 active torsions:
REMARK  status: ('A' for Active; 'I' for Inactive)
REMARK    1  A    between atoms: N2_5  and  C4_6 
REMARK    2  A    between atoms: C4_6  and  C5_7 
REMARK    3  A    between atoms: C5_7  and  C6_8 
REMARK    4  A    between atoms: C7_9  and  C8_10 
REMARK       I    between atoms: C8_10  and  N3_12 
REMARK    5  A    between atoms: N3_12  and  C9_13 
REMARK    6  A    between atoms: C12_16  and  N4_17 
ROOT
HETATM    1  C8  UNL     1      26.681   3.820  49.704  1.00  0.00     0.302 C 
HETATM    2  O1  UNL     1      26.958   2.662  49.255  1.00  0.00    -0.258 OA
HETATM    3  N3  UNL     1      25.949   3.902  50.920  1.00  0.00    -0.301 N 
HETATM    4  H12 UNL     1      25.740   4.877  51.255  1.00  0.00     0.171 HD
ENDROOT
BRANCH   3   5
HETATM    5  C9  UNL     1      25.502   2.787  51.674  1.00  0.00     0.131 A 
HETATM    6  C10 UNL     1      26.271   2.228  52.684  1.00  0.00     0.068 A 
HETATM    7  C11 UNL     1      25.738   1.143  53.354  1.00  0.00     0.046 A 
HETATM    8  C12 UNL     1      26.467   0.547  54.371  1.00  0.00     0.165 A 
HETATM    9  C14 UNL     1      24.503   0.601  53.071  1.00  0.00     0.089 A 
HETATM   10  N5  UNL     1      26.026  -0.516  55.080  1.00  0.00    -0.222 NA
HETATM   11  C13 UNL     1      24.812  -1.005  54.762  1.00  0.00     0.236 A 
HETATM   12  N6  UNL     1      24.092  -0.450  53.787  1.00  0.00    -0.240 NA
HETATM   13  C15 UNL     1      23.791   1.211  52.050  1.00  0.00     0.151 A 
HETATM   14  N7  UNL     1      24.303   2.258  51.403  1.00  0.00    -0.241 NA
BRANCH   8  15
HETATM   15  N4  UNL     1      27.749   1.071  54.699  1.00  0.00    -0.205 N 
HETATM   16  F1  UNL     1      28.513   0.093  55.257  1.00  0.00    -0.100 F 
HETATM   17  H14 UNL     1      28.409   1.881  54.716  1.00  0.00     0.201 HD
ENDBRANCH   8  15
ENDBRANCH   3   5
BRANCH   1  18
HETATM   18  C7  UNL     1      27.106   4.988  48.984  1.00  0.00    -0.005 C 
HETATM   19  C6  UNL     1      27.484   5.992  48.384  1.00  0.00    -0.095 C 
BRANCH  19  20
HETATM   20  C5  UNL     1      27.951   7.178  47.660  1.00  0.00     0.124 C 
BRANCH  20  21
HETATM   21  C4  UNL     1      28.853   8.013  48.498  1.00  0.00     0.284 C 
BRANCH  21  22
HETATM   22  N2  UNL     1      29.950   8.650  47.936  1.00  0.00     0.092 N 
HETATM   23  C3  UNL     1      30.672   8.132  46.857  1.00  0.00     0.302 C 
HETATM   24  C2  UNL     1      31.835   7.239  47.312  1.00  0.00     0.302 C 
HETATM   25  N1  UNL     1      31.454   6.793  48.637  1.00  0.00     0.087 N 
HETATM   26  C1  UNL     1      32.110   5.574  48.972  1.00  0.00     0.310 C 
HETATM   27  C17 UNL     1      31.626   7.878  49.549  1.00  0.00     0.302 C 
HETATM   28  C16 UNL     1      30.880   9.083  48.961  1.00  0.00     0.302 C 
ENDBRANCH  21  22
ENDBRANCH  20  21
ENDBRANCH  19  20
ENDBRANCH   1  18
TORSDOF 6
ENDMDL
MODEL 2
REMARK VINA RESULT:      -7.8      1.140      2.013
REMARK  6 active torsions:
REMARK  status: ('A' for Active; 'I' for Inactive)
REMARK    1  A    between atoms: N2_5  and  C4_6 
REMARK    2  A    between atoms: C4_6  and  C5_7 
REMARK    3  A    between atoms: C5_7  and  C6_8 
REMARK    4  A    between atoms: C7_9  and  C8_10 
REMARK       I    between atoms: C8_10  and  N3_12 
REMARK    5  A    between atoms: N3_12  and  C9_13 
REMARK    6  A    between atoms: C12_16  and  N4_17 
ROOT
HETATM    1  C8  UNL     1      26.700   3.825  49.669  1.00  0.00     0.302 C 
HETATM    2  O1  UNL     1      26.975   2.663  49.228  1.00  0.00    -0.258 OA
HETATM    3  N3  UNL     1      25.965   3.917  50.882  1.00  0.00    -0.301 N 
HETATM    4  H12 UNL     1      25.758   4.896  51.210  1.00  0.00     0.171 HD
ENDROOT
BRANCH   3   5
HETATM    5  C9  UNL     1      25.511   2.809  51.641  1.00  0.00     0.131 A 
HETATM    6  C10 UNL     1      26.291   2.226  52.628  1.00  0.00     0.068 A 
HETATM    7  C11 UNL     1      25.751   1.151  53.306  1.00  0.00     0.046 A 
HETATM    8  C12 UNL     1      26.490   0.532  54.301  1.00  0.00     0.165 A 
HETATM    9  C14 UNL     1      24.496   0.640  53.052  1.00  0.00     0.089 A 
HETATM   10  N5  UNL     1      26.043  -0.525  55.016  1.00  0.00    -0.222 NA
HETATM   11  C13 UNL     1      24.810  -0.983  54.726  1.00  0.00     0.236 A 
HETATM   12  N6  UNL     1      24.079  -0.406  53.773  1.00  0.00    -0.240 NA
HETATM   13  C15 UNL     1      23.772   1.272  52.053  1.00  0.00     0.151 A 
HETATM   14  N7  UNL     1      24.293   2.310  51.398  1.00  0.00    -0.241 NA
BRANCH   8  15
HETATM   15  N4  UNL     1      27.793   1.023  54.599  1.00  0.00    -0.205 N 
HETATM   16  F1  UNL     1      28.487   0.085  55.299  1.00  0.00    -0.100 F 
HETATM   17  H14 UNL     1      28.497   1.792  54.532  1.00  0.00     0.201 HD
ENDBRANCH   8  15
ENDBRANCH   3   5
BRANCH   1  18
HETATM   18  C7  UNL     1      27.133   4.986  48.942  1.00  0.00    -0.005 C 
HETATM   19  C6  UNL     1      27.486   5.991  48.329  1.00  0.00    -0.095 C 
BRANCH  19  20
HETATM   20  C5  UNL     1      27.918   7.196  47.615  1.00  0.00     0.124 C 
BRANCH  20  21
HETATM   21  C4  UNL     1      29.294   7.603  48.008  1.00  0.00     0.284 C 
BRANCH  21  22
HETATM   22  N2  UNL     1      29.499   8.420  49.111  1.00  0.00     0.092 N 
HETATM   23  C3  UNL     1      28.654   9.478  49.454  1.00  0.00     0.302 C 
HETATM   24  C2  UNL     1      29.085  10.800  48.803  1.00  0.00     0.302 C 
HETATM   25  N1  UNL     1      29.855  10.400  47.643  1.00  0.00     0.087 N 
HETATM   26  C1  UNL     1      29.862  11.428  46.657  1.00  0.00     0.310 C 
HETATM   27  C17 UNL     1      31.131   9.933  48.083  1.00  0.00     0.302 C 
HETATM   28  C16 UNL     1      30.875   8.878  49.167  1.00  0.00     0.302 C 
ENDBRANCH  21  22
ENDBRANCH  20  21
ENDBRANCH  19  20
ENDBRANCH   1  18
TORSDOF 6
ENDMDL
MODEL 3
REMARK VINA RESULT:      -7.5      1.638      2.097
REMARK  6 active torsions:
REMARK  status: ('A' for Active; 'I' for Inactive)
REMARK    1  A    between atoms: N2_5  and  C4_6 
REMARK    2  A    between atoms: C4_6  and  C5_7 
REMARK    3  A    between atoms: C5_7  and  C6_8 
REMARK    4  A    between atoms: C7_9  and  C8_10 
REMARK       I    between atoms: C8_10  and  N3_12 
REMARK    5  A    between atoms: N3_12  and  C9_13 
REMARK    6  A    between atoms: C12_16  and  N4_17 
ROOT
HETATM    1  C8  UNL     1      26.152   3.791  49.702  1.00  0.00     0.302 C 
HETATM    2  O1  UNL     1      25.207   3.290  49.013  1.00  0.00    -0.258 OA
HETATM    3  N3  UNL     1      26.185   3.499  51.093  1.00  0.00    -0.301 N 
HETATM    4  H12 UNL     1      26.982   3.933  51.626  1.00  0.00     0.171 HD
ENDROOT
BRANCH   3   5
HETATM    5  C9  UNL     1      25.239   2.691  51.774  1.00  0.00     0.131 A 
HETATM    6  C10 UNL     1      25.611   1.542  52.456  1.00  0.00     0.068 A 
HETATM    7  C11 UNL     1      24.608   0.830  53.084  1.00  0.00     0.046 A 
HETATM    8  C12 UNL     1      24.926  -0.327  53.778  1.00  0.00     0.165 A 
HETATM    9  C14 UNL     1      23.280   1.201  53.065  1.00  0.00     0.089 A 
HETATM   10  N5  UNL     1      24.012  -1.087  54.422  1.00  0.00    -0.222 NA
HETATM   11  C13 UNL     1      22.730  -0.678  54.371  1.00  0.00     0.236 A 
HETATM   12  N6  UNL     1      22.397   0.431  53.710  1.00  0.00    -0.240 NA
HETATM   13  C15 UNL     1      22.982   2.359  52.366  1.00  0.00     0.151 A 
HETATM   14  N7  UNL     1      23.949   3.048  51.760  1.00  0.00    -0.241 NA
BRANCH   8  15
HETATM   15  N4  UNL     1      26.284  -0.752  53.824  1.00  0.00    -0.205 N 
HETATM   16  F1  UNL     1      26.482  -1.750  52.922  1.00  0.00    -0.100 F 
HETATM   17  H14 UNL     1      27.238  -0.657  54.238  1.00  0.00     0.201 HD
ENDBRANCH   8  15
ENDBRANCH   3   5
BRANCH   1  18
HETATM   18  C7  UNL     1      27.141   4.618  49.068  1.00  0.00    -0.005 C 
HETATM   19  C6  UNL     1      27.976   5.344  48.533  1.00  0.00    -0.095 C 
BRANCH  19  20
HETATM   20  C5  UNL     1      28.985   6.209  47.914  1.00  0.00     0.124 C 
BRANCH  20  21
HETATM   21  C4  UNL     1      30.328   6.006  48.520  1.00  0.00     0.284 C 
BRANCH  21  22
HETATM   22  N2  UNL     1      31.430   6.701  48.042  1.00  0.00     0.092 N 
HETATM   23  C3  UNL     1      31.663   6.936  46.684  1.00  0.00     0.302 C 
HETATM   24  C2  UNL     1      32.495   5.820  46.037  1.00  0.00     0.302 C 
HETATM   25  N1  UNL     1      32.278   4.666  46.885  1.00  0.00     0.087 N 
HETATM   26  C1  UNL     1      32.506   3.457  46.166  1.00  0.00     0.310 C 
HETATM   27  C17 UNL     1      33.023   4.839  48.090  1.00  0.00     0.302 C 
HETATM   28  C16 UNL     1      32.653   6.217  48.654  1.00  0.00     0.302 C 
ENDBRANCH  21  22
ENDBRANCH  20  21
ENDBRANCH  19  20
ENDBRANCH   1  18
TORSDOF 6
ENDMDL
MODEL 4
REMARK VINA RESULT:      -7.4      2.233      3.034
REMARK  6 active torsions:
REMARK  status: ('A' for Active; 'I' for Inactive)
REMARK    1  A    between atoms: N2_5  and  C4_6 
REMARK    2  A    between atoms: C4_6  and  C5_7 
REMARK    3  A    between atoms: C5_7  and  C6_8 
REMARK    4  A    between atoms: C7_9  and  C8_10 
REMARK       I    between atoms: C8_10  and  N3_12 
REMARK    5  A    between atoms: N3_12  and  C9_13 
REMARK    6  A    between atoms: C12_16  and  N4_17 
ROOT
HETATM    1  C8  UNL     1      26.413   3.700  49.694  1.00  0.00     0.302 C 
HETATM    2  O1  UNL     1      25.389   3.220  49.111  1.00  0.00    -0.258 OA
HETATM    3  N3  UNL     1      26.717   3.226  50.999  1.00  0.00    -0.301 N 
HETATM    4  H12 UNL     1      27.571   3.650  51.445  1.00  0.00     0.171 HD
ENDROOT
BRANCH   3   5
HETATM    5  C9  UNL     1      25.962   2.256  51.705  1.00  0.00     0.131 A 
HETATM    6  C10 UNL     1      24.595   2.388  51.900  1.00  0.00     0.068 A 
HETATM    7  C11 UNL     1      23.958   1.384  52.602  1.00  0.00     0.046 A 
HETATM    8  C12 UNL     1      22.593   1.469  52.824  1.00  0.00     0.165 A 
HETATM    9  C14 UNL     1      24.605   0.277  53.109  1.00  0.00     0.089 A 
HETATM   10  N5  UNL     1      21.887   0.535  53.500  1.00  0.00    -0.222 NA
HETATM   11  C13 UNL     1      22.569  -0.525  53.973  1.00  0.00     0.236 A 
HETATM   12  N6  UNL     1      23.882  -0.631  53.774  1.00  0.00    -0.240 NA
HETATM   13  C15 UNL     1      25.969   0.211  52.877  1.00  0.00     0.151 A 
HETATM   14  N7  UNL     1      26.585   1.180  52.199  1.00  0.00    -0.241 NA
BRANCH   8  15
HETATM   15  N4  UNL     1      21.881   2.595  52.321  1.00  0.00    -0.205 N 
HETATM   16  F1  UNL     1      20.668   2.678  52.930  1.00  0.00    -0.100 F 
HETATM   17  H14 UNL     1      21.846   3.419  51.681  1.00  0.00     0.201 HD
ENDBRANCH   8  15
ENDBRANCH   3   5
BRANCH   1  18
HETATM   18  C7  UNL     1      27.218   4.687  49.028  1.00  0.00    -0.005 C 
HETATM   19  C6  UNL     1      27.924   5.521  48.466  1.00  0.00    -0.095 C 
BRANCH  19  20
HETATM   20  C5  UNL     1      28.767   6.503  47.778  1.00  0.00     0.124 C 
BRANCH  20  21
HETATM   21  C4  UNL     1      30.213   6.240  48.004  1.00  0.00     0.284 C 
BRANCH  21  22
HETATM   22  N2  UNL     1      30.880   6.833  49.066  1.00  0.00     0.092 N 
HETATM   23  C3  UNL     1      31.406   8.127  49.020  1.00  0.00     0.302 C 
HETATM   24  C2  UNL     1      32.858   8.145  48.521  1.00  0.00     0.302 C 
HETATM   25  N1  UNL     1      32.995   6.924  47.755  1.00  0.00     0.087 N 
HETATM   26  C1  UNL     1      34.046   7.038  46.800  1.00  0.00     0.310 C 
HETATM   27  C17 UNL     1      33.078   5.825  48.662  1.00  0.00     0.302 C 
HETATM   28  C16 UNL     1      31.881   5.937  49.615  1.00  0.00     0.302 C 
ENDBRANCH  21  22
ENDBRANCH  20  21
ENDBRANCH  19  20
ENDBRANCH   1  18
TORSDOF 6
ENDMDL
MODEL 5
REMARK VINA RESULT:      -7.2      2.322      3.556
REMARK  6 active torsions:
REMARK  status: ('A' for Active; 'I' for Inactive)
REMARK    1  A    between atoms: N2_5  and  C4_6 
REMARK    2  A    between atoms: C4_6  and  C5_7 
REMARK    3  A    between atoms: C5_7  and  C6_8 
REMARK    4  A    between atoms: C7_9  and  C8_10 
REMARK       I    between atoms: C8_10  and  N3_12 
REMARK    5  A    between atoms: N3_12  and  C9_13 
REMARK    6  A    between atoms: C12_16  and  N4_17 
ROOT
HETATM    1  C8  UNL     1      26.653   3.875  49.652  1.00  0.00     0.302 C 
HETATM    2  O1  UNL     1      26.987   2.712  49.261  1.00  0.00    -0.258 OA
HETATM    3  N3  UNL     1      25.812   3.975  50.794  1.00  0.00    -0.301 N 
HETATM    4  H12 UNL     1      25.559   4.955  51.083  1.00  0.00     0.171 HD
ENDROOT
BRANCH   3   5
HETATM    5  C9  UNL     1      25.313   2.872  51.532  1.00  0.00     0.131 A 
HETATM    6  C10 UNL     1      24.061   2.328  51.285  1.00  0.00     0.068 A 
HETATM    7  C11 UNL     1      23.676   1.254  52.063  1.00  0.00     0.046 A 
HETATM    8  C12 UNL     1      22.434   0.675  51.857  1.00  0.00     0.165 A 
HETATM    9  C14 UNL     1      24.462   0.709  53.056  1.00  0.00     0.089 A 
HETATM   10  N5  UNL     1      21.973  -0.377  52.570  1.00  0.00    -0.222 NA
HETATM   11  C13 UNL     1      22.782  -0.870  53.527  1.00  0.00     0.236 A 
HETATM   12  N6  UNL     1      23.981  -0.331  53.746  1.00  0.00    -0.240 NA
HETATM   13  C15 UNL     1      25.699   1.302  53.247  1.00  0.00     0.151 A 
HETATM   14  N7  UNL     1      26.073   2.339  52.496  1.00  0.00    -0.241 NA
BRANCH   8  15
HETATM   15  N4  UNL     1      21.586   1.205  50.844  1.00  0.00    -0.205 N 
HETATM   16  F1  UNL     1      21.529   0.340  49.796  1.00  0.00    -0.100 F 
HETATM   17  H14 UNL     1      20.961   1.973  50.510  1.00  0.00     0.201 HD
ENDBRANCH   8  15
ENDBRANCH   3   5
BRANCH   1  18
HETATM   18  C7  UNL     1      27.126   5.032  48.944  1.00  0.00    -0.005 C 
HETATM   19  C6  UNL     1      27.531   6.033  48.357  1.00  0.00    -0.095 C 
BRANCH  19  20
HETATM   20  C5  UNL     1      28.035   7.221  47.660  1.00  0.00     0.124 C 
BRANCH  20  21
HETATM   21  C4  UNL     1      28.701   8.165  48.598  1.00  0.00     0.284 C 
BRANCH  21  22
HETATM   22  N2  UNL     1      30.014   8.561  48.386  1.00  0.00     0.092 N 
HETATM   23  C3  UNL     1      30.777   9.241  49.339  1.00  0.00     0.302 C 
HETATM   24  C2  UNL     1      30.639  10.765  49.211  1.00  0.00     0.302 C 
HETATM   25  N1  UNL     1      29.370  10.961  48.541  1.00  0.00     0.087 N 
HETATM   26  C1  UNL     1      28.839  12.252  48.825  1.00  0.00     0.310 C 
HETATM   27  C17 UNL     1      29.527  10.628  47.162  1.00  0.00     0.302 C 
HETATM   28  C16 UNL     1      30.153   9.229  47.106  1.00  0.00     0.302 C 
ENDBRANCH  21  22
ENDBRANCH  20  21
ENDBRANCH  19  20
ENDBRANCH   1  18
TORSDOF 6
ENDMDL
MODEL 6
REMARK VINA RESULT:      -6.9      2.029      3.147
REMARK  6 active torsions:
REMARK  status: ('A' for Active; 'I' for Inactive)
REMARK    1  A    between atoms: N2_5  and  C4_6 
REMARK    2  A    between atoms: C4_6  and  C5_7 
REMARK    3  A    between atoms: C5_7  and  C6_8 
REMARK    4  A    between atoms: C7_9  and  C8_10 
REMARK       I    between atoms: C8_10  and  N3_12 
REMARK    5  A    between atoms: N3_12  and  C9_13 
REMARK    6  A    between atoms: C12_16  and  N4_17 
ROOT
HETATM    1  C8  UNL     1      25.396   3.685  49.855  1.00  0.00     0.302 C 
HETATM    2  O1  UNL     1      24.572   3.081  49.097  1.00  0.00    -0.258 OA
HETATM    3  N3  UNL     1      25.250   3.519  51.259  1.00  0.00    -0.301 N 
HETATM    4  H12 UNL     1      25.951   4.036  51.849  1.00  0.00     0.171 HD
ENDROOT
BRANCH   3   5
HETATM    5  C9  UNL     1      24.251   2.729  51.882  1.00  0.00     0.131 A 
HETATM    6  C10 UNL     1      24.558   1.558  52.560  1.00  0.00     0.068 A 
HETATM    7  C11 UNL     1      23.507   0.866  53.130  1.00  0.00     0.046 A 
HETATM    8  C12 UNL     1      23.759  -0.310  53.817  1.00  0.00     0.165 A 
HETATM    9  C14 UNL     1      22.192   1.276  53.057  1.00  0.00     0.089 A 
HETATM   10  N5  UNL     1      22.795  -1.053  54.406  1.00  0.00    -0.222 NA
HETATM   11  C13 UNL     1      21.528  -0.605  54.304  1.00  0.00     0.236 A 
HETATM   12  N6  UNL     1      21.259   0.523  53.647  1.00  0.00    -0.240 NA
HETATM   13  C15 UNL     1      21.961   2.454  52.365  1.00  0.00     0.151 A 
HETATM   14  N7  UNL     1      22.974   3.123  51.815  1.00  0.00    -0.241 NA
BRANCH   8  15
HETATM   15  N4  UNL     1      25.101  -0.776  53.918  1.00  0.00    -0.205 N 
HETATM   16  F1  UNL     1      25.512  -0.708  55.213  1.00  0.00    -0.100 F 
HETATM   17  H14 UNL     1      25.953  -1.160  53.452  1.00  0.00     0.201 HD
ENDBRANCH   8  15
ENDBRANCH   3   5
BRANCH   1  18
HETATM   18  C7  UNL     1      26.430   4.501  49.282  1.00  0.00    -0.005 C 
HETATM   19  C6  UNL     1      27.329   5.183  48.796  1.00  0.00    -0.095 C 
BRANCH  19  20
HETATM   20  C5  UNL     1      28.399   5.988  48.197  1.00  0.00     0.124 C 
BRANCH  20  21
HETATM   21  C4  UNL     1      28.080   7.440  48.234  1.00  0.00     0.284 C 
BRANCH  21  22
HETATM   22  N2  UNL     1      29.095   8.384  48.290  1.00  0.00     0.092 N 
HETATM   23  C3  UNL     1      29.247   9.291  49.343  1.00  0.00     0.302 C 
HETATM   24  C2  UNL     1      28.485  10.600  49.095  1.00  0.00     0.302 C 
HETATM   25  N1  UNL     1      27.445  10.244  48.153  1.00  0.00     0.087 N 
HETATM   26  C1  UNL     1      26.352  11.154  48.234  1.00  0.00     0.310 C 
HETATM   27  C17 UNL     1      28.035  10.073  46.865  1.00  0.00     0.302 C 
HETATM   28  C16 UNL     1      29.208   9.098  47.033  1.00  0.00     0.302 C 
ENDBRANCH  21  22
ENDBRANCH  20  21
ENDBRANCH  19  20
ENDBRANCH   1  18
TORSDOF 6
ENDMDL
MODEL 7
REMARK VINA RESULT:      -6.8      2.026      2.853
REMARK  6 active torsions:
REMARK  status: ('A' for Active; 'I' for Inactive)
REMARK    1  A    between atoms: N2_5  and  C4_6 
REMARK    2  A    between atoms: C4_6  and  C5_7 
REMARK    3  A    between atoms: C5_7  and  C6_8 
REMARK    4  A    between atoms: C7_9  and  C8_10 
REMARK       I    between atoms: C8_10  and  N3_12 
REMARK    5  A    between atoms: N3_12  and  C9_13 
REMARK    6  A    between atoms: C12_16  and  N4_17 
ROOT
HETATM    1  C8  UNL     1      26.243   3.049  50.613  1.00  0.00     0.302 C 
HETATM    2  O1  UNL     1      25.041   2.670  50.436  1.00  0.00    -0.258 OA
HETATM    3  N3  UNL     1      26.951   2.511  51.722  1.00  0.00    -0.301 N 
HETATM    4  H12 UNL     1      27.941   2.851  51.833  1.00  0.00     0.171 HD
ENDROOT
BRANCH   3   5
HETATM    5  C9  UNL     1      26.418   1.582  52.651  1.00  0.00     0.131 A 
HETATM    6  C10 UNL     1      25.085   1.198  52.623  1.00  0.00     0.068 A 
HETATM    7  C11 UNL     1      24.671   0.286  53.574  1.00  0.00     0.046 A 
HETATM    8  C12 UNL     1      23.349  -0.129  53.590  1.00  0.00     0.165 A 
HETATM    9  C14 UNL     1      25.505  -0.250  54.532  1.00  0.00     0.089 A 
HETATM   10  N5  UNL     1      22.856  -1.016  54.482  1.00  0.00    -0.222 NA
HETATM   11  C13 UNL     1      23.715  -1.509  55.396  1.00  0.00     0.236 A 
HETATM   12  N6  UNL     1      24.991  -1.125  55.403  1.00  0.00    -0.240 NA
HETATM   13  C15 UNL     1      26.823   0.177  54.500  1.00  0.00     0.151 A 
HETATM   14  N7  UNL     1      27.224   1.058  53.582  1.00  0.00    -0.241 NA
BRANCH   8  15
HETATM   15  N4  UNL     1      22.449   0.399  52.621  1.00  0.00    -0.205 N 
HETATM   16  F1  UNL     1      21.305   0.806  53.233  1.00  0.00    -0.100 F 
HETATM   17  H14 UNL     1      22.242   0.630  51.624  1.00  0.00     0.201 HD
ENDBRANCH   8  15
ENDBRANCH   3   5
BRANCH   1  18
HETATM   18  C7  UNL     1      26.838   3.990  49.705  1.00  0.00    -0.005 C 
HETATM   19  C6  UNL     1      27.339   4.811  48.941  1.00  0.00    -0.095 C 
BRANCH  19  20
HETATM   20  C5  UNL     1      27.956   5.792  48.042  1.00  0.00     0.124 C 
BRANCH  20  21
HETATM   21  C4  UNL     1      27.817   7.178  48.563  1.00  0.00     0.284 C 
BRANCH  21  22
HETATM   22  N2  UNL     1      28.151   8.266  47.770  1.00  0.00     0.092 N 
HETATM   23  C3  UNL     1      29.185   8.247  46.830  1.00  0.00     0.302 C 
HETATM   24  C2  UNL     1      30.526   8.689  47.435  1.00  0.00     0.302 C 
HETATM   25  N1  UNL     1      30.386   8.437  48.854  1.00  0.00     0.087 N 
HETATM   26  C1  UNL     1      31.660   8.269  49.469  1.00  0.00     0.310 C 
HETATM   27  C17 UNL     1      29.539   9.441  49.413  1.00  0.00     0.302 C 
HETATM   28  C16 UNL     1      28.260   9.474  48.566  1.00  0.00     0.302 C 
ENDBRANCH  21  22
ENDBRANCH  20  21
ENDBRANCH  19  20
ENDBRANCH   1  18
TORSDOF 6
ENDMDL
MODEL 8
REMARK VINA RESULT:      -6.7      5.751      8.825
REMARK  6 active torsions:
REMARK  status: ('A' for Active; 'I' for Inactive)
REMARK    1  A    between atoms: N2_5  and  C4_6 
REMARK    2  A    between atoms: C4_6  and  C5_7 
REMARK    3  A    between atoms: C5_7  and  C6_8 
REMARK    4  A    between atoms: C7_9  and  C8_10 
REMARK       I    between atoms: C8_10  and  N3_12 
REMARK    5  A    between atoms: N3_12  and  C9_13 
REMARK    6  A    between atoms: C12_16  and  N4_17 
ROOT
HETATM    1  C8  UNL     1      21.587   1.770  51.635  1.00  0.00     0.302 C 
HETATM    2  O1  UNL     1      20.882   2.432  52.462  1.00  0.00    -0.258 OA
HETATM    3  N3  UNL     1      20.928   0.806  50.824  1.00  0.00    -0.301 N 
HETATM    4  H12 UNL     1      21.547   0.280  50.155  1.00  0.00     0.171 HD
ENDROOT
BRANCH   3   5
HETATM    5  C9  UNL     1      19.538   0.525  50.867  1.00  0.00     0.131 A 
HETATM    6  C10 UNL     1      18.972  -0.224  51.887  1.00  0.00     0.068 A 
HETATM    7  C11 UNL     1      17.608  -0.437  51.831  1.00  0.00     0.046 A 
HETATM    8  C12 UNL     1      16.993  -1.181  52.825  1.00  0.00     0.165 A 
HETATM    9  C14 UNL     1      16.800   0.051  50.826  1.00  0.00     0.089 A 
HETATM   10  N5  UNL     1      15.667  -1.440  52.852  1.00  0.00    -0.222 NA
HETATM   11  C13 UNL     1      14.924  -0.939  51.846  1.00  0.00     0.236 A 
HETATM   12  N6  UNL     1      15.491  -0.221  50.877  1.00  0.00    -0.240 NA
HETATM   13  C15 UNL     1      17.433   0.791  49.841  1.00  0.00     0.151 A 
HETATM   14  N7  UNL     1      18.749   0.998  49.895  1.00  0.00    -0.241 NA
BRANCH   8  15
HETATM   15  N4  UNL     1      17.788  -1.708  53.883  1.00  0.00    -0.205 N 
HETATM   16  F1  UNL     1      18.003  -3.034  53.677  1.00  0.00    -0.100 F 
HETATM   17  H14 UNL     1      18.304  -1.553  54.778  1.00  0.00     0.201 HD
ENDBRANCH   8  15
ENDBRANCH   3   5
BRANCH   1  18
HETATM   18  C7  UNL     1      23.001   2.010  51.547  1.00  0.00    -0.005 C 
HETATM   19  C6  UNL     1      24.206   2.236  51.475  1.00  0.00    -0.095 C 
BRANCH  19  20
HETATM   20  C5  UNL     1      25.647   2.503  51.411  1.00  0.00     0.124 C 
BRANCH  20  21
HETATM   21  C4  UNL     1      26.335   2.099  52.666  1.00  0.00     0.284 C 
BRANCH  21  22
HETATM   22  N2  UNL     1      27.206   1.019  52.676  1.00  0.00     0.092 N 
HETATM   23  C3  UNL     1      26.898  -0.224  52.115  1.00  0.00     0.302 C 
HETATM   24  C2  UNL     1      26.230  -1.168  53.124  1.00  0.00     0.302 C 
HETATM   25  N1  UNL     1      25.650  -0.287  54.117  1.00  0.00     0.087 N 
HETATM   26  C1  UNL     1      24.568  -0.924  54.791  1.00  0.00     0.310 C 
HETATM   27  C17 UNL     1      26.697   0.226  54.939  1.00  0.00     0.302 C 
HETATM   28  C16 UNL     1      27.760   0.813  54.001  1.00  0.00     0.302 C 
ENDBRANCH  21  22
ENDBRANCH  20  21
ENDBRANCH  19  20
ENDBRANCH   1  18
TORSDOF 6
ENDMDL
MODEL 9
REMARK VINA RESULT:      -6.7      4.914      9.922
REMARK  6 active torsions:
REMARK  status: ('A' for Active; 'I' for Inactive)
REMARK    1  A    between atoms: N2_5  and  C4_6 
REMARK    2  A    between atoms: C4_6  and  C5_7 
REMARK    3  A    between atoms: C5_7  and  C6_8 
REMARK    4  A    between atoms: C7_9  and  C8_10 
REMARK       I    between atoms: C8_10  and  N3_12 
REMARK    5  A    between atoms: N3_12  and  C9_13 
REMARK    6  A    between atoms: C12_16  and  N4_17 
ROOT
HETATM    1  C8  UNL     1      22.336   2.740  51.683  1.00  0.00     0.302 C 
HETATM    2  O1  UNL     1      22.770   3.688  52.412  1.00  0.00    -0.258 OA
HETATM    3  N3  UNL     1      23.226   1.674  51.381  1.00  0.00    -0.301 N 
HETATM    4  H12 UNL     1      22.828   0.912  50.775  1.00  0.00     0.171 HD
ENDROOT
BRANCH   3   5
HETATM    5  C9  UNL     1      24.568   1.586  51.832  1.00  0.00     0.131 A 
HETATM    6  C10 UNL     1      24.944   0.732  52.858  1.00  0.00     0.068 A 
HETATM    7  C11 UNL     1      26.277   0.727  53.218  1.00  0.00     0.046 A 
HETATM    8  C12 UNL     1      26.704  -0.108  54.238  1.00  0.00     0.165 A 
HETATM    9  C14 UNL     1      27.234   1.517  52.616  1.00  0.00     0.089 A 
HETATM   10  N5  UNL     1      27.987  -0.179  54.657  1.00  0.00    -0.222 NA
HETATM   11  C13 UNL     1      28.880   0.613  54.034  1.00  0.00     0.236 A 
HETATM   12  N6  UNL     1      28.495   1.426  53.051  1.00  0.00    -0.240 NA
HETATM   13  C15 UNL     1      26.787   2.344  51.599  1.00  0.00     0.151 A 
HETATM   14  N7  UNL     1      25.500   2.350  51.251  1.00  0.00    -0.241 NA
BRANCH   8  15
HETATM   15  N4  UNL     1      25.752  -0.941  54.891  1.00  0.00    -0.205 N 
HETATM   16  F1  UNL     1      25.673  -0.603  56.206  1.00  0.00    -0.100 F 
HETATM   17  H14 UNL     1      25.058  -1.720  54.838  1.00  0.00     0.201 HD
ENDBRANCH   8  15
ENDBRANCH   3   5
BRANCH   1  18
HETATM   18  C7  UNL     1      20.985   2.774  51.195  1.00  0.00    -0.005 C 
HETATM   19  C6  UNL     1      19.822   2.800  50.799  1.00  0.00    -0.095 C 
BRANCH  19  20
HETATM   20  C5  UNL     1      18.434   2.853  50.329  1.00  0.00     0.124 C 
BRANCH  20  21
HETATM   21  C4  UNL     1      17.476   2.478  51.403  1.00  0.00     0.284 C 
BRANCH  21  22
HETATM   22  N2  UNL     1      16.290   1.829  51.094  1.00  0.00     0.092 N 
HETATM   23  C3  UNL     1      15.356   1.432  52.056  1.00  0.00     0.302 C 
HETATM   24  C2  UNL     1      15.621   0.010  52.570  1.00  0.00     0.302 C 
HETATM   25  N1  UNL     1      17.029  -0.213  52.314  1.00  0.00     0.087 N 
HETATM   26  C1  UNL     1      17.554  -1.208  53.187  1.00  0.00     0.310 C 
HETATM   27  C17 UNL     1      17.207  -0.437  50.915  1.00  0.00     0.302 C 
HETATM   28  C16 UNL     1      16.525   0.725  50.183  1.00  0.00     0.302 C 
ENDBRANCH  21  22
ENDBRANCH  20  21
ENDBRANCH  19  20
ENDBRANCH   1  18
TORSDOF 6
ENDMDL
