MODEL 1
REMARK VINA RESULT:      -9.5      0.000      0.000
REMARK  5 active torsions:
REMARK  status: ('A' for Active; 'I' for Inactive)
REMARK    1  A    between atoms: O1_2  and  C2_3 
REMARK    2  A    between atoms: C6_7  and  C7_8 
REMARK    3  A    between atoms: C12_13  and  C13_14 
REMARK    4  A    between atoms: C13_14  and  O2_15 
REMARK    5  A    between atoms: C17_21  and  C18_22 
ROOT
HETATM    1  C7  UNL     1      25.272   0.670  53.221  1.00  0.00    -0.015 A 
HETATM    2  C8  UNL     1      24.899   1.690  52.353  1.00  0.00     0.013 A 
HETATM    3  C9  UNL     1      23.569   1.967  52.078  1.00  0.00     0.010 A 
HETATM    4  C10 UNL     1      22.606   1.202  52.689  1.00  0.00    -0.029 A 
HETATM    5  C11 UNL     1      23.033   0.205  53.543  1.00  0.00     0.050 A 
HETATM    6  C12 UNL     1      24.334  -0.116  53.855  1.00  0.00     0.004 A 
HETATM    7  N1  UNL     1      22.256  -0.704  54.320  1.00  0.00    -0.321 N 
HETATM    8  C14 UNL     1      20.961  -1.312  54.157  1.00  0.00     0.272 C 
HETATM    9  O3  UNL     1      20.830  -2.378  54.773  1.00  0.00    -0.266 OA
HETATM   10  C15 UNL     1      19.802  -0.835  53.367  1.00  0.00     0.097 C 
HETATM   11  C16 UNL     1      18.661  -1.339  53.781  1.00  0.00     0.022 C 
HETATM   12  C17 UNL     1      17.538  -0.849  52.983  1.00  0.00     0.095 C 
HETATM   13  C19 UNL     1      18.119   0.191  52.090  1.00  0.00     0.099 C 
HETATM   14  C20 UNL     1      17.862  -0.069  50.622  1.00  0.00     0.026 C 
HETATM   15  C21 UNL     1      18.503   1.103  49.911  1.00  0.00     0.004 C 
HETATM   16  C22 UNL     1      19.971   1.187  50.108  1.00  0.00     0.026 C 
HETATM   17  C23 UNL     1      20.534   0.704  51.380  1.00  0.00     0.089 C 
HETATM   18  C24 UNL     1      21.287   1.737  52.193  1.00  0.00     0.066 C 
HETATM   19  N2  UNL     1      19.574   0.043  52.247  1.00  0.00    -0.366 N 
HETATM   20  H12 UNL     1      22.740  -0.980  55.202  1.00  0.00     0.169 HD
ENDROOT
BRANCH   1  21
HETATM   21  C6  UNL     1      26.712   0.512  53.348  1.00  0.00    -0.023 A 
HETATM   22  C5  UNL     1      27.338   1.746  53.567  1.00  0.00     0.012 A 
HETATM   23  C4  UNL     1      28.704   1.880  53.705  1.00  0.00     0.004 A 
HETATM   24  C3  UNL     1      29.529   0.772  53.631  1.00  0.00     0.037 A 
HETATM   25  C2  UNL     1      28.893  -0.429  53.416  1.00  0.00     0.069 A 
HETATM   26  C25 UNL     1      27.547  -0.576  53.277  1.00  0.00     0.049 A 
BRANCH  25  27
HETATM   27  O1  UNL     1      29.647  -1.616  53.326  1.00  0.00    -0.356 OA
HETATM   28  C1  UNL     1      28.886  -2.822  53.178  1.00  0.00     0.210 C 
ENDBRANCH  25  27
ENDBRANCH   1  21
BRANCH   6  29
HETATM   29  C13 UNL     1      24.630  -1.175  54.797  1.00  0.00     0.206 C 
BRANCH  29  30
HETATM   30  O2  UNL     1      25.119  -0.778  56.048  1.00  0.00    -0.396 OA
HETATM   31  H11 UNL     1      25.492   0.111  55.911  1.00  0.00     0.209 HD
ENDBRANCH  29  30
ENDBRANCH   6  29
BRANCH  12  32
HETATM   32  C18 UNL     1      16.728  -1.880  52.323  1.00  0.00     0.241 C 
HETATM   33  O4  UNL     1      15.689  -2.513  52.237  1.00  0.00    -0.306 OA
ENDBRANCH  12  32
TORSDOF 5
ENDMDL
MODEL 2
REMARK VINA RESULT:      -9.1      5.545      7.867
REMARK  5 active torsions:
REMARK  status: ('A' for Active; 'I' for Inactive)
REMARK    1  A    between atoms: O1_2  and  C2_3 
REMARK    2  A    between atoms: C6_7  and  C7_8 
REMARK    3  A    between atoms: C12_13  and  C13_14 
REMARK    4  A    between atoms: C13_14  and  O2_15 
REMARK    5  A    between atoms: C17_21  and  C18_22 
ROOT
HETATM    1  C7  UNL     1      25.660   5.789  49.414  1.00  0.00    -0.015 A 
HETATM    2  C8  UNL     1      26.794   5.003  49.241  1.00  0.00     0.013 A 
HETATM    3  C9  UNL     1      26.836   3.679  49.645  1.00  0.00     0.010 A 
HETATM    4  C10 UNL     1      25.715   3.142  50.231  1.00  0.00    -0.029 A 
HETATM    5  C11 UNL     1      24.617   3.965  50.376  1.00  0.00     0.050 A 
HETATM    6  C12 UNL     1      24.516   5.284  49.995  1.00  0.00     0.004 A 
HETATM    7  N1  UNL     1      23.333   3.661  50.915  1.00  0.00    -0.321 N 
HETATM    8  C14 UNL     1      22.857   2.747  51.920  1.00  0.00     0.272 C 
HETATM    9  O3  UNL     1      21.788   3.091  52.442  1.00  0.00    -0.266 OA
HETATM   10  C15 UNL     1      23.470   1.483  52.393  1.00  0.00     0.097 C 
HETATM   11  C16 UNL     1      22.599   0.671  52.950  1.00  0.00     0.022 C 
HETATM   12  C17 UNL     1      23.233  -0.565  53.405  1.00  0.00     0.095 C 
HETATM   13  C19 UNL     1      24.630  -0.496  52.896  1.00  0.00     0.099 C 
HETATM   14  C20 UNL     1      25.671  -0.640  53.986  1.00  0.00     0.026 C 
HETATM   15  C21 UNL     1      26.996  -0.569  53.256  1.00  0.00     0.004 C 
HETATM   16  C22 UNL     1      27.229   0.726  52.571  1.00  0.00     0.026 C 
HETATM   17  C23 UNL     1      26.064   1.460  52.049  1.00  0.00     0.089 C 
HETATM   18  C24 UNL     1      26.071   1.714  50.556  1.00  0.00     0.066 C 
HETATM   19  N2  UNL     1      24.781   0.886  52.415  1.00  0.00    -0.366 N 
HETATM   20  H12 UNL     1      22.577   4.230  50.475  1.00  0.00     0.169 HD
ENDROOT
BRANCH   1  21
HETATM   21  C6  UNL     1      25.827   7.160  48.962  1.00  0.00    -0.023 A 
HETATM   22  C5  UNL     1      25.338   7.326  47.660  1.00  0.00     0.012 A 
HETATM   23  C4  UNL     1      25.391   8.528  46.985  1.00  0.00     0.004 A 
HETATM   24  C3  UNL     1      25.943   9.645  47.586  1.00  0.00     0.037 A 
HETATM   25  C2  UNL     1      26.418   9.460  48.864  1.00  0.00     0.069 A 
HETATM   26  C25 UNL     1      26.373   8.280  49.540  1.00  0.00     0.049 A 
BRANCH  25  27
HETATM   27  O1  UNL     1      26.999  10.538  49.559  1.00  0.00    -0.356 OA
HETATM   28  C1  UNL     1      28.096  11.182  48.895  1.00  0.00     0.210 C 
ENDBRANCH  25  27
ENDBRANCH   1  21
BRANCH   6  29
HETATM   29  C13 UNL     1      23.281   6.017  50.184  1.00  0.00     0.206 C 
BRANCH  29  30
HETATM   30  O2  UNL     1      23.109   6.636  51.428  1.00  0.00    -0.396 OA
HETATM   31  H11 UNL     1      23.178   7.592  51.255  1.00  0.00     0.209 HD
ENDBRANCH  29  30
ENDBRANCH   6  29
BRANCH  12  32
HETATM   32  C18 UNL     1      23.085  -0.869  54.833  1.00  0.00     0.241 C 
HETATM   33  O4  UNL     1      22.817  -1.658  55.723  1.00  0.00    -0.306 OA
ENDBRANCH  12  32
TORSDOF 5
ENDMDL
MODEL 3
REMARK VINA RESULT:      -9.0      6.102      9.130
REMARK  5 active torsions:
REMARK  status: ('A' for Active; 'I' for Inactive)
REMARK    1  A    between atoms: O1_2  and  C2_3 
REMARK    2  A    between atoms: C6_7  and  C7_8 
REMARK    3  A    between atoms: C12_13  and  C13_14 
REMARK    4  A    between atoms: C13_14  and  O2_15 
REMARK    5  A    between atoms: C17_21  and  C18_22 
ROOT
HETATM    1  C7  UNL     1      24.171   2.514  51.089  1.00  0.00    -0.015 A 
HETATM    2  C8  UNL     1      22.995   3.191  50.781  1.00  0.00     0.013 A 
HETATM    3  C9  UNL     1      22.977   4.268  49.911  1.00  0.00     0.010 A 
HETATM    4  C10 UNL     1      24.164   4.666  49.344  1.00  0.00    -0.029 A 
HETATM    5  C11 UNL     1      25.299   3.958  49.682  1.00  0.00     0.050 A 
HETATM    6  C12 UNL     1      25.379   2.882  50.537  1.00  0.00     0.004 A 
HETATM    7  N1  UNL     1      26.637   4.136  49.223  1.00  0.00    -0.321 N 
HETATM    8  C14 UNL     1      27.403   5.270  48.776  1.00  0.00     0.272 C 
HETATM    9  O3  UNL     1      28.626   5.131  48.912  1.00  0.00    -0.266 OA
HETATM   10  C15 UNL     1      26.923   6.545  48.193  1.00  0.00     0.097 C 
HETATM   11  C16 UNL     1      27.842   7.157  47.480  1.00  0.00     0.022 C 
HETATM   12  C17 UNL     1      27.338   8.409  46.917  1.00  0.00     0.095 C 
HETATM   13  C19 UNL     1      25.886   8.425  47.241  1.00  0.00     0.099 C 
HETATM   14  C20 UNL     1      25.456   9.659  48.005  1.00  0.00     0.026 C 
HETATM   15  C21 UNL     1      23.965   9.485  48.201  1.00  0.00     0.004 C 
HETATM   16  C22 UNL     1      23.609   8.298  49.017  1.00  0.00     0.026 C 
HETATM   17  C23 UNL     1      24.483   7.115  48.950  1.00  0.00     0.089 C 
HETATM   18  C24 UNL     1      23.820   5.842  48.466  1.00  0.00     0.066 C 
HETATM   19  N2  UNL     1      25.707   7.316  48.192  1.00  0.00    -0.366 N 
HETATM   20  H12 UNL     1      27.170   3.239  49.207  1.00  0.00     0.169 HD
ENDROOT
BRANCH   1  21
HETATM   21  C6  UNL     1      23.989   1.439  52.050  1.00  0.00    -0.023 A 
HETATM   22  C5  UNL     1      22.686   0.928  51.997  1.00  0.00     0.012 A 
HETATM   23  C4  UNL     1      22.244  -0.088  52.818  1.00  0.00     0.004 A 
HETATM   24  C3  UNL     1      23.093  -0.657  53.749  1.00  0.00     0.037 A 
HETATM   25  C2  UNL     1      24.368  -0.140  53.785  1.00  0.00     0.069 A 
HETATM   26  C25 UNL     1      24.817   0.862  52.982  1.00  0.00     0.049 A 
BRANCH  25  27
HETATM   27  O1  UNL     1      25.308  -0.654  54.701  1.00  0.00    -0.356 OA
HETATM   28  C1  UNL     1      26.472   0.158  54.912  1.00  0.00     0.210 C 
ENDBRANCH  25  27
ENDBRANCH   1  21
BRANCH   6  29
HETATM   29  C13 UNL     1      26.644   2.217  50.773  1.00  0.00     0.206 C 
BRANCH  29  30
HETATM   30  O2  UNL     1      27.522   2.846  51.665  1.00  0.00    -0.396 OA
HETATM   31  H11 UNL     1      27.923   3.577  51.162  1.00  0.00     0.209 HD
ENDBRANCH  29  30
ENDBRANCH   6  29
BRANCH  12  32
HETATM   32  C18 UNL     1      28.090   9.617  47.280  1.00  0.00     0.241 C 
HETATM   33  O4  UNL     1      29.053  10.142  47.811  1.00  0.00    -0.306 OA
ENDBRANCH  12  32
TORSDOF 5
ENDMDL
MODEL 4
REMARK VINA RESULT:      -8.8      2.813      9.000
REMARK  5 active torsions:
REMARK  status: ('A' for Active; 'I' for Inactive)
REMARK    1  A    between atoms: O1_2  and  C2_3 
REMARK    2  A    between atoms: C6_7  and  C7_8 
REMARK    3  A    between atoms: C12_13  and  C13_14 
REMARK    4  A    between atoms: C13_14  and  O2_15 
REMARK    5  A    between atoms: C17_21  and  C18_22 
ROOT
HETATM    1  C7  UNL     1      19.009  -0.915  52.968  1.00  0.00    -0.015 A 
HETATM    2  C8  UNL     1      19.876  -1.432  53.924  1.00  0.00     0.013 A 
HETATM    3  C9  UNL     1      21.145  -0.910  54.120  1.00  0.00     0.010 A 
HETATM    4  C10 UNL     1      21.539   0.149  53.340  1.00  0.00    -0.029 A 
HETATM    5  C11 UNL     1      20.638   0.624  52.409  1.00  0.00     0.050 A 
HETATM    6  C12 UNL     1      19.369   0.149  52.169  1.00  0.00     0.004 A 
HETATM    7  N1  UNL     1      20.776   1.717  51.503  1.00  0.00    -0.321 N 
HETATM    8  C14 UNL     1      21.891   2.323  50.824  1.00  0.00     0.272 C 
HETATM    9  O3  UNL     1      21.578   2.919  49.785  1.00  0.00    -0.266 OA
HETATM   10  C15 UNL     1      23.324   2.322  51.203  1.00  0.00     0.097 C 
HETATM   11  C16 UNL     1      23.995   3.316  50.665  1.00  0.00     0.022 C 
HETATM   12  C17 UNL     1      25.403   3.287  51.058  1.00  0.00     0.095 C 
HETATM   13  C19 UNL     1      25.500   2.209  52.080  1.00  0.00     0.099 C 
HETATM   14  C20 UNL     1      26.522   1.148  51.734  1.00  0.00     0.026 C 
HETATM   15  C21 UNL     1      26.476   0.183  52.900  1.00  0.00     0.004 C 
HETATM   16  C22 UNL     1      25.162  -0.487  53.066  1.00  0.00     0.026 C 
HETATM   17  C23 UNL     1      23.949   0.249  52.675  1.00  0.00     0.089 C 
HETATM   18  C24 UNL     1      22.942   0.479  53.784  1.00  0.00     0.066 C 
HETATM   19  N2  UNL     1      24.203   1.516  52.012  1.00  0.00    -0.366 N 
HETATM   20  H12 UNL     1      19.861   2.173  51.296  1.00  0.00     0.169 HD
ENDROOT
BRANCH   1  21
HETATM   21  C6  UNL     1      17.742  -1.623  52.888  1.00  0.00    -0.023 A 
HETATM   22  C5  UNL     1      17.839  -2.900  53.456  1.00  0.00     0.012 A 
HETATM   23  C4  UNL     1      16.784  -3.787  53.494  1.00  0.00     0.004 A 
HETATM   24  C3  UNL     1      15.556  -3.440  52.960  1.00  0.00     0.037 A 
HETATM   25  C2  UNL     1      15.482  -2.181  52.408  1.00  0.00     0.069 A 
HETATM   26  C25 UNL     1      16.515  -1.297  52.362  1.00  0.00     0.049 A 
BRANCH  25  27
HETATM   27  O1  UNL     1      14.273  -1.736  51.838  1.00  0.00    -0.356 OA
HETATM   28  C1  UNL     1      13.104  -1.919  52.649  1.00  0.00     0.210 C 
ENDBRANCH  25  27
ENDBRANCH   1  21
BRANCH   6  29
HETATM   29  C13 UNL     1      18.521   0.772  51.174  1.00  0.00     0.206 C 
BRANCH  29  30
HETATM   30  O2  UNL     1      18.767   0.425  49.840  1.00  0.00    -0.396 OA
HETATM   31  H11 UNL     1      18.111   0.919  49.317  1.00  0.00     0.209 HD
ENDBRANCH  29  30
ENDBRANCH   6  29
BRANCH  12  32
HETATM   32  C18 UNL     1      26.370   3.216  49.957  1.00  0.00     0.241 C 
HETATM   33  O4  UNL     1      27.159   3.764  49.206  1.00  0.00    -0.306 OA
ENDBRANCH  12  32
TORSDOF 5
ENDMDL
MODEL 5
REMARK VINA RESULT:      -8.8      2.145      9.070
REMARK  5 active torsions:
REMARK  status: ('A' for Active; 'I' for Inactive)
REMARK    1  A    between atoms: O1_2  and  C2_3 
REMARK    2  A    between atoms: C6_7  and  C7_8 
REMARK    3  A    between atoms: C12_13  and  C13_14 
REMARK    4  A    between atoms: C13_14  and  O2_15 
REMARK    5  A    between atoms: C17_21  and  C18_22 
ROOT
HETATM    1  C7  UNL     1      17.508  -0.101  51.845  1.00  0.00    -0.015 A 
HETATM    2  C8  UNL     1      17.901   0.641  50.737  1.00  0.00     0.013 A 
HETATM    3  C9  UNL     1      19.236   0.857  50.437  1.00  0.00     0.010 A 
HETATM    4  C10 UNL     1      20.185   0.314  51.268  1.00  0.00    -0.029 A 
HETATM    5  C11 UNL     1      19.740  -0.416  52.351  1.00  0.00     0.050 A 
HETATM    6  C12 UNL     1      18.432  -0.664  52.700  1.00  0.00     0.004 A 
HETATM    7  N1  UNL     1      20.499  -1.104  53.343  1.00  0.00    -0.321 N 
HETATM    8  C14 UNL     1      21.796  -0.901  53.934  1.00  0.00     0.272 C 
HETATM    9  O3  UNL     1      21.913  -1.399  55.062  1.00  0.00    -0.266 OA
HETATM   10  C15 UNL     1      22.972  -0.192  53.377  1.00  0.00     0.097 C 
HETATM   11  C16 UNL     1      24.104  -0.571  53.927  1.00  0.00     0.022 C 
HETATM   12  C17 UNL     1      25.244   0.145  53.356  1.00  0.00     0.095 C 
HETATM   13  C19 UNL     1      24.683   0.929  52.222  1.00  0.00     0.099 C 
HETATM   14  C20 UNL     1      24.970   2.412  52.320  1.00  0.00     0.026 C 
HETATM   15  C21 UNL     1      24.345   3.003  51.074  1.00  0.00     0.004 C 
HETATM   16  C22 UNL     1      22.873   2.827  51.007  1.00  0.00     0.026 C 
HETATM   17  C23 UNL     1      22.283   1.628  51.626  1.00  0.00     0.089 C 
HETATM   18  C24 UNL     1      21.515   0.722  50.686  1.00  0.00     0.066 C 
HETATM   19  N2  UNL     1      23.224   0.819  52.382  1.00  0.00    -0.366 N 
HETATM   20  H12 UNL     1      19.997  -1.940  53.712  1.00  0.00     0.169 HD
ENDROOT
BRANCH   1  21
HETATM   21  C6  UNL     1      16.066  -0.181  52.011  1.00  0.00    -0.023 A 
HETATM   22  C5  UNL     1      15.528  -1.235  51.262  1.00  0.00     0.012 A 
HETATM   23  C4  UNL     1      14.179  -1.520  51.227  1.00  0.00     0.004 A 
HETATM   24  C3  UNL     1      13.282  -0.756  51.951  1.00  0.00     0.037 A 
HETATM   25  C2  UNL     1      13.831   0.275  52.680  1.00  0.00     0.069 A 
HETATM   26  C25 UNL     1      15.159   0.567  52.723  1.00  0.00     0.049 A 
BRANCH  25  27
HETATM   27  O1  UNL     1      12.999   1.110  53.450  1.00  0.00    -0.356 OA
HETATM   28  C1  UNL     1      12.416   0.500  54.611  1.00  0.00     0.210 C 
ENDBRANCH  25  27
ENDBRANCH   1  21
BRANCH   6  29
HETATM   29  C13 UNL     1      18.115  -1.478  53.855  1.00  0.00     0.206 C 
BRANCH  29  30
HETATM   30  O2  UNL     1      17.886  -2.838  53.615  1.00  0.00    -0.396 OA
HETATM   31  H11 UNL     1      17.165  -2.869  52.962  1.00  0.00     0.209 HD
ENDBRANCH  29  30
ENDBRANCH   6  29
BRANCH  12  32
HETATM   32  C18 UNL     1      26.066   0.897  54.312  1.00  0.00     0.241 C 
HETATM   33  O4  UNL     1      26.916   0.920  55.185  1.00  0.00    -0.306 OA
ENDBRANCH  12  32
TORSDOF 5
ENDMDL
MODEL 6
REMARK VINA RESULT:      -8.7      3.788      5.006
REMARK  5 active torsions:
REMARK  status: ('A' for Active; 'I' for Inactive)
REMARK    1  A    between atoms: O1_2  and  C2_3 
REMARK    2  A    between atoms: C6_7  and  C7_8 
REMARK    3  A    between atoms: C12_13  and  C13_14 
REMARK    4  A    between atoms: C13_14  and  O2_15 
REMARK    5  A    between atoms: C17_21  and  C18_22 
ROOT
HETATM    1  C7  UNL     1      25.622   1.223  52.214  1.00  0.00    -0.015 A 
HETATM    2  C8  UNL     1      24.577   0.546  52.833  1.00  0.00     0.013 A 
HETATM    3  C9  UNL     1      23.266   0.674  52.404  1.00  0.00     0.010 A 
HETATM    4  C10 UNL     1      23.010   1.498  51.336  1.00  0.00    -0.029 A 
HETATM    5  C11 UNL     1      24.084   2.144  50.757  1.00  0.00     0.050 A 
HETATM    6  C12 UNL     1      25.403   2.056  51.137  1.00  0.00     0.004 A 
HETATM    7  N1  UNL     1      24.104   3.020  49.633  1.00  0.00    -0.321 N 
HETATM    8  C14 UNL     1      23.162   3.950  49.067  1.00  0.00     0.272 C 
HETATM    9  O3  UNL     1      23.689   4.851  48.402  1.00  0.00    -0.266 OA
HETATM   10  C15 UNL     1      21.684   3.961  49.180  1.00  0.00     0.097 C 
HETATM   11  C16 UNL     1      21.104   4.627  48.206  1.00  0.00     0.022 C 
HETATM   12  C17 UNL     1      19.648   4.619  48.345  1.00  0.00     0.095 C 
HETATM   13  C19 UNL     1      19.370   3.692  49.477  1.00  0.00     0.099 C 
HETATM   14  C20 UNL     1      18.556   4.327  50.584  1.00  0.00     0.026 C 
HETATM   15  C21 UNL     1      18.370   3.221  51.600  1.00  0.00     0.004 C 
HETATM   16  C22 UNL     1      19.641   2.735  52.190  1.00  0.00     0.026 C 
HETATM   17  C23 UNL     1      20.856   2.770  51.359  1.00  0.00     0.089 C 
HETATM   18  C24 UNL     1      21.519   1.429  51.119  1.00  0.00     0.066 C 
HETATM   19  N2  UNL     1      20.688   3.438  50.080  1.00  0.00    -0.366 N 
HETATM   20  H12 UNL     1      25.004   2.965  49.108  1.00  0.00     0.169 HD
ENDROOT
BRANCH   1  21
HETATM   21  C6  UNL     1      26.916   0.988  52.833  1.00  0.00    -0.023 A 
HETATM   22  C5  UNL     1      27.456   2.176  53.342  1.00  0.00     0.012 A 
HETATM   23  C4  UNL     1      28.685   2.236  53.965  1.00  0.00     0.004 A 
HETATM   24  C3  UNL     1      29.452   1.094  54.116  1.00  0.00     0.037 A 
HETATM   25  C2  UNL     1      28.902  -0.061  53.609  1.00  0.00     0.069 A 
HETATM   26  C25 UNL     1      27.692  -0.135  52.991  1.00  0.00     0.049 A 
BRANCH  25  27
HETATM   27  O1  UNL     1      29.607  -1.277  53.714  1.00  0.00    -0.356 OA
HETATM   28  C1  UNL     1      28.946  -2.424  53.160  1.00  0.00     0.210 C 
ENDBRANCH  25  27
ENDBRANCH   1  21
BRANCH   6  29
HETATM   29  C13 UNL     1      26.432   2.773  50.412  1.00  0.00     0.206 C 
BRANCH  29  30
HETATM   30  O2  UNL     1      26.479   4.159  50.606  1.00  0.00    -0.396 OA
HETATM   31  H11 UNL     1      25.700   4.513  50.142  1.00  0.00     0.209 HD
ENDBRANCH  29  30
ENDBRANCH   6  29
BRANCH  12  32
HETATM   32  C18 UNL     1      19.009   5.938  48.425  1.00  0.00     0.241 C 
HETATM   33  O4  UNL     1      18.610   6.953  47.880  1.00  0.00    -0.306 OA
ENDBRANCH  12  32
TORSDOF 5
ENDMDL
MODEL 7
REMARK VINA RESULT:      -8.6      7.224     10.834
REMARK  5 active torsions:
REMARK  status: ('A' for Active; 'I' for Inactive)
REMARK    1  A    between atoms: O1_2  and  C2_3 
REMARK    2  A    between atoms: C6_7  and  C7_8 
REMARK    3  A    between atoms: C12_13  and  C13_14 
REMARK    4  A    between atoms: C13_14  and  O2_15 
REMARK    5  A    between atoms: C17_21  and  C18_22 
ROOT
HETATM    1  C7  UNL     1      24.278   4.084  49.687  1.00  0.00    -0.015 A 
HETATM    2  C8  UNL     1      23.431   5.130  49.334  1.00  0.00     0.013 A 
HETATM    3  C9  UNL     1      23.900   6.269  48.699  1.00  0.00     0.010 A 
HETATM    4  C10 UNL     1      25.241   6.350  48.417  1.00  0.00    -0.029 A 
HETATM    5  C11 UNL     1      26.036   5.284  48.787  1.00  0.00     0.050 A 
HETATM    6  C12 UNL     1      25.629   4.130  49.417  1.00  0.00     0.004 A 
HETATM    7  N1  UNL     1      27.435   5.097  48.591  1.00  0.00    -0.321 N 
HETATM    8  C14 UNL     1      28.564   5.986  48.502  1.00  0.00     0.272 C 
HETATM    9  O3  UNL     1      29.642   5.455  48.801  1.00  0.00    -0.266 OA
HETATM   10  C15 UNL     1      28.595   7.415  48.109  1.00  0.00     0.097 C 
HETATM   11  C16 UNL     1      29.777   7.802  47.685  1.00  0.00     0.022 C 
HETATM   12  C17 UNL     1      29.774   9.214  47.305  1.00  0.00     0.095 C 
HETATM   13  C19 UNL     1      28.350   9.637  47.390  1.00  0.00     0.099 C 
HETATM   14  C20 UNL     1      28.132  10.826  48.302  1.00  0.00     0.026 C 
HETATM   15  C21 UNL     1      26.645  11.100  48.220  1.00  0.00     0.004 C 
HETATM   16  C22 UNL     1      25.807   9.983  48.721  1.00  0.00     0.026 C 
HETATM   17  C23 UNL     1      26.310   8.608  48.565  1.00  0.00     0.089 C 
HETATM   18  C24 UNL     1      25.434   7.685  47.742  1.00  0.00     0.066 C 
HETATM   19  N2  UNL     1      27.671   8.520  48.066  1.00  0.00    -0.366 N 
HETATM   20  H12 UNL     1      27.686   4.090  48.485  1.00  0.00     0.169 HD
ENDROOT
BRANCH   1  21
HETATM   21  C6  UNL     1      23.604   2.998  50.378  1.00  0.00    -0.023 A 
HETATM   22  C5  UNL     1      22.683   2.358  49.538  1.00  0.00     0.012 A 
HETATM   23  C4  UNL     1      21.896   1.304  49.952  1.00  0.00     0.004 A 
HETATM   24  C3  UNL     1      21.990   0.824  51.246  1.00  0.00     0.037 A 
HETATM   25  C2  UNL     1      22.900   1.467  52.054  1.00  0.00     0.069 A 
HETATM   26  C25 UNL     1      23.682   2.509  51.659  1.00  0.00     0.049 A 
BRANCH  25  27
HETATM   27  O1  UNL     1      23.068   1.052  53.390  1.00  0.00    -0.356 OA
HETATM   28  C1  UNL     1      23.735  -0.206  53.566  1.00  0.00     0.210 C 
ENDBRANCH  25  27
ENDBRANCH   1  21
BRANCH   6  29
HETATM   29  C13 UNL     1      26.577   3.077  49.717  1.00  0.00     0.206 C 
BRANCH  29  30
HETATM   30  O2  UNL     1      27.242   3.169  50.946  1.00  0.00    -0.396 OA
HETATM   31  H11 UNL     1      27.729   4.012  50.916  1.00  0.00     0.209 HD
ENDBRANCH  29  30
ENDBRANCH   6  29
BRANCH  12  32
HETATM   32  C18 UNL     1      30.739  10.065  48.011  1.00  0.00     0.241 C 
HETATM   33  O4  UNL     1      31.519  11.002  48.012  1.00  0.00    -0.306 OA
ENDBRANCH  12  32
TORSDOF 5
ENDMDL
MODEL 8
REMARK VINA RESULT:      -8.4      5.282      7.537
REMARK  5 active torsions:
REMARK  status: ('A' for Active; 'I' for Inactive)
REMARK    1  A    between atoms: O1_2  and  C2_3 
REMARK    2  A    between atoms: C6_7  and  C7_8 
REMARK    3  A    between atoms: C12_13  and  C13_14 
REMARK    4  A    between atoms: C13_14  and  O2_15 
REMARK    5  A    between atoms: C17_21  and  C18_22 
ROOT
HETATM    1  C7  UNL     1      23.079   1.286  51.548  1.00  0.00    -0.015 A 
HETATM    2  C8  UNL     1      22.099   0.943  50.623  1.00  0.00     0.013 A 
HETATM    3  C9  UNL     1      21.909   1.665  49.457  1.00  0.00     0.010 A 
HETATM    4  C10 UNL     1      22.721   2.748  49.222  1.00  0.00    -0.029 A 
HETATM    5  C11 UNL     1      23.679   3.042  50.172  1.00  0.00     0.050 A 
HETATM    6  C12 UNL     1      23.915   2.364  51.346  1.00  0.00     0.004 A 
HETATM    7  N1  UNL     1      24.659   4.077  50.166  1.00  0.00    -0.321 N 
HETATM    8  C14 UNL     1      24.716   5.403  49.608  1.00  0.00     0.272 C 
HETATM    9  O3  UNL     1      25.503   6.158  50.195  1.00  0.00    -0.266 OA
HETATM   10  C15 UNL     1      23.972   5.960  48.453  1.00  0.00     0.097 C 
HETATM   11  C16 UNL     1      24.565   7.004  47.920  1.00  0.00     0.022 C 
HETATM   12  C17 UNL     1      23.808   7.529  46.784  1.00  0.00     0.095 C 
HETATM   13  C19 UNL     1      22.711   6.547  46.561  1.00  0.00     0.099 C 
HETATM   14  C20 UNL     1      21.333   7.171  46.595  1.00  0.00     0.026 C 
HETATM   15  C21 UNL     1      20.388   6.021  46.322  1.00  0.00     0.004 C 
HETATM   16  C22 UNL     1      20.432   4.957  47.356  1.00  0.00     0.026 C 
HETATM   17  C23 UNL     1      21.706   4.712  48.051  1.00  0.00     0.089 C 
HETATM   18  C24 UNL     1      22.271   3.314  47.899  1.00  0.00     0.066 C 
HETATM   19  N2  UNL     1      22.753   5.670  47.741  1.00  0.00    -0.366 N 
HETATM   20  H12 UNL     1      25.524   3.802  50.679  1.00  0.00     0.169 HD
ENDROOT
BRANCH   1  21
HETATM   21  C6  UNL     1      23.095   0.432  52.724  1.00  0.00    -0.023 A 
HETATM   22  C5  UNL     1      21.798   0.054  53.092  1.00  0.00     0.012 A 
HETATM   23  C4  UNL     1      21.529  -0.742  54.186  1.00  0.00     0.004 A 
HETATM   24  C3  UNL     1      22.559  -1.211  54.982  1.00  0.00     0.037 A 
HETATM   25  C2  UNL     1      23.825  -0.828  54.602  1.00  0.00     0.069 A 
HETATM   26  C25 UNL     1      24.104  -0.042  53.527  1.00  0.00     0.049 A 
BRANCH  25  27
HETATM   27  O1  UNL     1      24.940  -1.255  55.350  1.00  0.00    -0.356 OA
HETATM   28  C1  UNL     1      26.085  -0.391  55.300  1.00  0.00     0.210 C 
ENDBRANCH  25  27
ENDBRANCH   1  21
BRANCH   6  29
HETATM   29  C13 UNL     1      24.981   2.774  52.235  1.00  0.00     0.206 C 
BRANCH  29  30
HETATM   30  O2  UNL     1      24.632   3.663  53.259  1.00  0.00    -0.396 OA
HETATM   31  H11 UNL     1      23.821   4.107  52.953  1.00  0.00     0.209 HD
ENDBRANCH  29  30
ENDBRANCH   6  29
BRANCH  12  32
HETATM   32  C18 UNL     1      23.399   8.935  46.887  1.00  0.00     0.241 C 
HETATM   33  O4  UNL     1      23.311   9.965  47.533  1.00  0.00    -0.306 OA
ENDBRANCH  12  32
TORSDOF 5
ENDMDL
MODEL 9
REMARK VINA RESULT:      -8.3      8.772     11.734
REMARK  5 active torsions:
REMARK  status: ('A' for Active; 'I' for Inactive)
REMARK    1  A    between atoms: O1_2  and  C2_3 
REMARK    2  A    between atoms: C6_7  and  C7_8 
REMARK    3  A    between atoms: C12_13  and  C13_14 
REMARK    4  A    between atoms: C13_14  and  O2_15 
REMARK    5  A    between atoms: C17_21  and  C18_22 
ROOT
HETATM    1  C7  UNL     1      25.822   4.897  49.668  1.00  0.00    -0.015 A 
HETATM    2  C8  UNL     1      26.930   4.391  48.996  1.00  0.00     0.013 A 
HETATM    3  C9  UNL     1      27.901   5.220  48.459  1.00  0.00     0.010 A 
HETATM    4  C10 UNL     1      27.750   6.578  48.605  1.00  0.00    -0.029 A 
HETATM    5  C11 UNL     1      26.634   7.025  49.282  1.00  0.00     0.050 A 
HETATM    6  C12 UNL     1      25.639   6.253  49.836  1.00  0.00     0.004 A 
HETATM    7  N1  UNL     1      26.252   8.362  49.598  1.00  0.00    -0.321 N 
HETATM    8  C14 UNL     1      26.458   9.640  48.968  1.00  0.00     0.272 C 
HETATM    9  O3  UNL     1      25.602  10.485  49.262  1.00  0.00    -0.266 OA
HETATM   10  C15 UNL     1      27.535  10.057  48.039  1.00  0.00     0.097 C 
HETATM   11  C16 UNL     1      27.711  11.359  48.014  1.00  0.00     0.022 C 
HETATM   12  C17 UNL     1      28.779  11.738  47.090  1.00  0.00     0.095 C 
HETATM   13  C19 UNL     1      29.385  10.453  46.647  1.00  0.00     0.099 C 
HETATM   14  C20 UNL     1      29.392  10.282  45.143  1.00  0.00     0.026 C 
HETATM   15  C21 UNL     1      30.065   8.945  44.916  1.00  0.00     0.004 C 
HETATM   16  C22 UNL     1      29.324   7.800  45.501  1.00  0.00     0.026 C 
HETATM   17  C23 UNL     1      28.539   8.028  46.725  1.00  0.00     0.089 C 
HETATM   18  C24 UNL     1      28.945   7.194  47.923  1.00  0.00     0.066 C 
HETATM   19  N2  UNL     1      28.458   9.419  47.136  1.00  0.00    -0.366 N 
HETATM   20  H12 UNL     1      25.706   8.416  50.485  1.00  0.00     0.169 HD
ENDROOT
BRANCH   1  21
HETATM   21  C6  UNL     1      24.898   3.871  50.123  1.00  0.00    -0.023 A 
HETATM   22  C5  UNL     1      23.981   3.536  49.119  1.00  0.00     0.012 A 
HETATM   23  C4  UNL     1      22.983   2.601  49.296  1.00  0.00     0.004 A 
HETATM   24  C3  UNL     1      22.847   1.939  50.503  1.00  0.00     0.037 A 
HETATM   25  C2  UNL     1      23.759   2.284  51.475  1.00  0.00     0.069 A 
HETATM   26  C25 UNL     1      24.747   3.205  51.315  1.00  0.00     0.049 A 
BRANCH  25  27
HETATM   27  O1  UNL     1      23.702   1.665  52.740  1.00  0.00    -0.356 OA
HETATM   28  C1  UNL     1      24.706   0.669  52.986  1.00  0.00     0.210 C 
ENDBRANCH  25  27
ENDBRANCH   1  21
BRANCH   6  29
HETATM   29  C13 UNL     1      24.536   6.866  50.548  1.00  0.00     0.206 C 
BRANCH  29  30
HETATM   30  O2  UNL     1      24.679   6.982  51.937  1.00  0.00    -0.396 OA
HETATM   31  H11 UNL     1      25.639   7.013  52.098  1.00  0.00     0.209 HD
ENDBRANCH  29  30
ENDBRANCH   6  29
BRANCH  12  32
HETATM   32  C18 UNL     1      28.396  12.669  46.022  1.00  0.00     0.241 C 
HETATM   33  O4  UNL     1      27.689  13.573  45.612  1.00  0.00    -0.306 OA
ENDBRANCH  12  32
TORSDOF 5
ENDMDL
