MODEL 1
REMARK VINA RESULT:      -7.3      0.000      0.000
REMARK  6 active torsions:
REMARK  status: ('A' for Active; 'I' for Inactive)
REMARK    1  A    between atoms: O1_2  and  C2_3 
REMARK    2  A    between atoms: C6_9  and  O2_10 
REMARK    3  A    between atoms: O2_10  and  C7_11 
REMARK    4  A    between atoms: C10_14  and  O3_15 
REMARK    5  A    between atoms: C12_17  and  O4_18 
REMARK    6  A    between atoms: C17_23  and  O5_24 
ROOT
HETATM    1  C2  UNL     1      27.677  -0.356  53.836  1.00  0.00     0.103 A 
HETATM    2  C3  UNL     1      27.346   0.968  54.020  1.00  0.00     0.072 A 
HETATM    3  C4  UNL     1      26.099   1.374  53.599  1.00  0.00     0.075 A 
HETATM    4  N1  UNL     1      25.798   2.689  53.793  1.00  0.00    -0.241 NA
HETATM    5  C5  UNL     1      24.588   3.179  53.409  1.00  0.00     0.236 A 
HETATM    6  N2  UNL     1      23.691   2.373  52.840  1.00  0.00    -0.217 NA
HETATM    7  C6  UNL     1      23.908   1.066  52.613  1.00  0.00     0.183 A 
HETATM    8  C15 UNL     1      25.146   0.579  53.010  1.00  0.00     0.049 A 
HETATM    9  C16 UNL     1      25.543  -0.732  52.857  1.00  0.00     0.057 A 
HETATM   10  C17 UNL     1      26.771  -1.214  53.251  1.00  0.00     0.100 A 
ENDROOT
BRANCH   7  11
HETATM   11  O2  UNL     1      23.113   0.112  52.051  1.00  0.00    -0.291 OA
BRANCH  11  12
HETATM   12  C7  UNL     1      21.769  -0.079  52.303  1.00  0.00     0.080 A 
HETATM   13  C8  UNL     1      21.603  -0.867  53.445  1.00  0.00     0.040 A 
HETATM   14  C9  UNL     1      20.351  -1.214  53.927  1.00  0.00     0.042 A 
HETATM   15  C10 UNL     1      19.219  -0.765  53.253  1.00  0.00     0.101 A 
HETATM   16  C12 UNL     1      19.392   0.009  52.132  1.00  0.00     0.104 A 
HETATM   17  C14 UNL     1      20.635   0.355  51.651  1.00  0.00     0.077 A 
BRANCH  15  18
HETATM   18  O3  UNL     1      17.940  -1.080  53.687  1.00  0.00    -0.353 OA
HETATM   19  C11 UNL     1      17.336  -2.308  53.422  1.00  0.00     0.210 C 
ENDBRANCH  15  18
BRANCH  16  20
HETATM   20  O4  UNL     1      18.311   0.474  51.435  1.00  0.00    -0.353 OA
HETATM   21  C13 UNL     1      18.316   0.851  50.091  1.00  0.00     0.210 C 
ENDBRANCH  16  20
ENDBRANCH  11  12
ENDBRANCH   7  11
BRANCH  10  22
HETATM   22  O5  UNL     1      27.069  -2.536  53.054  1.00  0.00    -0.358 OA
HETATM   23  H16 UNL     1      26.843  -3.003  52.180  1.00  0.00     0.217 HD
ENDBRANCH  10  22
BRANCH   1  24
HETATM   24  O1  UNL     1      28.899  -0.899  54.212  1.00  0.00    -0.353 OA
HETATM   25  C1  UNL     1      30.096  -0.602  53.476  1.00  0.00     0.210 C 
ENDBRANCH   1  24
TORSDOF 6
ENDMDL
MODEL 2
REMARK VINA RESULT:      -7.2      1.981      2.398
REMARK  6 active torsions:
REMARK  status: ('A' for Active; 'I' for Inactive)
REMARK    1  A    between atoms: O1_2  and  C2_3 
REMARK    2  A    between atoms: C6_9  and  O2_10 
REMARK    3  A    between atoms: O2_10  and  C7_11 
REMARK    4  A    between atoms: C10_14  and  O3_15 
REMARK    5  A    between atoms: C12_17  and  O4_18 
REMARK    6  A    between atoms: C17_23  and  O5_24 
ROOT
HETATM    1  C2  UNL     1      27.721   0.257  53.928  1.00  0.00     0.103 A 
HETATM    2  C3  UNL     1      27.926   1.052  52.822  1.00  0.00     0.072 A 
HETATM    3  C4  UNL     1      26.853   1.782  52.359  1.00  0.00     0.075 A 
HETATM    4  N1  UNL     1      27.083   2.560  51.264  1.00  0.00    -0.241 NA
HETATM    5  C5  UNL     1      26.082   3.316  50.738  1.00  0.00     0.236 A 
HETATM    6  N2  UNL     1      24.870   3.299  51.292  1.00  0.00    -0.217 NA
HETATM    7  C6  UNL     1      24.560   2.561  52.372  1.00  0.00     0.183 A 
HETATM    8  C15 UNL     1      25.590   1.795  52.899  1.00  0.00     0.049 A 
HETATM    9  C16 UNL     1      25.456   0.978  54.002  1.00  0.00     0.057 A 
HETATM   10  C17 UNL     1      26.479   0.218  54.525  1.00  0.00     0.100 A 
ENDROOT
BRANCH   7  11
HETATM   11  O2  UNL     1      23.388   2.428  53.058  1.00  0.00    -0.291 OA
BRANCH  11  12
HETATM   12  C7  UNL     1      22.157   2.126  52.513  1.00  0.00     0.080 A 
HETATM   13  C8  UNL     1      22.206   0.882  51.877  1.00  0.00     0.040 A 
HETATM   14  C9  UNL     1      21.104   0.332  51.243  1.00  0.00     0.042 A 
HETATM   15  C10 UNL     1      19.905   1.040  51.237  1.00  0.00     0.101 A 
HETATM   16  C12 UNL     1      19.866   2.261  51.866  1.00  0.00     0.104 A 
HETATM   17  C14 UNL     1      20.960   2.809  52.496  1.00  0.00     0.077 A 
BRANCH  15  18
HETATM   18  O3  UNL     1      18.768   0.542  50.620  1.00  0.00    -0.353 OA
HETATM   19  C11 UNL     1      17.901  -0.352  51.247  1.00  0.00     0.210 C 
ENDBRANCH  15  18
BRANCH  16  20
HETATM   20  O4  UNL     1      18.712   2.994  51.888  1.00  0.00    -0.353 OA
HETATM   21  C13 UNL     1      18.428   4.081  51.060  1.00  0.00     0.210 C 
ENDBRANCH  16  20
ENDBRANCH  11  12
ENDBRANCH   7  11
BRANCH  10  22
HETATM   22  O5  UNL     1      26.242  -0.562  55.625  1.00  0.00    -0.358 OA
HETATM   23  H16 UNL     1      25.910  -1.517  55.533  1.00  0.00     0.217 HD
ENDBRANCH  10  22
BRANCH   1  24
HETATM   24  O1  UNL     1      28.712  -0.530  54.499  1.00  0.00    -0.353 OA
HETATM   25  C1  UNL     1      29.798  -1.039  53.708  1.00  0.00     0.210 C 
ENDBRANCH   1  24
TORSDOF 6
ENDMDL
MODEL 3
REMARK VINA RESULT:      -7.2      4.529      6.984
REMARK  6 active torsions:
REMARK  status: ('A' for Active; 'I' for Inactive)
REMARK    1  A    between atoms: O1_2  and  C2_3 
REMARK    2  A    between atoms: C6_9  and  O2_10 
REMARK    3  A    between atoms: O2_10  and  C7_11 
REMARK    4  A    between atoms: C10_14  and  O3_15 
REMARK    5  A    between atoms: C12_17  and  O4_18 
REMARK    6  A    between atoms: C17_23  and  O5_24 
ROOT
HETATM    1  C2  UNL     1      27.226   6.458  48.599  1.00  0.00     0.103 A 
HETATM    2  C3  UNL     1      26.060   6.890  49.192  1.00  0.00     0.072 A 
HETATM    3  C4  UNL     1      25.330   5.962  49.902  1.00  0.00     0.075 A 
HETATM    4  N1  UNL     1      24.181   6.416  50.479  1.00  0.00    -0.241 NA
HETATM    5  C5  UNL     1      23.396   5.571  51.200  1.00  0.00     0.236 A 
HETATM    6  N2  UNL     1      23.748   4.293  51.345  1.00  0.00    -0.217 NA
HETATM    7  C6  UNL     1      24.862   3.767  50.810  1.00  0.00     0.183 A 
HETATM    8  C15 UNL     1      25.654   4.639  50.077  1.00  0.00     0.049 A 
HETATM    9  C16 UNL     1      26.831   4.276  49.458  1.00  0.00     0.057 A 
HETATM   10  C17 UNL     1      27.616   5.143  48.731  1.00  0.00     0.100 A 
ENDROOT
BRANCH   7  11
HETATM   11  O2  UNL     1      25.366   2.499  50.859  1.00  0.00    -0.291 OA
BRANCH  11  12
HETATM   12  C7  UNL     1      25.523   1.730  51.995  1.00  0.00     0.080 A 
HETATM   13  C8  UNL     1      24.443   0.855  52.134  1.00  0.00     0.040 A 
HETATM   14  C9  UNL     1      24.346  -0.036  53.191  1.00  0.00     0.042 A 
HETATM   15  C10 UNL     1      25.356  -0.061  54.148  1.00  0.00     0.101 A 
HETATM   16  C12 UNL     1      26.415   0.803  54.002  1.00  0.00     0.104 A 
HETATM   17  C14 UNL     1      26.513   1.688  52.953  1.00  0.00     0.077 A 
BRANCH  15  18
HETATM   18  O3  UNL     1      25.315  -0.929  55.229  1.00  0.00    -0.353 OA
HETATM   19  C11 UNL     1      24.121  -1.355  55.807  1.00  0.00     0.210 C 
ENDBRANCH  15  18
BRANCH  16  20
HETATM   20  O4  UNL     1      27.432   0.816  54.916  1.00  0.00    -0.353 OA
HETATM   21  C13 UNL     1      28.667   0.186  54.761  1.00  0.00     0.210 C 
ENDBRANCH  16  20
ENDBRANCH  11  12
ENDBRANCH   7  11
BRANCH  10  22
HETATM   22  O5  UNL     1      28.770   4.682  48.153  1.00  0.00    -0.358 OA
HETATM   23  H16 UNL     1      29.089   3.729  48.301  1.00  0.00     0.217 HD
ENDBRANCH  10  22
BRANCH   1  24
HETATM   24  O1  UNL     1      28.057   7.285  47.855  1.00  0.00    -0.353 OA
HETATM   25  C1  UNL     1      28.770   8.367  48.474  1.00  0.00     0.210 C 
ENDBRANCH   1  24
TORSDOF 6
ENDMDL
MODEL 4
REMARK VINA RESULT:      -7.2      2.613      3.445
REMARK  6 active torsions:
REMARK  status: ('A' for Active; 'I' for Inactive)
REMARK    1  A    between atoms: O1_2  and  C2_3 
REMARK    2  A    between atoms: C6_9  and  O2_10 
REMARK    3  A    between atoms: O2_10  and  C7_11 
REMARK    4  A    between atoms: C10_14  and  O3_15 
REMARK    5  A    between atoms: C12_17  and  O4_18 
REMARK    6  A    between atoms: C17_23  and  O5_24 
ROOT
HETATM    1  C2  UNL     1      27.413   0.620  53.627  1.00  0.00     0.103 A 
HETATM    2  C3  UNL     1      26.849  -0.090  54.663  1.00  0.00     0.072 A 
HETATM    3  C4  UNL     1      25.512  -0.405  54.561  1.00  0.00     0.075 A 
HETATM    4  N1  UNL     1      24.979  -1.107  55.601  1.00  0.00    -0.241 NA
HETATM    5  C5  UNL     1      23.666  -1.463  55.585  1.00  0.00     0.236 A 
HETATM    6  N2  UNL     1      22.894  -1.125  54.551  1.00  0.00    -0.217 NA
HETATM    7  C6  UNL     1      23.341  -0.435  53.489  1.00  0.00     0.183 A 
HETATM    8  C15 UNL     1      24.682  -0.078  53.517  1.00  0.00     0.049 A 
HETATM    9  C16 UNL     1      25.311   0.630  52.515  1.00  0.00     0.057 A 
HETATM   10  C17 UNL     1      26.642   0.984  52.544  1.00  0.00     0.100 A 
ENDROOT
BRANCH   7  11
HETATM   11  O2  UNL     1      22.698  -0.012  52.362  1.00  0.00    -0.291 OA
BRANCH  11  12
HETATM   12  C7  UNL     1      21.819   1.049  52.277  1.00  0.00     0.080 A 
HETATM   13  C8  UNL     1      20.507   0.578  52.177  1.00  0.00     0.040 A 
HETATM   14  C9  UNL     1      19.420   1.432  52.078  1.00  0.00     0.042 A 
HETATM   15  C10 UNL     1      19.640   2.806  52.078  1.00  0.00     0.101 A 
HETATM   16  C12 UNL     1      20.932   3.260  52.178  1.00  0.00     0.104 A 
HETATM   17  C14 UNL     1      22.013   2.413  52.276  1.00  0.00     0.077 A 
BRANCH  15  18
HETATM   18  O3  UNL     1      18.594   3.711  51.982  1.00  0.00    -0.353 OA
HETATM   19  C11 UNL     1      17.762   3.785  50.866  1.00  0.00     0.210 C 
ENDBRANCH  15  18
BRANCH  16  20
HETATM   20  O4  UNL     1      21.199   4.602  52.182  1.00  0.00    -0.353 OA
HETATM   21  C13 UNL     1      21.654   5.340  51.089  1.00  0.00     0.210 C 
ENDBRANCH  16  20
ENDBRANCH  11  12
ENDBRANCH   7  11
BRANCH  10  22
HETATM   22  O5  UNL     1      27.173   1.689  51.497  1.00  0.00    -0.358 OA
HETATM   23  H16 UNL     1      28.175   1.709  51.329  1.00  0.00     0.217 HD
ENDBRANCH  10  22
BRANCH   1  24
HETATM   24  O1  UNL     1      28.748   1.004  53.600  1.00  0.00    -0.353 OA
HETATM   25  C1  UNL     1      29.798   0.025  53.580  1.00  0.00     0.210 C 
ENDBRANCH   1  24
TORSDOF 6
ENDMDL
MODEL 5
REMARK VINA RESULT:      -7.2      4.469      7.775
REMARK  6 active torsions:
REMARK  status: ('A' for Active; 'I' for Inactive)
REMARK    1  A    between atoms: O1_2  and  C2_3 
REMARK    2  A    between atoms: C6_9  and  O2_10 
REMARK    3  A    between atoms: O2_10  and  C7_11 
REMARK    4  A    between atoms: C10_14  and  O3_15 
REMARK    5  A    between atoms: C12_17  and  O4_18 
REMARK    6  A    between atoms: C17_23  and  O5_24 
ROOT
HETATM    1  C2  UNL     1      23.207   0.166  53.134  1.00  0.00     0.103 A 
HETATM    2  C3  UNL     1      24.469   0.218  53.684  1.00  0.00     0.072 A 
HETATM    3  C4  UNL     1      25.417   0.968  53.023  1.00  0.00     0.075 A 
HETATM    4  N1  UNL     1      26.657   1.002  53.589  1.00  0.00    -0.241 NA
HETATM    5  C5  UNL     1      27.656   1.718  53.006  1.00  0.00     0.236 A 
HETATM    6  N2  UNL     1      27.426   2.391  51.878  1.00  0.00    -0.217 NA
HETATM    7  C6  UNL     1      26.234   2.409  51.257  1.00  0.00     0.183 A 
HETATM    8  C15 UNL     1      25.223   1.675  51.862  1.00  0.00     0.049 A 
HETATM    9  C16 UNL     1      23.940   1.579  51.367  1.00  0.00     0.057 A 
HETATM   10  C17 UNL     1      22.938   0.850  51.968  1.00  0.00     0.100 A 
ENDROOT
BRANCH   7  11
HETATM   11  O2  UNL     1      25.831   3.035  50.113  1.00  0.00    -0.291 OA
BRANCH  11  12
HETATM   12  C7  UNL     1      26.030   4.364  49.800  1.00  0.00     0.080 A 
HETATM   13  C8  UNL     1      27.138   4.499  48.960  1.00  0.00     0.040 A 
HETATM   14  C9  UNL     1      27.564   5.730  48.490  1.00  0.00     0.042 A 
HETATM   15  C10 UNL     1      26.866   6.875  48.865  1.00  0.00     0.101 A 
HETATM   16  C12 UNL     1      25.777   6.733  49.690  1.00  0.00     0.104 A 
HETATM   17  C14 UNL     1      25.353   5.510  50.159  1.00  0.00     0.077 A 
BRANCH  15  18
HETATM   18  O3  UNL     1      27.244   8.135  48.427  1.00  0.00    -0.353 OA
HETATM   19  C11 UNL     1      28.239   8.883  49.054  1.00  0.00     0.210 C 
ENDBRANCH  15  18
BRANCH  16  20
HETATM   20  O4  UNL     1      25.059   7.827  50.088  1.00  0.00    -0.353 OA
HETATM   21  C13 UNL     1      23.902   7.796  50.867  1.00  0.00     0.210 C 
ENDBRANCH  16  20
ENDBRANCH  11  12
ENDBRANCH   7  11
BRANCH  10  22
HETATM   22  O5  UNL     1      21.694   0.819  51.396  1.00  0.00    -0.358 OA
HETATM   23  H16 UNL     1      20.916   1.337  51.796  1.00  0.00     0.217 HD
ENDBRANCH  10  22
BRANCH   1  24
HETATM   24  O1  UNL     1      22.158  -0.552  53.693  1.00  0.00    -0.353 OA
HETATM   25  C1  UNL     1      22.325  -1.260  54.932  1.00  0.00     0.210 C 
ENDBRANCH   1  24
TORSDOF 6
ENDMDL
MODEL 6
REMARK VINA RESULT:      -7.1      2.468      4.058
REMARK  6 active torsions:
REMARK  status: ('A' for Active; 'I' for Inactive)
REMARK    1  A    between atoms: O1_2  and  C2_3 
REMARK    2  A    between atoms: C6_9  and  O2_10 
REMARK    3  A    between atoms: O2_10  and  C7_11 
REMARK    4  A    between atoms: C10_14  and  O3_15 
REMARK    5  A    between atoms: C12_17  and  O4_18 
REMARK    6  A    between atoms: C17_23  and  O5_24 
ROOT
HETATM    1  C2  UNL     1      24.143  -0.621  54.226  1.00  0.00     0.103 A 
HETATM    2  C3  UNL     1      23.860   0.097  53.085  1.00  0.00     0.072 A 
HETATM    3  C4  UNL     1      22.538   0.202  52.713  1.00  0.00     0.075 A 
HETATM    4  N1  UNL     1      22.287   0.917  51.581  1.00  0.00    -0.241 NA
HETATM    5  C5  UNL     1      21.010   1.074  51.139  1.00  0.00     0.236 A 
HETATM    6  N2  UNL     1      19.997   0.527  51.813  1.00  0.00    -0.217 NA
HETATM    7  C6  UNL     1      20.159  -0.191  52.937  1.00  0.00     0.183 A 
HETATM    8  C15 UNL     1      21.466  -0.344  53.377  1.00  0.00     0.049 A 
HETATM    9  C16 UNL     1      21.821  -1.047  54.509  1.00  0.00     0.057 A 
HETATM   10  C17 UNL     1      23.119  -1.198  54.945  1.00  0.00     0.100 A 
ENDROOT
BRANCH   7  11
HETATM   11  O2  UNL     1      19.247  -0.812  53.740  1.00  0.00    -0.291 OA
BRANCH  11  12
HETATM   12  C7  UNL     1      18.088  -1.435  53.325  1.00  0.00     0.080 A 
HETATM   13  C8  UNL     1      18.085  -2.770  53.740  1.00  0.00     0.040 A 
HETATM   14  C9  UNL     1      17.036  -3.629  53.458  1.00  0.00     0.042 A 
HETATM   15  C10 UNL     1      15.947  -3.151  52.736  1.00  0.00     0.101 A 
HETATM   16  C12 UNL     1      15.957  -1.838  52.332  1.00  0.00     0.104 A 
HETATM   17  C14 UNL     1      16.999  -0.982  52.612  1.00  0.00     0.077 A 
BRANCH  15  18
HETATM   18  O3  UNL     1      14.867  -3.963  52.422  1.00  0.00    -0.353 OA
HETATM   19  C11 UNL     1      14.792  -4.691  51.235  1.00  0.00     0.210 C 
ENDBRANCH  15  18
BRANCH  16  20
HETATM   20  O4  UNL     1      14.910  -1.321  51.621  1.00  0.00    -0.353 OA
HETATM   21  C13 UNL     1      15.017  -0.614  50.422  1.00  0.00     0.210 C 
ENDBRANCH  16  20
ENDBRANCH  11  12
ENDBRANCH   7  11
BRANCH  10  22
HETATM   22  O5  UNL     1      23.366  -1.918  56.083  1.00  0.00    -0.358 OA
HETATM   23  H16 UNL     1      22.607  -2.300  56.641  1.00  0.00     0.217 HD
ENDBRANCH  10  22
BRANCH   1  24
HETATM   24  O1  UNL     1      25.430  -0.807  54.713  1.00  0.00    -0.353 OA
HETATM   25  C1  UNL     1      26.504   0.060  54.314  1.00  0.00     0.210 C 
ENDBRANCH   1  24
TORSDOF 6
ENDMDL
MODEL 7
REMARK VINA RESULT:      -7.0      2.211      3.107
REMARK  6 active torsions:
REMARK  status: ('A' for Active; 'I' for Inactive)
REMARK    1  A    between atoms: O1_2  and  C2_3 
REMARK    2  A    between atoms: C6_9  and  O2_10 
REMARK    3  A    between atoms: O2_10  and  C7_11 
REMARK    4  A    between atoms: C10_14  and  O3_15 
REMARK    5  A    between atoms: C12_17  and  O4_18 
REMARK    6  A    between atoms: C17_23  and  O5_24 
ROOT
HETATM    1  C2  UNL     1      27.531   0.850  53.791  1.00  0.00     0.103 A 
HETATM    2  C3  UNL     1      26.869   0.034  54.683  1.00  0.00     0.072 A 
HETATM    3  C4  UNL     1      25.536  -0.217  54.443  1.00  0.00     0.075 A 
HETATM    4  N1  UNL     1      24.906  -1.025  55.341  1.00  0.00    -0.241 NA
HETATM    5  C5  UNL     1      23.589  -1.329  55.184  1.00  0.00     0.236 A 
HETATM    6  N2  UNL     1      22.909  -0.835  54.149  1.00  0.00    -0.217 NA
HETATM    7  C6  UNL     1      23.454  -0.031  53.220  1.00  0.00     0.183 A 
HETATM    8  C15 UNL     1      24.798   0.270  53.392  1.00  0.00     0.049 A 
HETATM    9  C16 UNL     1      25.521   1.078  52.540  1.00  0.00     0.057 A 
HETATM   10  C17 UNL     1      26.855   1.376  52.712  1.00  0.00     0.100 A 
ENDROOT
BRANCH   7  11
HETATM   11  O2  UNL     1      22.911   0.555  52.114  1.00  0.00    -0.291 OA
BRANCH  11  12
HETATM   12  C7  UNL     1      21.641   1.087  52.016  1.00  0.00     0.080 A 
HETATM   13  C8  UNL     1      21.669   2.452  52.314  1.00  0.00     0.040 A 
HETATM   14  C9  UNL     1      20.527   3.236  52.292  1.00  0.00     0.042 A 
HETATM   15  C10 UNL     1      19.310   2.648  51.961  1.00  0.00     0.101 A 
HETATM   16  C12 UNL     1      19.292   1.306  51.667  1.00  0.00     0.104 A 
HETATM   17  C14 UNL     1      20.426   0.524  51.690  1.00  0.00     0.077 A 
BRANCH  15  18
HETATM   18  O3  UNL     1      18.133   3.380  51.921  1.00  0.00    -0.353 OA
HETATM   19  C11 UNL     1      17.736   4.107  50.799  1.00  0.00     0.210 C 
ENDBRANCH  15  18
BRANCH  16  20
HETATM   20  O4  UNL     1      18.122   0.681  51.337  1.00  0.00    -0.353 OA
HETATM   21  C13 UNL     1      17.413  -0.197  52.157  1.00  0.00     0.210 C 
ENDBRANCH  16  20
ENDBRANCH  11  12
ENDBRANCH   7  11
BRANCH  10  22
HETATM   22  O5  UNL     1      27.484   2.190  51.807  1.00  0.00    -0.358 OA
HETATM   23  H16 UNL     1      27.789   1.837  50.904  1.00  0.00     0.217 HD
ENDBRANCH  10  22
BRANCH   1  24
HETATM   24  O1  UNL     1      28.873   1.186  53.912  1.00  0.00    -0.353 OA
HETATM   25  C1  UNL     1      29.903   0.227  53.627  1.00  0.00     0.210 C 
ENDBRANCH   1  24
TORSDOF 6
ENDMDL
MODEL 8
REMARK VINA RESULT:      -7.0      3.598      5.195
REMARK  6 active torsions:
REMARK  status: ('A' for Active; 'I' for Inactive)
REMARK    1  A    between atoms: O1_2  and  C2_3 
REMARK    2  A    between atoms: C6_9  and  O2_10 
REMARK    3  A    between atoms: O2_10  and  C7_11 
REMARK    4  A    between atoms: C10_14  and  O3_15 
REMARK    5  A    between atoms: C12_17  and  O4_18 
REMARK    6  A    between atoms: C17_23  and  O5_24 
ROOT
HETATM    1  C2  UNL     1      28.376   0.604  53.465  1.00  0.00     0.103 A 
HETATM    2  C3  UNL     1      27.340  -0.296  53.580  1.00  0.00     0.072 A 
HETATM    3  C4  UNL     1      26.060   0.189  53.424  1.00  0.00     0.075 A 
HETATM    4  N1  UNL     1      25.054  -0.723  53.544  1.00  0.00    -0.241 NA
HETATM    5  C5  UNL     1      23.758  -0.335  53.404  1.00  0.00     0.236 A 
HETATM    6  N2  UNL     1      23.466   0.941  53.150  1.00  0.00    -0.217 NA
HETATM    7  C6  UNL     1      24.397   1.901  53.018  1.00  0.00     0.183 A 
HETATM    8  C15 UNL     1      25.715   1.492  53.162  1.00  0.00     0.049 A 
HETATM    9  C16 UNL     1      26.799   2.338  53.059  1.00  0.00     0.057 A 
HETATM   10  C17 UNL     1      28.107   1.930  53.203  1.00  0.00     0.100 A 
ENDROOT
BRANCH   7  11
HETATM   11  O2  UNL     1      24.275   3.236  52.761  1.00  0.00    -0.291 OA
BRANCH  11  12
HETATM   12  C7  UNL     1      23.794   3.799  51.596  1.00  0.00     0.080 A 
HETATM   13  C8  UNL     1      24.315   3.126  50.488  1.00  0.00     0.040 A 
HETATM   14  C9  UNL     1      23.997   3.486  49.188  1.00  0.00     0.042 A 
HETATM   15  C10 UNL     1      23.129   4.553  48.976  1.00  0.00     0.101 A 
HETATM   16  C12 UNL     1      22.620   5.208  50.072  1.00  0.00     0.104 A 
HETATM   17  C14 UNL     1      22.936   4.853  51.364  1.00  0.00     0.077 A 
BRANCH  15  18
HETATM   18  O3  UNL     1      22.772   4.960  47.700  1.00  0.00    -0.353 OA
HETATM   19  C11 UNL     1      21.808   4.298  46.941  1.00  0.00     0.210 C 
ENDBRANCH  15  18
BRANCH  16  20
HETATM   20  O4  UNL     1      21.764   6.262  49.916  1.00  0.00    -0.353 OA
HETATM   21  C13 UNL     1      21.743   7.412  50.707  1.00  0.00     0.210 C 
ENDBRANCH  16  20
ENDBRANCH  11  12
ENDBRANCH   7  11
BRANCH  10  22
HETATM   22  O5  UNL     1      29.115   2.850  53.082  1.00  0.00    -0.358 OA
HETATM   23  H16 UNL     1      29.797   2.985  53.823  1.00  0.00     0.217 HD
ENDBRANCH  10  22
BRANCH   1  24
HETATM   24  O1  UNL     1      29.713   0.253  53.600  1.00  0.00    -0.353 OA
HETATM   25  C1  UNL     1      30.102  -1.118  53.780  1.00  0.00     0.210 C 
ENDBRANCH   1  24
TORSDOF 6
ENDMDL
MODEL 9
REMARK VINA RESULT:      -6.9      3.756      5.924
REMARK  6 active torsions:
REMARK  status: ('A' for Active; 'I' for Inactive)
REMARK    1  A    between atoms: O1_2  and  C2_3 
REMARK    2  A    between atoms: C6_9  and  O2_10 
REMARK    3  A    between atoms: O2_10  and  C7_11 
REMARK    4  A    between atoms: C10_14  and  O3_15 
REMARK    5  A    between atoms: C12_17  and  O4_18 
REMARK    6  A    between atoms: C17_23  and  O5_24 
ROOT
HETATM    1  C2  UNL     1      26.707   0.389  54.228  1.00  0.00     0.103 A 
HETATM    2  C3  UNL     1      25.625  -0.425  53.972  1.00  0.00     0.072 A 
HETATM    3  C4  UNL     1      24.494   0.169  53.456  1.00  0.00     0.075 A 
HETATM    4  N1  UNL     1      23.438  -0.658  53.213  1.00  0.00    -0.241 NA
HETATM    5  C5  UNL     1      22.281  -0.159  52.702  1.00  0.00     0.236 A 
HETATM    6  N2  UNL     1      22.174   1.143  52.437  1.00  0.00    -0.217 NA
HETATM    7  C6  UNL     1      23.165   2.025  52.647  1.00  0.00     0.183 A 
HETATM    8  C15 UNL     1      24.341   1.504  53.168  1.00  0.00     0.049 A 
HETATM    9  C16 UNL     1      25.461   2.258  53.447  1.00  0.00     0.057 A 
HETATM   10  C17 UNL     1      26.628   1.739  53.964  1.00  0.00     0.100 A 
ENDROOT
BRANCH   7  11
HETATM   11  O2  UNL     1      23.225   3.372  52.435  1.00  0.00    -0.291 OA
BRANCH  11  12
HETATM   12  C7  UNL     1      23.436   3.995  51.221  1.00  0.00     0.080 A 
HETATM   13  C8  UNL     1      22.238   4.068  50.505  1.00  0.00     0.040 A 
HETATM   14  C9  UNL     1      22.162   4.648  49.249  1.00  0.00     0.042 A 
HETATM   15  C10 UNL     1      23.316   5.177  48.679  1.00  0.00     0.101 A 
HETATM   16  C12 UNL     1      24.489   5.103  49.391  1.00  0.00     0.104 A 
HETATM   17  C14 UNL     1      24.566   4.526  50.639  1.00  0.00     0.077 A 
BRANCH  15  18
HETATM   18  O3  UNL     1      23.304   5.770  47.425  1.00  0.00    -0.353 OA
HETATM   19  C11 UNL     1      22.828   7.062  47.209  1.00  0.00     0.210 C 
ENDBRANCH  15  18
BRANCH  16  20
HETATM   20  O4  UNL     1      25.649   5.608  48.874  1.00  0.00    -0.353 OA
HETATM   21  C13 UNL     1      26.881   4.952  48.856  1.00  0.00     0.210 C 
ENDBRANCH  16  20
ENDBRANCH  11  12
ENDBRANCH   7  11
BRANCH  10  22
HETATM   22  O5  UNL     1      27.686   2.574  54.207  1.00  0.00    -0.358 OA
HETATM   23  H16 UNL     1      28.382   2.352  54.913  1.00  0.00     0.217 HD
ENDBRANCH  10  22
BRANCH   1  24
HETATM   24  O1  UNL     1      27.907  -0.077  54.749  1.00  0.00    -0.353 OA
HETATM   25  C1  UNL     1      28.897  -0.679  53.899  1.00  0.00     0.210 C 
ENDBRANCH   1  24
TORSDOF 6
ENDMDL
