MODEL 1
REMARK VINA RESULT:      -9.6      0.000      0.000
REMARK  5 active torsions:
REMARK  status: ('A' for Active; 'I' for Inactive)
REMARK    1  A    between atoms: N1_5  and  C4_6 
REMARK    2  A    between atoms: N1_5  and  C24_31 
REMARK    3  A    between atoms: C4_6  and  C5_7 
REMARK    4  A    between atoms: C14_20  and  N5_21 
REMARK    5  A    between atoms: N5_21  and  C15_22 
ROOT
HETATM    1  C5  UNL     1      24.378   3.209  50.839  1.00  0.00     0.084 C 
HETATM    2  C6  UNL     1      25.548   2.491  51.414  1.00  0.00     0.280 C 
HETATM    3  N2  UNL     1      25.345   3.208  52.654  1.00  0.00     0.098 N 
HETATM    4  C7  UNL     1      23.983   3.390  52.292  1.00  0.00     0.196 C 
HETATM    5  C8  UNL     1      23.324   4.681  52.661  1.00  0.00     0.074 C 
HETATM    6  C9  UNL     1      21.986   4.815  52.015  1.00  0.00     0.178 C 
HETATM    7  O1  UNL     1      21.517   3.557  51.499  1.00  0.00    -0.350 OA
HETATM    8  C10 UNL     1      21.737   2.381  52.244  1.00  0.00     0.080 A 
HETATM    9  C11 UNL     1      20.819   1.395  52.546  1.00  0.00     0.070 A 
HETATM   10  C12 UNL     1      21.194   0.299  53.293  1.00  0.00     0.074 A 
HETATM   11  N3  UNL     1      20.276  -0.630  53.563  1.00  0.00    -0.241 NA
HETATM   12  C13 UNL     1      20.631  -1.715  54.298  1.00  0.00     0.236 A 
HETATM   13  N4  UNL     1      21.892  -1.847  54.745  1.00  0.00    -0.224 NA
HETATM   14  C14 UNL     1      22.854  -0.913  54.486  1.00  0.00     0.142 A 
HETATM   15  C21 UNL     1      22.494   0.189  53.740  1.00  0.00     0.039 A 
HETATM   16  C22 UNL     1      23.403   1.175  53.433  1.00  0.00     0.030 A 
HETATM   17  C23 UNL     1      23.063   2.277  52.692  1.00  0.00     0.015 A 
HETATM   18  H10 UNL     1      25.574   2.739  53.531  1.00  0.00     0.317 HD
ENDROOT
BRANCH   1  19
HETATM   19  C4  UNL     1      24.567   4.469  50.111  1.00  0.00     0.262 C 
BRANCH  19  20
HETATM   20  N1  UNL     1      24.330   4.507  48.707  1.00  0.00    -0.006 N 
HETATM   21  C3  UNL     1      22.961   3.958  48.447  1.00  0.00     0.312 A 
HETATM   22  C2  UNL     1      21.646   5.276  48.300  1.00  0.00     0.124 A 
HETATM   23  S1  UNL     1      22.768   5.756  48.390  1.00  0.00    -0.018 SA
HETATM   24  C1  UNL     1      23.382   5.996  48.439  1.00  0.00    -0.076 A 
HETATM   25  C24 UNL     1      24.368   6.350  48.521  1.00  0.00     0.381 A 
ENDBRANCH  19  20
ENDBRANCH   1  19
BRANCH  14  26
HETATM   26  N5  UNL     1      24.179  -1.086  54.976  1.00  0.00    -0.340 N 
HETATM   27  H17 UNL     1      24.170  -1.545  55.901  1.00  0.00     0.167 HD
BRANCH  26  28
HETATM   28  C15 UNL     1      25.408  -0.714  54.361  1.00  0.00     0.033 A 
HETATM   29  C16 UNL     1      26.314   0.114  55.005  1.00  0.00     0.029 A 
HETATM   30  C17 UNL     1      27.484   0.433  54.352  1.00  0.00     0.002 A 
HETATM   31  C18 UNL     1      27.807  -0.023  53.090  1.00  0.00     0.000 A 
HETATM   32  C19 UNL     1      26.915  -0.848  52.433  1.00  0.00     0.002 A 
HETATM   33  C20 UNL     1      25.740  -1.163  53.104  1.00  0.00     0.029 A 
ENDBRANCH  26  28
ENDBRANCH  14  26
TORSDOF 5
ENDMDL
MODEL 2
REMARK VINA RESULT:      -9.2      1.496      2.197
REMARK  5 active torsions:
REMARK  status: ('A' for Active; 'I' for Inactive)
REMARK    1  A    between atoms: N1_5  and  C4_6 
REMARK    2  A    between atoms: N1_5  and  C24_31 
REMARK    3  A    between atoms: C4_6  and  C5_7 
REMARK    4  A    between atoms: C14_20  and  N5_21 
REMARK    5  A    between atoms: N5_21  and  C15_22 
ROOT
HETATM    1  C5  UNL     1      23.788   4.228  49.401  1.00  0.00     0.084 C 
HETATM    2  C6  UNL     1      25.223   3.852  49.516  1.00  0.00     0.280 C 
HETATM    3  N2  UNL     1      25.316   4.675  50.703  1.00  0.00     0.098 N 
HETATM    4  C7  UNL     1      23.915   4.522  50.883  1.00  0.00     0.196 C 
HETATM    5  C8  UNL     1      23.143   5.688  51.413  1.00  0.00     0.074 C 
HETATM    6  C9  UNL     1      21.672   5.454  51.325  1.00  0.00     0.178 C 
HETATM    7  O1  UNL     1      21.368   4.068  51.092  1.00  0.00    -0.350 OA
HETATM    8  C10 UNL     1      22.121   3.075  51.752  1.00  0.00     0.080 A 
HETATM    9  C11 UNL     1      21.644   1.973  52.432  1.00  0.00     0.070 A 
HETATM   10  C12 UNL     1      22.517   1.091  53.030  1.00  0.00     0.074 A 
HETATM   11  N3  UNL     1      22.014   0.039  53.677  1.00  0.00    -0.241 NA
HETATM   12  C13 UNL     1      22.862  -0.839  54.272  1.00  0.00     0.236 A 
HETATM   13  N4  UNL     1      24.191  -0.645  54.205  1.00  0.00    -0.224 NA
HETATM   14  C14 UNL     1      24.737   0.421  53.551  1.00  0.00     0.142 A 
HETATM   15  C21 UNL     1      23.876   1.312  52.948  1.00  0.00     0.039 A 
HETATM   16  C22 UNL     1      24.343   2.413  52.267  1.00  0.00     0.030 A 
HETATM   17  C23 UNL     1      23.501   3.309  51.660  1.00  0.00     0.015 A 
HETATM   18  H10 UNL     1      25.954   4.388  51.445  1.00  0.00     0.317 HD
ENDROOT
BRANCH   1  19
HETATM   19  C4  UNL     1      23.389   5.388  48.595  1.00  0.00     0.262 C 
BRANCH  19  20
HETATM   20  N1  UNL     1      22.711   5.181  47.360  1.00  0.00    -0.006 N 
HETATM   21  C3  UNL     1      21.705   4.088  47.553  1.00  0.00     0.312 A 
HETATM   22  C2  UNL     1      19.987   4.716  47.931  1.00  0.00     0.124 A 
HETATM   23  S1  UNL     1      20.758   5.626  47.657  1.00  0.00    -0.018 SA
HETATM   24  C1  UNL     1      21.190   6.104  47.507  1.00  0.00    -0.076 A 
HETATM   25  C24 UNL     1      21.897   6.842  47.266  1.00  0.00     0.381 A 
ENDBRANCH  19  20
ENDBRANCH   1  19
BRANCH  14  26
HETATM   26  N5  UNL     1      26.149   0.594  53.501  1.00  0.00    -0.340 N 
HETATM   27  H17 UNL     1      26.397   1.595  53.569  1.00  0.00     0.167 HD
BRANCH  26  28
HETATM   28  C15 UNL     1      27.160  -0.399  53.376  1.00  0.00     0.033 A 
HETATM   29  C16 UNL     1      26.899  -1.623  52.779  1.00  0.00     0.029 A 
HETATM   30  C17 UNL     1      27.925  -2.538  52.690  1.00  0.00     0.002 A 
HETATM   31  C18 UNL     1      29.201  -2.307  53.163  1.00  0.00     0.000 A 
HETATM   32  C19 UNL     1      29.479  -1.093  53.760  1.00  0.00     0.002 A 
HETATM   33  C20 UNL     1      28.436  -0.180  53.842  1.00  0.00     0.029 A 
ENDBRANCH  26  28
ENDBRANCH  14  26
TORSDOF 5
ENDMDL
MODEL 3
REMARK VINA RESULT:      -8.7      2.124      2.995
REMARK  5 active torsions:
REMARK  status: ('A' for Active; 'I' for Inactive)
REMARK    1  A    between atoms: N1_5  and  C4_6 
REMARK    2  A    between atoms: N1_5  and  C24_31 
REMARK    3  A    between atoms: C4_6  and  C5_7 
REMARK    4  A    between atoms: C14_20  and  N5_21 
REMARK    5  A    between atoms: N5_21  and  C15_22 
ROOT
HETATM    1  C5  UNL     1      20.973   2.235  49.542  1.00  0.00     0.084 C 
HETATM    2  C6  UNL     1      22.406   2.149  49.152  1.00  0.00     0.280 C 
HETATM    3  N2  UNL     1      22.682   3.275  50.018  1.00  0.00     0.098 N 
HETATM    4  C7  UNL     1      21.517   2.950  50.764  1.00  0.00     0.196 C 
HETATM    5  C8  UNL     1      20.699   4.075  51.315  1.00  0.00     0.074 C 
HETATM    6  C9  UNL     1      19.401   3.586  51.864  1.00  0.00     0.178 C 
HETATM    7  O1  UNL     1      19.404   2.160  52.048  1.00  0.00    -0.350 OA
HETATM    8  C10 UNL     1      20.567   1.530  52.537  1.00  0.00     0.080 A 
HETATM    9  C11 UNL     1      20.653   0.600  53.554  1.00  0.00     0.070 A 
HETATM   10  C12 UNL     1      21.874   0.077  53.919  1.00  0.00     0.074 A 
HETATM   11  N3  UNL     1      21.913  -0.819  54.907  1.00  0.00    -0.241 NA
HETATM   12  C13 UNL     1      23.109  -1.343  55.277  1.00  0.00     0.236 A 
HETATM   13  N4  UNL     1      24.237  -0.959  54.654  1.00  0.00    -0.224 NA
HETATM   14  C14 UNL     1      24.231  -0.045  53.641  1.00  0.00     0.142 A 
HETATM   15  C21 UNL     1      23.016   0.487  53.265  1.00  0.00     0.039 A 
HETATM   16  C22 UNL     1      22.922   1.414  52.252  1.00  0.00     0.030 A 
HETATM   17  C23 UNL     1      21.722   1.953  51.864  1.00  0.00     0.015 A 
HETATM   18  H10 UNL     1      23.587   3.317  50.489  1.00  0.00     0.317 HD
ENDROOT
BRANCH   1  19
HETATM   19  C4  UNL     1      20.037   3.041  48.748  1.00  0.00     0.262 C 
BRANCH  19  20
HETATM   20  N1  UNL     1      20.388   3.412  47.420  1.00  0.00    -0.006 N 
HETATM   21  C3  UNL     1      19.197   3.189  46.539  1.00  0.00     0.312 A 
HETATM   22  C2  UNL     1      18.171   4.727  46.270  1.00  0.00     0.124 A 
HETATM   23  S1  UNL     1      19.200   4.964  46.890  1.00  0.00    -0.018 SA
HETATM   24  C1  UNL     1      19.761   5.072  47.222  1.00  0.00    -0.076 A 
HETATM   25  C24 UNL     1      20.657   5.215  47.752  1.00  0.00     0.381 A 
ENDBRANCH  19  20
ENDBRANCH   1  19
BRANCH  14  26
HETATM   26  N5  UNL     1      25.446   0.337  53.004  1.00  0.00    -0.340 N 
HETATM   27  H17 UNL     1      25.257   0.959  52.201  1.00  0.00     0.167 HD
BRANCH  26  28
HETATM   28  C15 UNL     1      26.778  -0.030  53.343  1.00  0.00     0.033 A 
HETATM   29  C16 UNL     1      27.356  -1.187  52.844  1.00  0.00     0.029 A 
HETATM   30  C17 UNL     1      28.651  -1.480  53.213  1.00  0.00     0.002 A 
HETATM   31  C18 UNL     1      29.408  -0.688  54.052  1.00  0.00     0.000 A 
HETATM   32  C19 UNL     1      28.847   0.468  54.558  1.00  0.00     0.002 A 
HETATM   33  C20 UNL     1      27.542   0.753  54.178  1.00  0.00     0.029 A 
ENDBRANCH  26  28
ENDBRANCH  14  26
TORSDOF 5
ENDMDL
MODEL 4
REMARK VINA RESULT:      -8.7      1.704      2.385
REMARK  5 active torsions:
REMARK  status: ('A' for Active; 'I' for Inactive)
REMARK    1  A    between atoms: N1_5  and  C4_6 
REMARK    2  A    between atoms: N1_5  and  C24_31 
REMARK    3  A    between atoms: C4_6  and  C5_7 
REMARK    4  A    between atoms: C14_20  and  N5_21 
REMARK    5  A    between atoms: N5_21  and  C15_22 
ROOT
HETATM    1  C5  UNL     1      23.724   4.880  49.635  1.00  0.00     0.084 C 
HETATM    2  C6  UNL     1      25.096   4.736  50.191  1.00  0.00     0.280 C 
HETATM    3  N2  UNL     1      24.623   5.306  51.434  1.00  0.00     0.098 N 
HETATM    4  C7  UNL     1      23.309   4.886  51.093  1.00  0.00     0.196 C 
HETATM    5  C8  UNL     1      22.167   5.775  51.472  1.00  0.00     0.074 C 
HETATM    6  C9  UNL     1      20.891   5.319  50.846  1.00  0.00     0.178 C 
HETATM    7  O1  UNL     1      20.997   3.978  50.339  1.00  0.00    -0.350 OA
HETATM    8  C10 UNL     1      21.710   3.014  51.081  1.00  0.00     0.080 A 
HETATM    9  C11 UNL     1      21.305   1.732  51.398  1.00  0.00     0.070 A 
HETATM   10  C12 UNL     1      22.122   0.907  52.140  1.00  0.00     0.074 A 
HETATM   11  N3  UNL     1      21.693  -0.323  52.425  1.00  0.00    -0.241 NA
HETATM   12  C13 UNL     1      22.488  -1.147  53.155  1.00  0.00     0.236 A 
HETATM   13  N4  UNL     1      23.690  -0.724  53.582  1.00  0.00    -0.224 NA
HETATM   14  C14 UNL     1      24.157   0.529  53.307  1.00  0.00     0.142 A 
HETATM   15  C21 UNL     1      23.351   1.366  52.567  1.00  0.00     0.039 A 
HETATM   16  C22 UNL     1      23.747   2.644  52.245  1.00  0.00     0.030 A 
HETATM   17  C23 UNL     1      22.958   3.490  51.508  1.00  0.00     0.015 A 
HETATM   18  H10 UNL     1      25.043   4.986  52.308  1.00  0.00     0.317 HD
ENDROOT
BRANCH   1  19
HETATM   19  C4  UNL     1      23.346   6.095  48.902  1.00  0.00     0.262 C 
BRANCH  19  20
HETATM   20  N1  UNL     1      24.363   6.984  48.452  1.00  0.00    -0.006 N 
HETATM   21  C3  UNL     1      24.064   7.361  47.034  1.00  0.00     0.312 A 
HETATM   22  C2  UNL     1      23.139   8.976  46.872  1.00  0.00     0.124 A 
HETATM   23  S1  UNL     1      23.477   8.755  48.027  1.00  0.00    -0.018 SA
HETATM   24  C1  UNL     1      23.668   8.618  48.645  1.00  0.00    -0.076 A 
HETATM   25  C24 UNL     1      23.982   8.373  49.617  1.00  0.00     0.381 A 
ENDBRANCH  19  20
ENDBRANCH   1  19
BRANCH  14  26
HETATM   26  N5  UNL     1      25.436   0.943  53.777  1.00  0.00    -0.340 N 
HETATM   27  H17 UNL     1      25.380   1.878  54.212  1.00  0.00     0.167 HD
BRANCH  26  28
HETATM   28  C15 UNL     1      26.675   0.247  53.704  1.00  0.00     0.033 A 
HETATM   29  C16 UNL     1      26.854  -0.819  52.837  1.00  0.00     0.029 A 
HETATM   30  C17 UNL     1      28.081  -1.446  52.819  1.00  0.00     0.002 A 
HETATM   31  C18 UNL     1      29.144  -1.075  53.616  1.00  0.00     0.000 A 
HETATM   32  C19 UNL     1      28.984  -0.014  54.486  1.00  0.00     0.002 A 
HETATM   33  C20 UNL     1      27.742   0.610  54.494  1.00  0.00     0.029 A 
ENDBRANCH  26  28
ENDBRANCH  14  26
TORSDOF 5
ENDMDL
MODEL 5
REMARK VINA RESULT:      -8.6      3.243      6.882
REMARK  5 active torsions:
REMARK  status: ('A' for Active; 'I' for Inactive)
REMARK    1  A    between atoms: N1_5  and  C4_6 
REMARK    2  A    between atoms: N1_5  and  C24_31 
REMARK    3  A    between atoms: C4_6  and  C5_7 
REMARK    4  A    between atoms: C14_20  and  N5_21 
REMARK    5  A    between atoms: N5_21  and  C15_22 
ROOT
HETATM    1  C5  UNL     1      24.462  -0.063  52.503  1.00  0.00     0.084 C 
HETATM    2  C6  UNL     1      23.630  -0.912  53.398  1.00  0.00     0.280 C 
HETATM    3  N2  UNL     1      23.280   0.273  54.151  1.00  0.00     0.098 N 
HETATM    4  C7  UNL     1      23.567   1.055  53.000  1.00  0.00     0.196 C 
HETATM    5  C8  UNL     1      24.200   2.395  53.200  1.00  0.00     0.074 C 
HETATM    6  C9  UNL     1      24.649   2.985  51.905  1.00  0.00     0.178 C 
HETATM    7  O1  UNL     1      24.062   2.307  50.780  1.00  0.00    -0.350 OA
HETATM    8  C10 UNL     1      22.715   1.897  50.849  1.00  0.00     0.080 A 
HETATM    9  C11 UNL     1      21.731   2.088  49.899  1.00  0.00     0.070 A 
HETATM   10  C12 UNL     1      20.451   1.626  50.118  1.00  0.00     0.074 A 
HETATM   11  N3  UNL     1      19.530   1.833  49.176  1.00  0.00    -0.241 NA
HETATM   12  C13 UNL     1      18.265   1.383  49.378  1.00  0.00     0.236 A 
HETATM   13  N4  UNL     1      17.951   0.739  50.516  1.00  0.00    -0.224 NA
HETATM   14  C14 UNL     1      18.870   0.512  51.499  1.00  0.00     0.142 A 
HETATM   15  C21 UNL     1      20.154   0.969  51.294  1.00  0.00     0.039 A 
HETATM   16  C22 UNL     1      21.141   0.781  52.234  1.00  0.00     0.030 A 
HETATM   17  C23 UNL     1      22.424   1.228  52.046  1.00  0.00     0.015 A 
HETATM   18  H10 UNL     1      22.354   0.324  54.577  1.00  0.00     0.317 HD
ENDROOT
BRANCH   1  19
HETATM   19  C4  UNL     1      25.887   0.141  52.791  1.00  0.00     0.262 C 
BRANCH  19  20
HETATM   20  N1  UNL     1      26.574  -0.794  53.616  1.00  0.00    -0.006 N 
HETATM   21  C3  UNL     1      27.913  -1.067  53.004  1.00  0.00     0.312 A 
HETATM   22  C2  UNL     1      29.288  -0.028  53.725  1.00  0.00     0.124 A 
HETATM   23  S1  UNL     1      28.232   0.127  54.325  1.00  0.00    -0.018 SA
HETATM   24  C1  UNL     1      27.654   0.197  54.637  1.00  0.00    -0.076 A 
HETATM   25  C24 UNL     1      26.721   0.290  55.112  1.00  0.00     0.381 A 
ENDBRANCH  19  20
ENDBRANCH   1  19
BRANCH  14  26
HETATM   26  N5  UNL     1      18.500  -0.174  52.691  1.00  0.00    -0.340 N 
HETATM   27  H17 UNL     1      18.910   0.287  53.520  1.00  0.00     0.167 HD
BRANCH  26  28
HETATM   28  C15 UNL     1      17.691  -1.335  52.830  1.00  0.00     0.033 A 
HETATM   29  C16 UNL     1      16.429  -1.408  52.260  1.00  0.00     0.029 A 
HETATM   30  C17 UNL     1      15.700  -2.564  52.435  1.00  0.00     0.002 A 
HETATM   31  C18 UNL     1      16.153  -3.656  53.147  1.00  0.00     0.000 A 
HETATM   32  C19 UNL     1      17.408  -3.601  53.722  1.00  0.00     0.002 A 
HETATM   33  C20 UNL     1      18.132  -2.430  53.538  1.00  0.00     0.029 A 
ENDBRANCH  26  28
ENDBRANCH  14  26
TORSDOF 5
ENDMDL
MODEL 6
REMARK VINA RESULT:      -8.6      7.270     10.972
REMARK  5 active torsions:
REMARK  status: ('A' for Active; 'I' for Inactive)
REMARK    1  A    between atoms: N1_5  and  C4_6 
REMARK    2  A    between atoms: N1_5  and  C24_31 
REMARK    3  A    between atoms: C4_6  and  C5_7 
REMARK    4  A    between atoms: C14_20  and  N5_21 
REMARK    5  A    between atoms: N5_21  and  C15_22 
ROOT
HETATM    1  C5  UNL     1      31.398   6.242  47.345  1.00  0.00     0.084 C 
HETATM    2  C6  UNL     1      30.483   5.442  48.204  1.00  0.00     0.280 C 
HETATM    3  N2  UNL     1      31.080   6.059  49.369  1.00  0.00     0.098 N 
HETATM    4  C7  UNL     1      31.468   7.156  48.553  1.00  0.00     0.196 C 
HETATM    5  C8  UNL     1      32.782   7.811  48.836  1.00  0.00     0.074 C 
HETATM    6  C9  UNL     1      33.150   8.780  47.762  1.00  0.00     0.178 C 
HETATM    7  O1  UNL     1      32.023   9.102  46.928  1.00  0.00    -0.350 OA
HETATM    8  C10 UNL     1      30.754   9.273  47.518  1.00  0.00     0.080 A 
HETATM    9  C11 UNL     1      29.862  10.305  47.305  1.00  0.00     0.070 A 
HETATM   10  C12 UNL     1      28.654  10.330  47.966  1.00  0.00     0.074 A 
HETATM   11  N3  UNL     1      27.821  11.345  47.732  1.00  0.00    -0.241 NA
HETATM   12  C13 UNL     1      26.627  11.383  48.377  1.00  0.00     0.236 A 
HETATM   13  N4  UNL     1      26.293  10.407  49.239  1.00  0.00    -0.224 NA
HETATM   14  C14 UNL     1      27.123   9.355  49.501  1.00  0.00     0.142 A 
HETATM   15  C21 UNL     1      28.336   9.317  48.847  1.00  0.00     0.039 A 
HETATM   16  C22 UNL     1      29.230   8.292  49.053  1.00  0.00     0.030 A 
HETATM   17  C23 UNL     1      30.440   8.237  48.410  1.00  0.00     0.015 A 
HETATM   18  H10 UNL     1      30.494   6.222  50.188  1.00  0.00     0.317 HD
ENDROOT
BRANCH   1  19
HETATM   19  C4  UNL     1      32.697   5.695  46.936  1.00  0.00     0.262 C 
BRANCH  19  20
HETATM   20  N1  UNL     1      32.783   4.336  46.519  1.00  0.00    -0.006 N 
HETATM   21  C3  UNL     1      33.223   4.311  45.087  1.00  0.00     0.312 A 
HETATM   22  C2  UNL     1      35.064   4.073  44.878  1.00  0.00     0.124 A 
HETATM   23  S1  UNL     1      34.717   3.967  46.047  1.00  0.00    -0.018 SA
HETATM   24  C1  UNL     1      34.511   3.913  46.673  1.00  0.00    -0.076 A 
HETATM   25  C24 UNL     1      34.155   3.835  47.658  1.00  0.00     0.381 A 
ENDBRANCH  19  20
ENDBRANCH   1  19
BRANCH  14  26
HETATM   26  N5  UNL     1      26.736   8.340  50.421  1.00  0.00    -0.340 N 
HETATM   27  H17 UNL     1      27.206   8.474  51.331  1.00  0.00     0.167 HD
BRANCH  26  28
HETATM   28  C15 UNL     1      25.841   7.253  50.217  1.00  0.00     0.033 A 
HETATM   29  C16 UNL     1      24.653   7.154  50.925  1.00  0.00     0.029 A 
HETATM   30  C17 UNL     1      23.834   6.075  50.677  1.00  0.00     0.002 A 
HETATM   31  C18 UNL     1      24.127   5.084  49.763  1.00  0.00     0.000 A 
HETATM   32  C19 UNL     1      25.306   5.166  49.049  1.00  0.00     0.002 A 
HETATM   33  C20 UNL     1      26.123   6.259  49.309  1.00  0.00     0.029 A 
ENDBRANCH  26  28
ENDBRANCH  14  26
TORSDOF 5
ENDMDL
MODEL 7
REMARK VINA RESULT:      -8.5      2.117      4.418
REMARK  5 active torsions:
REMARK  status: ('A' for Active; 'I' for Inactive)
REMARK    1  A    between atoms: N1_5  and  C4_6 
REMARK    2  A    between atoms: N1_5  and  C24_31 
REMARK    3  A    between atoms: C4_6  and  C5_7 
REMARK    4  A    between atoms: C14_20  and  N5_21 
REMARK    5  A    between atoms: N5_21  and  C15_22 
ROOT
HETATM    1  C5  UNL     1      23.066   4.320  51.316  1.00  0.00     0.084 C 
HETATM    2  C6  UNL     1      22.059   3.316  51.757  1.00  0.00     0.280 C 
HETATM    3  N2  UNL     1      22.278   2.594  50.523  1.00  0.00     0.098 N 
HETATM    4  C7  UNL     1      23.564   3.191  50.435  1.00  0.00     0.196 C 
HETATM    5  C8  UNL     1      24.075   3.561  49.078  1.00  0.00     0.074 C 
HETATM    6  C9  UNL     1      25.318   4.380  49.169  1.00  0.00     0.178 C 
HETATM    7  O1  UNL     1      25.903   4.315  50.482  1.00  0.00    -0.350 OA
HETATM    8  C10 UNL     1      25.911   3.087  51.174  1.00  0.00     0.080 A 
HETATM    9  C11 UNL     1      26.976   2.497  51.825  1.00  0.00     0.070 A 
HETATM   10  C12 UNL     1      26.821   1.283  52.456  1.00  0.00     0.074 A 
HETATM   11  N3  UNL     1      27.876   0.747  53.073  1.00  0.00    -0.241 NA
HETATM   12  C13 UNL     1      27.738  -0.449  53.699  1.00  0.00     0.236 A 
HETATM   13  N4  UNL     1      26.551  -1.082  53.695  1.00  0.00    -0.224 NA
HETATM   14  C14 UNL     1      25.454  -0.561  53.073  1.00  0.00     0.142 A 
HETATM   15  C21 UNL     1      25.594   0.654  52.437  1.00  0.00     0.039 A 
HETATM   16  C22 UNL     1      24.537   1.249  51.787  1.00  0.00     0.030 A 
HETATM   17  C23 UNL     1      24.657   2.457  51.150  1.00  0.00     0.015 A 
HETATM   18  H10 UNL     1      22.194   1.577  50.533  1.00  0.00     0.317 HD
ENDROOT
BRANCH   1  19
HETATM   19  C4  UNL     1      22.644   5.514  50.573  1.00  0.00     0.262 C 
BRANCH  19  20
HETATM   20  N1  UNL     1      22.729   6.791  51.198  1.00  0.00    -0.006 N 
HETATM   21  C3  UNL     1      24.035   7.415  50.816  1.00  0.00     0.312 A 
HETATM   22  C2  UNL     1      23.907   8.580  49.361  1.00  0.00     0.124 A 
HETATM   23  S1  UNL     1      22.809   8.181  49.728  1.00  0.00    -0.018 SA
HETATM   24  C1  UNL     1      22.226   7.954  49.940  1.00  0.00    -0.076 A 
HETATM   25  C24 UNL     1      21.313   7.577  50.298  1.00  0.00     0.381 A 
ENDBRANCH  19  20
ENDBRANCH   1  19
BRANCH  14  26
HETATM   26  N5  UNL     1      24.214  -1.260  53.090  1.00  0.00    -0.340 N 
HETATM   27  H17 UNL     1      24.345  -2.243  52.800  1.00  0.00     0.167 HD
BRANCH  26  28
HETATM   28  C15 UNL     1      22.924  -0.769  53.437  1.00  0.00     0.033 A 
HETATM   29  C16 UNL     1      22.553  -0.588  54.760  1.00  0.00     0.029 A 
HETATM   30  C17 UNL     1      21.288  -0.109  55.023  1.00  0.00     0.002 A 
HETATM   31  C18 UNL     1      20.367   0.201  54.045  1.00  0.00     0.000 A 
HETATM   32  C19 UNL     1      20.719   0.026  52.720  1.00  0.00     0.002 A 
HETATM   33  C20 UNL     1      21.997  -0.456  52.469  1.00  0.00     0.029 A 
ENDBRANCH  26  28
ENDBRANCH  14  26
TORSDOF 5
ENDMDL
MODEL 8
REMARK VINA RESULT:      -8.5      2.228      4.798
REMARK  5 active torsions:
REMARK  status: ('A' for Active; 'I' for Inactive)
REMARK    1  A    between atoms: N1_5  and  C4_6 
REMARK    2  A    between atoms: N1_5  and  C24_31 
REMARK    3  A    between atoms: C4_6  and  C5_7 
REMARK    4  A    between atoms: C14_20  and  N5_21 
REMARK    5  A    between atoms: N5_21  and  C15_22 
ROOT
HETATM    1  C5  UNL     1      23.395   4.665  51.672  1.00  0.00     0.084 C 
HETATM    2  C6  UNL     1      21.969   4.728  52.095  1.00  0.00     0.280 C 
HETATM    3  N2  UNL     1      21.632   3.852  50.994  1.00  0.00     0.098 N 
HETATM    4  C7  UNL     1      22.970   3.373  51.003  1.00  0.00     0.196 C 
HETATM    5  C8  UNL     1      23.608   3.044  49.691  1.00  0.00     0.074 C 
HETATM    6  C9  UNL     1      25.069   2.782  49.846  1.00  0.00     0.178 C 
HETATM    7  O1  UNL     1      25.427   2.565  51.222  1.00  0.00    -0.350 OA
HETATM    8  C10 UNL     1      24.566   1.816  52.049  1.00  0.00     0.080 A 
HETATM    9  C11 UNL     1      24.908   0.782  52.898  1.00  0.00     0.070 A 
HETATM   10  C12 UNL     1      23.941   0.144  53.644  1.00  0.00     0.074 A 
HETATM   11  N3  UNL     1      24.313  -0.850  54.451  1.00  0.00    -0.241 NA
HETATM   12  C13 UNL     1      23.371  -1.488  55.192  1.00  0.00     0.236 A 
HETATM   13  N4  UNL     1      22.081  -1.119  55.108  1.00  0.00    -0.224 NA
HETATM   14  C14 UNL     1      21.668  -0.107  54.291  1.00  0.00     0.142 A 
HETATM   15  C21 UNL     1      22.624   0.541  53.539  1.00  0.00     0.039 A 
HETATM   16  C22 UNL     1      22.292   1.573  52.692  1.00  0.00     0.030 A 
HETATM   17  C23 UNL     1      23.230   2.230  51.937  1.00  0.00     0.015 A 
HETATM   18  H10 UNL     1      20.861   3.195  51.113  1.00  0.00     0.317 HD
ENDROOT
BRANCH   1  19
HETATM   19  C4  UNL     1      23.937   5.666  50.745  1.00  0.00     0.262 C 
BRANCH  19  20
HETATM   20  N1  UNL     1      24.272   6.961  51.233  1.00  0.00    -0.006 N 
HETATM   21  C3  UNL     1      25.536   7.403  50.562  1.00  0.00     0.312 A 
HETATM   22  C2  UNL     1      25.247   8.481  49.064  1.00  0.00     0.124 A 
HETATM   23  S1  UNL     1      24.207   8.237  49.662  1.00  0.00    -0.018 SA
HETATM   24  C1  UNL     1      23.656   8.094  49.999  1.00  0.00    -0.076 A 
HETATM   25  C24 UNL     1      22.797   7.850  50.551  1.00  0.00     0.381 A 
ENDBRANCH  19  20
ENDBRANCH   1  19
BRANCH  14  26
HETATM   26  N5  UNL     1      20.293   0.257  54.229  1.00  0.00    -0.340 N 
HETATM   27  H17 UNL     1      20.079   0.997  54.916  1.00  0.00     0.167 HD
BRANCH  26  28
HETATM   28  C15 UNL     1      19.275  -0.264  53.381  1.00  0.00     0.033 A 
HETATM   29  C16 UNL     1      19.018   0.292  52.138  1.00  0.00     0.029 A 
HETATM   30  C17 UNL     1      18.018  -0.263  51.369  1.00  0.00     0.002 A 
HETATM   31  C18 UNL     1      17.256  -1.343  51.765  1.00  0.00     0.000 A 
HETATM   32  C19 UNL     1      17.499  -1.910  53.001  1.00  0.00     0.002 A 
HETATM   33  C20 UNL     1      18.510  -1.341  53.766  1.00  0.00     0.029 A 
ENDBRANCH  26  28
ENDBRANCH  14  26
TORSDOF 5
ENDMDL
MODEL 9
REMARK VINA RESULT:      -8.3      2.893      7.302
REMARK  5 active torsions:
REMARK  status: ('A' for Active; 'I' for Inactive)
REMARK    1  A    between atoms: N1_5  and  C4_6 
REMARK    2  A    between atoms: N1_5  and  C24_31 
REMARK    3  A    between atoms: C4_6  and  C5_7 
REMARK    4  A    between atoms: C14_20  and  N5_21 
REMARK    5  A    between atoms: N5_21  and  C15_22 
ROOT
HETATM    1  C5  UNL     1      23.007   1.787  53.001  1.00  0.00     0.084 C 
HETATM    2  C6  UNL     1      24.430   2.204  53.123  1.00  0.00     0.280 C 
HETATM    3  N2  UNL     1      24.616   1.887  51.724  1.00  0.00     0.098 N 
HETATM    4  C7  UNL     1      23.221   2.071  51.527  1.00  0.00     0.196 C 
HETATM    5  C8  UNL     1      22.524   1.175  50.553  1.00  0.00     0.074 C 
HETATM    6  C9  UNL     1      21.043   1.333  50.630  1.00  0.00     0.178 C 
HETATM    7  O1  UNL     1      20.671   2.525  51.344  1.00  0.00    -0.350 OA
HETATM    8  C10 UNL     1      21.417   3.705  51.150  1.00  0.00     0.080 A 
HETATM    9  C11 UNL     1      20.931   4.974  50.902  1.00  0.00     0.070 A 
HETATM   10  C12 UNL     1      21.798   6.031  50.732  1.00  0.00     0.074 A 
HETATM   11  N3  UNL     1      21.286   7.240  50.493  1.00  0.00    -0.241 NA
HETATM   12  C13 UNL     1      22.128   8.291  50.323  1.00  0.00     0.236 A 
HETATM   13  N4  UNL     1      23.459   8.111  50.395  1.00  0.00    -0.224 NA
HETATM   14  C14 UNL     1      24.013   6.887  50.637  1.00  0.00     0.142 A 
HETATM   15  C21 UNL     1      23.158   5.819  50.809  1.00  0.00     0.039 A 
HETATM   16  C22 UNL     1      23.635   4.553  51.058  1.00  0.00     0.030 A 
HETATM   17  C23 UNL     1      22.799   3.479  51.234  1.00  0.00     0.015 A 
HETATM   18  H10 UNL     1      25.279   2.443  51.183  1.00  0.00     0.317 HD
ENDROOT
BRANCH   1  19
HETATM   19  C4  UNL     1      22.614   0.402  53.289  1.00  0.00     0.262 C 
BRANCH  19  20
HETATM   20  N1  UNL     1      21.792   0.130  54.420  1.00  0.00    -0.006 N 
HETATM   21  C3  UNL     1      20.397   0.573  54.104  1.00  0.00     0.312 A 
HETATM   22  C2  UNL     1      19.302  -0.806  53.480  1.00  0.00     0.124 A 
HETATM   23  S1  UNL     1      20.395  -1.218  53.845  1.00  0.00    -0.018 SA
HETATM   24  C1  UNL     1      20.991  -1.421  54.047  1.00  0.00    -0.076 A 
HETATM   25  C24 UNL     1      21.945  -1.715  54.373  1.00  0.00     0.381 A 
ENDBRANCH  19  20
ENDBRANCH   1  19
BRANCH  14  26
HETATM   26  N5  UNL     1      25.426   6.734  50.706  1.00  0.00    -0.340 N 
HETATM   27  H17 UNL     1      25.713   6.411  51.645  1.00  0.00     0.167 HD
BRANCH  26  28
HETATM   28  C15 UNL     1      26.395   6.968  49.690  1.00  0.00     0.033 A 
HETATM   29  C16 UNL     1      26.857   5.939  48.884  1.00  0.00     0.029 A 
HETATM   30  C17 UNL     1      27.795   6.238  47.920  1.00  0.00     0.002 A 
HETATM   31  C18 UNL     1      28.303   7.503  47.709  1.00  0.00     0.000 A 
HETATM   32  C19 UNL     1      27.853   8.540  48.503  1.00  0.00     0.002 A 
HETATM   33  C20 UNL     1      26.907   8.226  49.471  1.00  0.00     0.029 A 
ENDBRANCH  26  28
ENDBRANCH  14  26
TORSDOF 5
ENDMDL
