MODEL 1
REMARK VINA RESULT:      -8.7      0.000      0.000
REMARK  3 active torsions:
REMARK  status: ('A' for Active; 'I' for Inactive)
REMARK    1  A    between atoms: C5_6  and  C6_7 
REMARK    2  A    between atoms: C6_7  and  O1_8 
REMARK    3  A    between atoms: O1_8  and  C7_9 
ROOT
HETATM    1  C7  UNL     1      24.174   0.615  53.304  1.00  0.00     0.088 C 
HETATM    2  C8  UNL     1      24.276   1.510  52.290  1.00  0.00     0.018 C 
HETATM    3  C9  UNL     1      23.612   2.151  51.122  1.00  0.00     0.088 C 
HETATM    4  C10 UNL     1      22.189   1.781  50.990  1.00  0.00     0.035 C 
HETATM    5  C11 UNL     1      21.827   1.247  49.836  1.00  0.00     0.004 C 
HETATM    6  C12 UNL     1      20.475   1.345  49.184  1.00  0.00     0.057 C 
HETATM    7  C13 UNL     1      19.388   0.814  50.031  1.00  0.00    -0.006 C 
HETATM    8  C14 UNL     1      18.988   0.597  51.304  1.00  0.00     0.090 C 
HETATM    9  N1  UNL     1      19.718   0.942  52.513  1.00  0.00    -0.335 N 
HETATM   10  C15 UNL     1      20.471   2.141  52.834  1.00  0.00     0.211 C 
HETATM   11  N2  UNL     1      21.679   2.188  52.295  1.00  0.00    -0.248 NA
HETATM   12  C16 UNL     1      19.538  -0.268  53.339  1.00  0.00     0.251 C 
HETATM   13  N3  UNL     1      20.733  -1.092  53.149  1.00  0.00    -0.381 N 
HETATM   14  C17 UNL     1      22.023  -0.808  53.648  1.00  0.00     0.111 C 
HETATM   15  C18 UNL     1      23.235  -0.345  53.874  1.00  0.00     0.082 C 
HETATM   16 CL1  UNL     1      23.897  -1.164  55.320  1.00  0.00    -0.080 Cl
HETATM   17  H17 UNL     1      20.551  -1.965  52.546  1.00  0.00     0.160 HD
ENDROOT
BRANCH   1  18
HETATM   18  O1  UNL     1      25.396   0.723  53.919  1.00  0.00    -0.345 OA
BRANCH  18  19
HETATM   19  C6  UNL     1      26.584   1.285  53.513  1.00  0.00     0.214 C 
BRANCH  19  20
HETATM   20  C5  UNL     1      27.693   0.258  53.428  1.00  0.00    -0.031 A 
HETATM   21  C4  UNL     1      28.957   0.775  53.666  1.00  0.00     0.009 A 
HETATM   22  C3  UNL     1      30.068  -0.056  53.619  1.00  0.00     0.004 A 
HETATM   23  C2  UNL     1      29.905  -1.396  53.336  1.00  0.00     0.042 A 
HETATM   24  C1  UNL     1      28.628  -1.896  53.101  1.00  0.00     0.117 A 
HETATM   25  F1  UNL     1      28.418  -3.194  52.821  1.00  0.00    -0.206 F 
HETATM   26  C19 UNL     1      27.529  -1.068  53.147  1.00  0.00     0.051 A 
ENDBRANCH  19  20
ENDBRANCH  18  19
ENDBRANCH   1  18
TORSDOF 3
ENDMDL
MODEL 2
REMARK VINA RESULT:      -8.7      2.321      3.448
REMARK  3 active torsions:
REMARK  status: ('A' for Active; 'I' for Inactive)
REMARK    1  A    between atoms: C5_6  and  C6_7 
REMARK    2  A    between atoms: C6_7  and  O1_8 
REMARK    3  A    between atoms: O1_8  and  C7_9 
ROOT
HETATM    1  C7  UNL     1      23.674   2.232  52.638  1.00  0.00     0.088 C 
HETATM    2  C8  UNL     1      23.669   0.902  52.901  1.00  0.00     0.018 C 
HETATM    3  C9  UNL     1      22.857  -0.339  53.034  1.00  0.00     0.088 C 
HETATM    4  C10 UNL     1      21.447  -0.155  52.634  1.00  0.00     0.035 C 
HETATM    5  C11 UNL     1      20.536  -0.464  53.539  1.00  0.00     0.004 C 
HETATM    6  C12 UNL     1      19.143  -0.969  53.278  1.00  0.00     0.057 C 
HETATM    7  C13 UNL     1      18.340  -0.042  52.455  1.00  0.00    -0.006 C 
HETATM    8  C14 UNL     1      18.394   0.917  51.504  1.00  0.00     0.090 C 
HETATM    9  N1  UNL     1      19.589   1.414  50.841  1.00  0.00    -0.335 N 
HETATM   10  C15 UNL     1      20.743   0.690  50.338  1.00  0.00     0.211 C 
HETATM   11  N2  UNL     1      21.614   0.336  51.270  1.00  0.00    -0.248 NA
HETATM   12  C16 UNL     1      19.358   2.871  50.839  1.00  0.00     0.251 C 
HETATM   13  N3  UNL     1      20.073   3.415  51.996  1.00  0.00    -0.381 N 
HETATM   14  C17 UNL     1      21.475   3.526  52.126  1.00  0.00     0.111 C 
HETATM   15  C18 UNL     1      22.763   3.323  52.310  1.00  0.00     0.082 C 
HETATM   16 CL1  UNL     1      23.621   4.877  52.080  1.00  0.00    -0.080 Cl
HETATM   17  H17 UNL     1      19.417   3.716  52.794  1.00  0.00     0.160 HD
ENDROOT
BRANCH   1  18
HETATM   18  O1  UNL     1      25.005   2.552  52.751  1.00  0.00    -0.345 OA
BRANCH  18  19
HETATM   19  C6  UNL     1      26.090   2.265  51.956  1.00  0.00     0.214 C 
BRANCH  19  20
HETATM   20  C5  UNL     1      27.222   1.651  52.751  1.00  0.00    -0.031 A 
HETATM   21  C4  UNL     1      27.303   0.271  52.639  1.00  0.00     0.009 A 
HETATM   22  C3  UNL     1      28.296  -0.424  53.316  1.00  0.00     0.004 A 
HETATM   23  C2  UNL     1      29.198   0.265  54.099  1.00  0.00     0.042 A 
HETATM   24  C1  UNL     1      29.100   1.651  54.198  1.00  0.00     0.117 A 
HETATM   25  F1  UNL     1      29.956   2.367  54.948  1.00  0.00    -0.206 F 
HETATM   26  C19 UNL     1      28.114   2.336  53.525  1.00  0.00     0.051 A 
ENDBRANCH  19  20
ENDBRANCH  18  19
ENDBRANCH   1  18
TORSDOF 3
ENDMDL
MODEL 3
REMARK VINA RESULT:      -8.6      2.172      2.920
REMARK  3 active torsions:
REMARK  status: ('A' for Active; 'I' for Inactive)
REMARK    1  A    between atoms: C5_6  and  C6_7 
REMARK    2  A    between atoms: C6_7  and  O1_8 
REMARK    3  A    between atoms: O1_8  and  C7_9 
ROOT
HETATM    1  C7  UNL     1      24.146   1.045  52.690  1.00  0.00     0.088 C 
HETATM    2  C8  UNL     1      25.038   1.715  51.918  1.00  0.00     0.018 C 
HETATM    3  C9  UNL     1      25.245   2.732  50.851  1.00  0.00     0.088 C 
HETATM    4  C10 UNL     1      24.004   3.436  50.472  1.00  0.00     0.035 C 
HETATM    5  C11 UNL     1      23.670   3.388  49.194  1.00  0.00     0.004 C 
HETATM    6  C12 UNL     1      22.905   4.429  48.424  1.00  0.00     0.057 C 
HETATM    7  C13 UNL     1      21.572   4.705  48.997  1.00  0.00    -0.006 C 
HETATM    8  C14 UNL     1      20.840   4.710  50.133  1.00  0.00     0.090 C 
HETATM    9  N1  UNL     1      21.307   4.366  51.467  1.00  0.00    -0.335 N 
HETATM   10  C15 UNL     1      22.552   4.706  52.132  1.00  0.00     0.211 C 
HETATM   11  N2  UNL     1      23.587   3.968  51.765  1.00  0.00    -0.248 NA
HETATM   12  C16 UNL     1      20.200   3.534  51.977  1.00  0.00     0.251 C 
HETATM   13  N3  UNL     1      20.582   2.138  51.752  1.00  0.00    -0.381 N 
HETATM   14  C17 UNL     1      21.584   1.430  52.452  1.00  0.00     0.111 C 
HETATM   15  C18 UNL     1      22.710   0.930  52.916  1.00  0.00     0.082 C 
HETATM   16 CL1  UNL     1      22.319  -0.239  54.214  1.00  0.00    -0.080 Cl
HETATM   17  H17 UNL     1      20.030   1.674  50.954  1.00  0.00     0.160 HD
ENDROOT
BRANCH   1  18
HETATM   18  O1  UNL     1      24.957   0.244  53.454  1.00  0.00    -0.345 OA
BRANCH  18  19
HETATM   19  C6  UNL     1      25.722  -0.856  53.141  1.00  0.00     0.214 C 
BRANCH  19  20
HETATM   20  C5  UNL     1      27.190  -0.619  53.426  1.00  0.00    -0.031 A 
HETATM   21  C4  UNL     1      28.015  -1.659  53.024  1.00  0.00     0.009 A 
HETATM   22  C3  UNL     1      29.386  -1.574  53.225  1.00  0.00     0.004 A 
HETATM   23  C2  UNL     1      29.921  -0.453  53.824  1.00  0.00     0.042 A 
HETATM   24  C1  UNL     1      29.075   0.580  54.220  1.00  0.00     0.117 A 
HETATM   25  F1  UNL     1      29.548   1.693  54.808  1.00  0.00    -0.206 F 
HETATM   26  C19 UNL     1      27.716   0.493  54.020  1.00  0.00     0.051 A 
ENDBRANCH  19  20
ENDBRANCH  18  19
ENDBRANCH   1  18
TORSDOF 3
ENDMDL
MODEL 4
REMARK VINA RESULT:      -8.3      3.461      7.858
REMARK  3 active torsions:
REMARK  status: ('A' for Active; 'I' for Inactive)
REMARK    1  A    between atoms: C5_6  and  C6_7 
REMARK    2  A    between atoms: C6_7  and  O1_8 
REMARK    3  A    between atoms: O1_8  and  C7_9 
ROOT
HETATM    1  C7  UNL     1      24.088   1.059  53.061  1.00  0.00     0.088 C 
HETATM    2  C8  UNL     1      24.129  -0.271  53.319  1.00  0.00     0.018 C 
HETATM    3  C9  UNL     1      24.981  -1.474  53.527  1.00  0.00     0.088 C 
HETATM    4  C10 UNL     1      26.423  -1.161  53.585  1.00  0.00     0.035 C 
HETATM    5  C11 UNL     1      27.196  -1.797  52.723  1.00  0.00     0.004 C 
HETATM    6  C12 UNL     1      28.640  -2.173  52.916  1.00  0.00     0.057 C 
HETATM    7  C13 UNL     1      29.508  -1.008  53.182  1.00  0.00    -0.006 C 
HETATM    8  C14 UNL     1      29.549   0.241  53.699  1.00  0.00     0.090 C 
HETATM    9  N1  UNL     1      28.446   0.960  54.317  1.00  0.00    -0.335 N 
HETATM   10  C15 UNL     1      27.431   0.489  55.241  1.00  0.00     0.211 C 
HETATM   11  N2  UNL     1      26.446  -0.188  54.672  1.00  0.00    -0.248 NA
HETATM   12  C16 UNL     1      28.590   2.307  53.732  1.00  0.00     0.251 C 
HETATM   13  N3  UNL     1      27.670   2.375  52.595  1.00  0.00    -0.381 N 
HETATM   14  C17 UNL     1      26.261   2.436  52.671  1.00  0.00     0.111 C 
HETATM   15  C18 UNL     1      24.974   2.187  52.797  1.00  0.00     0.082 C 
HETATM   16 CL1  UNL     1      24.074   3.717  52.567  1.00  0.00    -0.080 Cl
HETATM   17  H17 UNL     1      28.173   2.346  51.644  1.00  0.00     0.160 HD
ENDROOT
BRANCH   1  18
HETATM   18  O1  UNL     1      22.740   1.320  53.062  1.00  0.00    -0.345 OA
BRANCH  18  19
HETATM   19  C6  UNL     1      21.653   0.542  53.386  1.00  0.00     0.214 C 
BRANCH  19  20
HETATM   20  C5  UNL     1      20.605   0.558  52.295  1.00  0.00    -0.031 A 
HETATM   21  C4  UNL     1      19.415  -0.060  52.650  1.00  0.00     0.009 A 
HETATM   22  C3  UNL     1      18.365  -0.119  51.743  1.00  0.00     0.004 A 
HETATM   23  C2  UNL     1      18.513   0.441  50.491  1.00  0.00     0.042 A 
HETATM   24  C1  UNL     1      19.715   1.057  50.155  1.00  0.00     0.117 A 
HETATM   25  F1  UNL     1      19.908   1.616  48.947  1.00  0.00    -0.206 F 
HETATM   26  C19 UNL     1      20.754   1.113  51.056  1.00  0.00     0.051 A 
ENDBRANCH  19  20
ENDBRANCH  18  19
ENDBRANCH   1  18
TORSDOF 3
ENDMDL
MODEL 5
REMARK VINA RESULT:      -8.2      6.647      7.977
REMARK  3 active torsions:
REMARK  status: ('A' for Active; 'I' for Inactive)
REMARK    1  A    between atoms: C5_6  and  C6_7 
REMARK    2  A    between atoms: C6_7  and  O1_8 
REMARK    3  A    between atoms: O1_8  and  C7_9 
ROOT
HETATM    1  C7  UNL     1      26.263   6.381  49.291  1.00  0.00     0.088 C 
HETATM    2  C8  UNL     1      26.804   5.185  48.951  1.00  0.00     0.018 C 
HETATM    3  C9  UNL     1      26.851   3.720  49.211  1.00  0.00     0.088 C 
HETATM    4  C10 UNL     1      25.833   3.270  50.181  1.00  0.00     0.035 C 
HETATM    5  C11 UNL     1      26.280   2.623  51.243  1.00  0.00     0.004 C 
HETATM    6  C12 UNL     1      25.552   1.562  52.023  1.00  0.00     0.057 C 
HETATM    7  C13 UNL     1      24.264   2.033  52.570  1.00  0.00    -0.006 C 
HETATM    8  C14 UNL     1      23.239   2.896  52.391  1.00  0.00     0.090 C 
HETATM    9  N1  UNL     1      23.083   3.841  51.296  1.00  0.00    -0.335 N 
HETATM   10  C15 UNL     1      23.337   3.669  49.877  1.00  0.00     0.211 C 
HETATM   11  N2  UNL     1      24.614   3.748  49.537  1.00  0.00    -0.248 NA
HETATM   12  C16 UNL     1      22.632   5.057  52.000  1.00  0.00     0.251 C 
HETATM   13  N3  UNL     1      23.819   5.885  52.217  1.00  0.00    -0.381 N 
HETATM   14  C17 UNL     1      24.532   6.590  51.222  1.00  0.00     0.111 C 
HETATM   15  C18 UNL     1      25.314   6.966  50.232  1.00  0.00     0.082 C 
HETATM   16 CL1  UNL     1      25.129   8.731  50.000  1.00  0.00    -0.080 Cl
HETATM   17  H17 UNL     1      24.143   5.896  53.244  1.00  0.00     0.160 HD
ENDROOT
BRANCH   1  18
HETATM   18  O1  UNL     1      26.878   7.244  48.419  1.00  0.00    -0.345 OA
BRANCH  18  19
HETATM   19  C6  UNL     1      27.988   7.105  47.617  1.00  0.00     0.214 C 
BRANCH  19  20
HETATM   20  C5  UNL     1      29.243   7.600  48.304  1.00  0.00    -0.031 A 
HETATM   21  C4  UNL     1      30.235   6.638  48.422  1.00  0.00     0.009 A 
HETATM   22  C3  UNL     1      31.441   6.955  49.032  1.00  0.00     0.004 A 
HETATM   23  C2  UNL     1      31.645   8.229  49.519  1.00  0.00     0.042 A 
HETATM   24  C1  UNL     1      30.636   9.180  49.391  1.00  0.00     0.117 A 
HETATM   25  F1  UNL     1      30.787  10.435  49.850  1.00  0.00    -0.206 F 
HETATM   26  C19 UNL     1      29.442   8.862  48.786  1.00  0.00     0.051 A 
ENDBRANCH  19  20
ENDBRANCH  18  19
ENDBRANCH   1  18
TORSDOF 3
ENDMDL
MODEL 6
REMARK VINA RESULT:      -8.1      4.398      5.952
REMARK  3 active torsions:
REMARK  status: ('A' for Active; 'I' for Inactive)
REMARK    1  A    between atoms: C5_6  and  C6_7 
REMARK    2  A    between atoms: C6_7  and  O1_8 
REMARK    3  A    between atoms: O1_8  and  C7_9 
ROOT
HETATM    1  C7  UNL     1      24.170   3.457  51.184  1.00  0.00     0.088 C 
HETATM    2  C8  UNL     1      24.772   2.276  51.468  1.00  0.00     0.018 C 
HETATM    3  C9  UNL     1      24.633   0.917  52.062  1.00  0.00     0.088 C 
HETATM    4  C10 UNL     1      23.246   0.595  52.452  1.00  0.00     0.035 C 
HETATM    5  C11 UNL     1      23.058   0.248  53.713  1.00  0.00     0.004 C 
HETATM    6  C12 UNL     1      22.000  -0.680  54.244  1.00  0.00     0.057 C 
HETATM    7  C13 UNL     1      20.629  -0.232  53.925  1.00  0.00    -0.006 C 
HETATM    8  C14 UNL     1      19.873   0.462  53.046  1.00  0.00     0.090 C 
HETATM    9  N1  UNL     1      20.336   1.119  51.833  1.00  0.00    -0.335 N 
HETATM   10  C15 UNL     1      21.284   0.663  50.833  1.00  0.00     0.211 C 
HETATM   11  N2  UNL     1      22.553   0.793  51.184  1.00  0.00    -0.248 NA
HETATM   12  C16 UNL     1      19.622   2.409  51.890  1.00  0.00     0.251 C 
HETATM   13  N3  UNL     1      20.549   3.381  52.475  1.00  0.00    -0.381 N 
HETATM   14  C17 UNL     1      21.695   3.915  51.845  1.00  0.00     0.111 C 
HETATM   15  C18 UNL     1      22.888   4.138  51.335  1.00  0.00     0.082 C 
HETATM   16 CL1  UNL     1      22.904   5.779  50.622  1.00  0.00    -0.080 Cl
HETATM   17  H17 UNL     1      20.293   3.652  53.484  1.00  0.00     0.160 HD
ENDROOT
BRANCH   1  18
HETATM   18  O1  UNL     1      25.174   4.162  50.568  1.00  0.00    -0.345 OA
BRANCH  18  19
HETATM   19  C6  UNL     1      26.150   3.783  49.677  1.00  0.00     0.214 C 
BRANCH  19  20
HETATM   20  C5  UNL     1      26.769   4.976  48.980  1.00  0.00    -0.031 A 
HETATM   21  C4  UNL     1      25.885   6.023  48.768  1.00  0.00     0.009 A 
HETATM   22  C3  UNL     1      26.319   7.182  48.138  1.00  0.00     0.004 A 
HETATM   23  C2  UNL     1      27.631   7.284  47.726  1.00  0.00     0.042 A 
HETATM   24  C1  UNL     1      28.502   6.221  47.948  1.00  0.00     0.117 A 
HETATM   25  F1  UNL     1      29.791   6.273  47.564  1.00  0.00    -0.206 F 
HETATM   26  C19 UNL     1      28.069   5.074  48.573  1.00  0.00     0.051 A 
ENDBRANCH  19  20
ENDBRANCH  18  19
ENDBRANCH   1  18
TORSDOF 3
ENDMDL
MODEL 7
REMARK VINA RESULT:      -8.0      3.688      7.817
REMARK  3 active torsions:
REMARK  status: ('A' for Active; 'I' for Inactive)
REMARK    1  A    between atoms: C5_6  and  C6_7 
REMARK    2  A    between atoms: C6_7  and  O1_8 
REMARK    3  A    between atoms: O1_8  and  C7_9 
ROOT
HETATM    1  C7  UNL     1      21.399   0.219  51.796  1.00  0.00     0.088 C 
HETATM    2  C8  UNL     1      22.198  -0.203  52.807  1.00  0.00     0.018 C 
HETATM    3  C9  UNL     1      23.549  -0.154  53.432  1.00  0.00     0.088 C 
HETATM    4  C10 UNL     1      24.448   0.827  52.792  1.00  0.00     0.035 C 
HETATM    5  C11 UNL     1      25.597   0.360  52.337  1.00  0.00     0.004 C 
HETATM    6  C12 UNL     1      26.895   1.112  52.229  1.00  0.00     0.057 C 
HETATM    7  C13 UNL     1      26.792   2.320  51.386  1.00  0.00    -0.006 C 
HETATM    8  C14 UNL     1      25.956   3.284  50.940  1.00  0.00     0.090 C 
HETATM    9  N1  UNL     1      24.551   3.442  51.281  1.00  0.00    -0.335 N 
HETATM   10  C15 UNL     1      23.886   3.299  52.564  1.00  0.00     0.211 C 
HETATM   11  N2  UNL     1      23.657   2.046  52.925  1.00  0.00    -0.248 NA
HETATM   12  C16 UNL     1      23.947   3.748  49.971  1.00  0.00     0.251 C 
HETATM   13  N3  UNL     1      23.422   2.487  49.442  1.00  0.00    -0.381 N 
HETATM   14  C17 UNL     1      22.291   1.792  49.925  1.00  0.00     0.111 C 
HETATM   15  C18 UNL     1      21.435   1.053  50.600  1.00  0.00     0.082 C 
HETATM   16 CL1  UNL     1      19.852   1.117  49.769  1.00  0.00    -0.080 Cl
HETATM   17  H17 UNL     1      24.009   2.095  48.629  1.00  0.00     0.160 HD
ENDROOT
BRANCH   1  18
HETATM   18  O1  UNL     1      20.208  -0.401  52.080  1.00  0.00    -0.345 OA
BRANCH  18  19
HETATM   19  C6  UNL     1      19.287  -0.207  53.084  1.00  0.00     0.214 C 
BRANCH  19  20
HETATM   20  C5  UNL     1      18.156  -1.210  53.010  1.00  0.00    -0.031 A 
HETATM   21  C4  UNL     1      17.073  -0.781  52.258  1.00  0.00     0.009 A 
HETATM   22  C3  UNL     1      15.964  -1.602  52.107  1.00  0.00     0.004 A 
HETATM   23  C2  UNL     1      15.947  -2.844  52.707  1.00  0.00     0.042 A 
HETATM   24  C1  UNL     1      17.044  -3.256  53.458  1.00  0.00     0.117 A 
HETATM   25  F1  UNL     1      17.075  -4.457  54.062  1.00  0.00    -0.206 F 
HETATM   26  C19 UNL     1      18.142  -2.438  53.606  1.00  0.00     0.051 A 
ENDBRANCH  19  20
ENDBRANCH  18  19
ENDBRANCH   1  18
TORSDOF 3
ENDMDL
MODEL 8
REMARK VINA RESULT:      -8.0      9.298     10.909
REMARK  3 active torsions:
REMARK  status: ('A' for Active; 'I' for Inactive)
REMARK    1  A    between atoms: C5_6  and  C6_7 
REMARK    2  A    between atoms: C6_7  and  O1_8 
REMARK    3  A    between atoms: O1_8  and  C7_9 
ROOT
HETATM    1  C7  UNL     1      30.459   6.016  48.490  1.00  0.00     0.088 C 
HETATM    2  C8  UNL     1      29.272   5.393  48.287  1.00  0.00     0.018 C 
HETATM    3  C9  UNL     1      27.787   5.505  48.300  1.00  0.00     0.088 C 
HETATM    4  C10 UNL     1      27.312   6.883  48.533  1.00  0.00     0.035 C 
HETATM    5  C11 UNL     1      26.495   7.056  49.557  1.00  0.00     0.004 C 
HETATM    6  C12 UNL     1      25.414   8.095  49.681  1.00  0.00     0.057 C 
HETATM    7  C13 UNL     1      25.926   9.475  49.565  1.00  0.00    -0.006 C 
HETATM    8  C14 UNL     1      26.896  10.249  49.029  1.00  0.00     0.090 C 
HETATM    9  N1  UNL     1      27.985   9.807  48.172  1.00  0.00    -0.335 N 
HETATM   10  C15 UNL     1      27.975   8.859  47.072  1.00  0.00     0.211 C 
HETATM   11  N2  UNL     1      27.979   7.589  47.445  1.00  0.00    -0.248 NA
HETATM   12  C16 UNL     1      29.136  10.541  48.731  1.00  0.00     0.251 C 
HETATM   13  N3  UNL     1      29.817   9.625  49.649  1.00  0.00    -0.381 N 
HETATM   14  C17 UNL     1      30.576   8.493  49.280  1.00  0.00     0.111 C 
HETATM   15  C18 UNL     1      31.002   7.307  48.896  1.00  0.00     0.082 C 
HETATM   16 CL1  UNL     1      32.792   7.324  48.885  1.00  0.00    -0.080 Cl
HETATM   17  H17 UNL     1      29.665   9.877  50.684  1.00  0.00     0.160 HD
ENDROOT
BRANCH   1  18
HETATM   18  O1  UNL     1      31.366   5.028  48.200  1.00  0.00    -0.345 OA
BRANCH  18  19
HETATM   19  C6  UNL     1      31.387   4.056  47.226  1.00  0.00     0.214 C 
BRANCH  19  20
HETATM   20  C5  UNL     1      32.704   4.038  46.480  1.00  0.00    -0.031 A 
HETATM   21  C4  UNL     1      33.700   3.311  47.115  1.00  0.00     0.009 A 
HETATM   22  C3  UNL     1      34.960   3.210  46.541  1.00  0.00     0.004 A 
HETATM   23  C2  UNL     1      35.214   3.835  45.338  1.00  0.00     0.042 A 
HETATM   24  C1  UNL     1      34.200   4.560  44.716  1.00  0.00     0.117 A 
HETATM   25  F1  UNL     1      34.399   5.187  43.543  1.00  0.00    -0.206 F 
HETATM   26  C19 UNL     1      32.952   4.658  45.289  1.00  0.00     0.051 A 
ENDBRANCH  19  20
ENDBRANCH  18  19
ENDBRANCH   1  18
TORSDOF 3
ENDMDL
MODEL 9
REMARK VINA RESULT:      -7.8      4.352      6.887
REMARK  3 active torsions:
REMARK  status: ('A' for Active; 'I' for Inactive)
REMARK    1  A    between atoms: C5_6  and  C6_7 
REMARK    2  A    between atoms: C6_7  and  O1_8 
REMARK    3  A    between atoms: O1_8  and  C7_9 
ROOT
HETATM    1  C7  UNL     1      23.157   2.990  50.269  1.00  0.00     0.088 C 
HETATM    2  C8  UNL     1      24.399   2.826  50.787  1.00  0.00     0.018 C 
HETATM    3  C9  UNL     1      25.816   3.282  50.794  1.00  0.00     0.088 C 
HETATM    4  C10 UNL     1      26.039   4.496  49.983  1.00  0.00     0.035 C 
HETATM    5  C11 UNL     1      26.951   4.405  49.032  1.00  0.00     0.004 C 
HETATM    6  C12 UNL     1      27.811   5.519  48.500  1.00  0.00     0.057 C 
HETATM    7  C13 UNL     1      27.024   6.642  47.953  1.00  0.00    -0.006 C 
HETATM    8  C14 UNL     1      25.850   7.308  48.033  1.00  0.00     0.090 C 
HETATM    9  N1  UNL     1      24.753   7.026  48.946  1.00  0.00    -0.335 N 
HETATM   10  C15 UNL     1      24.783   6.678  50.355  1.00  0.00     0.211 C 
HETATM   11  N2  UNL     1      25.088   5.414  50.600  1.00  0.00    -0.248 NA
HETATM   12  C16 UNL     1      23.578   7.140  48.061  1.00  0.00     0.251 C 
HETATM   13  N3  UNL     1      23.240   5.783  47.629  1.00  0.00    -0.381 N 
HETATM   14  C17 UNL     1      22.673   4.772  48.436  1.00  0.00     0.111 C 
HETATM   15  C18 UNL     1      22.436   3.803  49.295  1.00  0.00     0.082 C 
HETATM   16 CL1  UNL     1      20.698   3.384  49.215  1.00  0.00    -0.080 Cl
HETATM   17  H17 UNL     1      23.493   5.594  46.600  1.00  0.00     0.160 HD
ENDROOT
BRANCH   1  18
HETATM   18  O1  UNL     1      22.429   2.034  50.933  1.00  0.00    -0.345 OA
BRANCH  18  19
HETATM   19  C6  UNL     1      21.750   2.062  52.129  1.00  0.00     0.214 C 
BRANCH  19  20
HETATM   20  C5  UNL     1      22.168   0.926  53.039  1.00  0.00    -0.031 A 
HETATM   21  C4  UNL     1      21.127   0.389  53.781  1.00  0.00     0.009 A 
HETATM   22  C3  UNL     1      21.369  -0.660  54.658  1.00  0.00     0.004 A 
HETATM   23  C2  UNL     1      22.646  -1.163  54.785  1.00  0.00     0.042 A 
HETATM   24  C1  UNL     1      23.677  -0.610  54.031  1.00  0.00     0.117 A 
HETATM   25  F1  UNL     1      24.940  -1.066  54.119  1.00  0.00    -0.206 F 
HETATM   26  C19 UNL     1      23.434   0.430  53.162  1.00  0.00     0.051 A 
ENDBRANCH  19  20
ENDBRANCH  18  19
ENDBRANCH   1  18
TORSDOF 3
ENDMDL
