MODEL 1
REMARK VINA RESULT:      -8.3      0.000      0.000
REMARK  3 active torsions:
REMARK  status: ('A' for Active; 'I' for Inactive)
REMARK    1  A    between atoms: C6_6  and  N1_7 
REMARK    2  A    between atoms: N1_7  and  C8_9 
REMARK    3  A    between atoms: C13_15  and  O1_16 
ROOT
HETATM    1  C8  UNL     1      24.411   2.115  51.853  1.00  0.00     0.138 C 
HETATM    2  C9  UNL     1      24.268   1.113  52.693  1.00  0.00     0.001 C 
HETATM    3  C10 UNL     1      22.846   1.248  53.054  1.00  0.00     0.011 C 
HETATM    4  C11 UNL     1      21.916   0.455  53.568  1.00  0.00     0.017 C 
HETATM    5  C12 UNL     1      22.208  -0.948  53.931  1.00  0.00     0.249 C 
HETATM    6  F1  UNL     1      22.217  -1.777  52.824  1.00  0.00    -0.238 F 
HETATM    7  C13 UNL     1      23.420  -1.094  54.764  1.00  0.00     0.078 C 
HETATM    8  C14 UNL     1      24.601  -0.636  54.389  1.00  0.00     0.023 C 
HETATM    9  C15 UNL     1      25.145   0.076  53.223  1.00  0.00     0.088 C 
HETATM   10  C16 UNL     1      26.486   0.646  53.484  1.00  0.00     0.104 C 
HETATM   11  N2  UNL     1      27.221   1.507  52.863  1.00  0.00    -0.257 NA
HETATM   12  C17 UNL     1      26.848   2.175  51.638  1.00  0.00     0.234 C 
HETATM   13  N3  UNL     1      25.648   2.445  51.187  1.00  0.00    -0.224 NA
ENDROOT
BRANCH   1  14
HETATM   14  N1  UNL     1      23.375   3.020  51.476  1.00  0.00    -0.336 N 
HETATM   15  C7  UNL     1      22.742   4.062  52.306  1.00  0.00     0.158 C 
BRANCH  14  16
HETATM   16  C6  UNL     1      22.869   2.897  50.126  1.00  0.00     0.036 A 
HETATM   17  C5  UNL     1      22.357   1.706  49.642  1.00  0.00     0.029 A 
HETATM   18  C4  UNL     1      21.868   1.558  48.362  1.00  0.00     0.003 A 
HETATM   19  C3  UNL     1      21.884   2.645  47.513  1.00  0.00     0.007 A 
HETATM   20  C2  UNL     1      22.384   3.854  47.951  1.00  0.00    -0.060 A 
HETATM   21  C1  UNL     1      22.384   5.003  47.009  1.00  0.00     0.048 C 
HETATM   22  C18 UNL     1      22.862   3.954  49.242  1.00  0.00     0.036 A 
ENDBRANCH  14  16
ENDBRANCH   1  14
BRANCH   7  23
HETATM   23  O1  UNL     1      23.336  -1.734  55.994  1.00  0.00    -0.362 OA
HETATM   24  H13 UNL     1      23.491  -1.290  56.883  1.00  0.00     0.217 HD
ENDBRANCH   7  23
TORSDOF 3
ENDMDL
MODEL 2
REMARK VINA RESULT:      -8.2      0.888      1.574
REMARK  3 active torsions:
REMARK  status: ('A' for Active; 'I' for Inactive)
REMARK    1  A    between atoms: C6_6  and  N1_7 
REMARK    2  A    between atoms: N1_7  and  C8_9 
REMARK    3  A    between atoms: C13_15  and  O1_16 
ROOT
HETATM    1  C8  UNL     1      25.055   2.163  52.488  1.00  0.00     0.138 C 
HETATM    2  C9  UNL     1      24.712   1.094  53.172  1.00  0.00     0.001 C 
HETATM    3  C10 UNL     1      23.271   1.333  53.364  1.00  0.00     0.011 C 
HETATM    4  C11 UNL     1      22.213   0.588  53.655  1.00  0.00     0.017 C 
HETATM    5  C12 UNL     1      22.329  -0.869  53.874  1.00  0.00     0.249 C 
HETATM    6  F1  UNL     1      22.416  -1.566  52.683  1.00  0.00    -0.238 F 
HETATM    7  C13 UNL     1      23.397  -1.231  54.829  1.00  0.00     0.078 C 
HETATM    8  C14 UNL     1      24.653  -0.858  54.665  1.00  0.00     0.023 C 
HETATM    9  C15 UNL     1      25.413  -0.081  53.675  1.00  0.00     0.088 C 
HETATM   10  C16 UNL     1      26.751   0.315  54.171  1.00  0.00     0.104 C 
HETATM   11  N2  UNL     1      27.636   1.159  53.760  1.00  0.00    -0.257 NA
HETATM   12  C17 UNL     1      27.495   1.994  52.591  1.00  0.00     0.234 C 
HETATM   13  N3  UNL     1      26.397   2.436  52.028  1.00  0.00    -0.224 NA
ENDROOT
BRANCH   1  14
HETATM   14  N1  UNL     1      24.165   3.206  52.098  1.00  0.00    -0.336 N 
HETATM   15  C7  UNL     1      23.684   4.334  52.917  1.00  0.00     0.158 C 
BRANCH  14  16
HETATM   16  C6  UNL     1      23.654   3.149  50.745  1.00  0.00     0.036 A 
HETATM   17  C5  UNL     1      23.995   4.093  49.794  1.00  0.00     0.029 A 
HETATM   18  C4  UNL     1      23.525   4.066  48.499  1.00  0.00     0.003 A 
HETATM   19  C3  UNL     1      22.671   3.050  48.121  1.00  0.00     0.007 A 
HETATM   20  C2  UNL     1      22.303   2.085  49.035  1.00  0.00    -0.060 A 
HETATM   21  C1  UNL     1      21.382   1.006  48.592  1.00  0.00     0.048 C 
HETATM   22  C18 UNL     1      22.800   2.153  50.321  1.00  0.00     0.036 A 
ENDBRANCH  14  16
ENDBRANCH   1  14
BRANCH   7  23
HETATM   23  O1  UNL     1      23.089  -1.993  55.949  1.00  0.00    -0.362 OA
HETATM   24  H13 UNL     1      22.498  -2.807  55.944  1.00  0.00     0.217 HD
ENDBRANCH   7  23
TORSDOF 3
ENDMDL
MODEL 3
REMARK VINA RESULT:      -7.9      2.062      3.264
REMARK  3 active torsions:
REMARK  status: ('A' for Active; 'I' for Inactive)
REMARK    1  A    between atoms: C6_6  and  N1_7 
REMARK    2  A    between atoms: N1_7  and  C8_9 
REMARK    3  A    between atoms: C13_15  and  O1_16 
ROOT
HETATM    1  C8  UNL     1      22.973   2.001  52.283  1.00  0.00     0.138 C 
HETATM    2  C9  UNL     1      23.886   1.126  52.644  1.00  0.00     0.001 C 
HETATM    3  C10 UNL     1      25.069   1.646  51.938  1.00  0.00     0.011 C 
HETATM    4  C11 UNL     1      26.383   1.513  52.058  1.00  0.00     0.017 C 
HETATM    5  C12 UNL     1      26.983   0.666  53.110  1.00  0.00     0.249 C 
HETATM    6  F1  UNL     1      26.997   1.300  54.339  1.00  0.00    -0.238 F 
HETATM    7  C13 UNL     1      26.397  -0.689  53.172  1.00  0.00     0.078 C 
HETATM    8  C14 UNL     1      25.102  -0.897  53.330  1.00  0.00     0.023 C 
HETATM    9  C15 UNL     1      23.901  -0.064  53.487  1.00  0.00     0.088 C 
HETATM   10  C16 UNL     1      22.651  -0.830  53.285  1.00  0.00     0.104 C 
HETATM   11  N2  UNL     1      21.419  -0.489  53.105  1.00  0.00    -0.257 NA
HETATM   12  C17 UNL     1      20.943   0.874  53.057  1.00  0.00     0.234 C 
HETATM   13  N3  UNL     1      21.593   1.956  52.708  1.00  0.00    -0.224 NA
ENDROOT
BRANCH   1  14
HETATM   14  N1  UNL     1      23.203   3.117  51.427  1.00  0.00    -0.336 N 
HETATM   15  C7  UNL     1      23.806   4.416  51.781  1.00  0.00     0.158 C 
BRANCH  14  16
HETATM   16  C6  UNL     1      22.784   2.974  50.050  1.00  0.00     0.036 A 
HETATM   17  C5  UNL     1      22.366   1.760  49.535  1.00  0.00     0.029 A 
HETATM   18  C4  UNL     1      21.962   1.591  48.228  1.00  0.00     0.003 A 
HETATM   19  C3  UNL     1      21.968   2.682  47.383  1.00  0.00     0.007 A 
HETATM   20  C2  UNL     1      22.375   3.914  47.852  1.00  0.00    -0.060 A 
HETATM   21  C1  UNL     1      22.369   5.066  46.913  1.00  0.00     0.048 C 
HETATM   22  C18 UNL     1      22.772   4.034  49.168  1.00  0.00     0.036 A 
ENDBRANCH  14  16
ENDBRANCH   1  14
BRANCH   7  23
HETATM   23  O1  UNL     1      27.222  -1.801  53.061  1.00  0.00    -0.362 OA
HETATM   24  H13 UNL     1      28.225  -1.766  52.999  1.00  0.00     0.217 HD
ENDBRANCH   7  23
TORSDOF 3
ENDMDL
MODEL 4
REMARK VINA RESULT:      -7.7      2.693      4.257
REMARK  3 active torsions:
REMARK  status: ('A' for Active; 'I' for Inactive)
REMARK    1  A    between atoms: C6_6  and  N1_7 
REMARK    2  A    between atoms: N1_7  and  C8_9 
REMARK    3  A    between atoms: C13_15  and  O1_16 
ROOT
HETATM    1  C8  UNL     1      23.056   2.640  51.320  1.00  0.00     0.138 C 
HETATM    2  C9  UNL     1      23.864   1.900  52.048  1.00  0.00     0.001 C 
HETATM    3  C10 UNL     1      25.087   1.928  51.229  1.00  0.00     0.011 C 
HETATM    4  C11 UNL     1      26.378   1.705  51.438  1.00  0.00     0.017 C 
HETATM    5  C12 UNL     1      26.892   1.321  52.770  1.00  0.00     0.249 C 
HETATM    6  F1  UNL     1      27.006   2.411  53.614  1.00  0.00    -0.238 F 
HETATM    7  C13 UNL     1      26.148   0.200  53.380  1.00  0.00     0.078 C 
HETATM    8  C14 UNL     1      24.841   0.232  53.568  1.00  0.00     0.023 C 
HETATM    9  C15 UNL     1      23.752   1.188  53.316  1.00  0.00     0.088 C 
HETATM   10  C16 UNL     1      22.414   0.562  53.416  1.00  0.00     0.104 C 
HETATM   11  N2  UNL     1      21.230   0.937  53.067  1.00  0.00    -0.257 NA
HETATM   12  C17 UNL     1      20.920   2.195  52.430  1.00  0.00     0.234 C 
HETATM   13  N3  UNL     1      21.690   2.942  51.677  1.00  0.00    -0.224 NA
ENDROOT
BRANCH   1  14
HETATM   14  N1  UNL     1      23.403   3.251  50.080  1.00  0.00    -0.336 N 
HETATM   15  C7  UNL     1      23.134   2.748  48.720  1.00  0.00     0.158 C 
BRANCH  14  16
HETATM   16  C6  UNL     1      24.119   4.507  50.155  1.00  0.00     0.036 A 
HETATM   17  C5  UNL     1      23.743   5.512  51.028  1.00  0.00     0.029 A 
HETATM   18  C4  UNL     1      24.405   6.718  51.122  1.00  0.00     0.003 A 
HETATM   19  C3  UNL     1      25.498   6.944  50.311  1.00  0.00     0.007 A 
HETATM   20  C2  UNL     1      25.910   5.970  49.425  1.00  0.00    -0.060 A 
HETATM   21  C1  UNL     1      27.092   6.249  48.567  1.00  0.00     0.048 C 
HETATM   22  C18 UNL     1      25.217   4.778  49.367  1.00  0.00     0.036 A 
ENDBRANCH  14  16
ENDBRANCH   1  14
BRANCH   7  23
HETATM   23  O1  UNL     1      26.830  -0.943  53.779  1.00  0.00    -0.362 OA
HETATM   24  H13 UNL     1      26.492  -1.882  53.660  1.00  0.00     0.217 HD
ENDBRANCH   7  23
TORSDOF 3
ENDMDL
MODEL 5
REMARK VINA RESULT:      -7.5      2.566      5.699
REMARK  3 active torsions:
REMARK  status: ('A' for Active; 'I' for Inactive)
REMARK    1  A    between atoms: C6_6  and  N1_7 
REMARK    2  A    between atoms: N1_7  and  C8_9 
REMARK    3  A    between atoms: C13_15  and  O1_16 
ROOT
HETATM    1  C8  UNL     1      24.787   0.836  53.446  1.00  0.00     0.138 C 
HETATM    2  C9  UNL     1      23.518   0.750  53.110  1.00  0.00     0.001 C 
HETATM    3  C10 UNL     1      23.113  -0.459  53.847  1.00  0.00     0.011 C 
HETATM    4  C11 UNL     1      21.966  -0.979  54.263  1.00  0.00     0.017 C 
HETATM    5  C12 UNL     1      20.673  -0.309  54.008  1.00  0.00     0.249 C 
HETATM    6  F1  UNL     1      20.449   0.734  54.888  1.00  0.00    -0.238 F 
HETATM    7  C13 UNL     1      20.490   0.085  52.596  1.00  0.00     0.078 C 
HETATM    8  C14 UNL     1      21.351   0.854  51.954  1.00  0.00     0.023 C 
HETATM    9  C15 UNL     1      22.616   1.532  52.273  1.00  0.00     0.088 C 
HETATM   10  C16 UNL     1      23.334   1.990  51.062  1.00  0.00     0.104 C 
HETATM   11  N2  UNL     1      24.536   2.409  50.848  1.00  0.00    -0.257 NA
HETATM   12  C17 UNL     1      25.555   2.537  51.863  1.00  0.00     0.234 C 
HETATM   13  N3  UNL     1      25.680   1.872  52.985  1.00  0.00    -0.224 NA
ENDROOT
BRANCH   1  14
HETATM   14  N1  UNL     1      25.467  -0.073  54.308  1.00  0.00    -0.336 N 
HETATM   15  C7  UNL     1      25.152  -0.391  55.713  1.00  0.00     0.158 C 
BRANCH  14  16
HETATM   16  C6  UNL     1      26.615  -0.757  53.752  1.00  0.00     0.036 A 
HETATM   17  C5  UNL     1      26.483  -1.879  52.954  1.00  0.00     0.029 A 
HETATM   18  C4  UNL     1      27.556  -2.551  52.411  1.00  0.00     0.003 A 
HETATM   19  C3  UNL     1      28.831  -2.090  52.668  1.00  0.00     0.007 A 
HETATM   20  C2  UNL     1      29.013  -0.973  53.458  1.00  0.00    -0.060 A 
HETATM   21  C1  UNL     1      30.400  -0.505  53.713  1.00  0.00     0.048 C 
HETATM   22  C18 UNL     1      27.907  -0.333  53.979  1.00  0.00     0.036 A 
ENDBRANCH  14  16
ENDBRANCH   1  14
BRANCH   7  23
HETATM   23  O1  UNL     1      19.375  -0.362  51.896  1.00  0.00    -0.362 OA
HETATM   24  H13 UNL     1      19.369  -1.149  51.271  1.00  0.00     0.217 HD
ENDBRANCH   7  23
TORSDOF 3
ENDMDL
MODEL 6
REMARK VINA RESULT:      -7.3      8.859     11.027
REMARK  3 active torsions:
REMARK  status: ('A' for Active; 'I' for Inactive)
REMARK    1  A    between atoms: C6_6  and  N1_7 
REMARK    2  A    between atoms: N1_7  and  C8_9 
REMARK    3  A    between atoms: C13_15  and  O1_16 
ROOT
HETATM    1  C8  UNL     1      31.443   7.070  46.559  1.00  0.00     0.138 C 
HETATM    2  C9  UNL     1      32.267   6.102  46.225  1.00  0.00     0.001 C 
HETATM    3  C10 UNL     1      32.371   5.369  47.499  1.00  0.00     0.011 C 
HETATM    4  C11 UNL     1      32.734   4.148  47.867  1.00  0.00     0.017 C 
HETATM    5  C12 UNL     1      33.173   3.139  46.879  1.00  0.00     0.249 C 
HETATM    6  F1  UNL     1      32.103   2.558  46.224  1.00  0.00    -0.238 F 
HETATM    7  C13 UNL     1      34.206   3.643  45.952  1.00  0.00     0.078 C 
HETATM    8  C14 UNL     1      34.032   4.723  45.211  1.00  0.00     0.023 C 
HETATM    9  C15 UNL     1      32.963   5.712  45.005  1.00  0.00     0.088 C 
HETATM   10  C16 UNL     1      33.441   6.922  44.299  1.00  0.00     0.104 C 
HETATM   11  N2  UNL     1      32.938   8.096  44.110  1.00  0.00    -0.257 NA
HETATM   12  C17 UNL     1      31.653   8.529  44.605  1.00  0.00     0.234 C 
HETATM   13  N3  UNL     1      30.994   8.102  45.654  1.00  0.00    -0.224 NA
ENDROOT
BRANCH   1  14
HETATM   14  N1  UNL     1      30.872   7.249  47.853  1.00  0.00    -0.336 N 
HETATM   15  C7  UNL     1      31.557   7.661  49.093  1.00  0.00     0.158 C 
BRANCH  14  16
HETATM   16  C6  UNL     1      29.455   6.979  47.978  1.00  0.00     0.036 A 
HETATM   17  C5  UNL     1      28.499   7.925  47.652  1.00  0.00     0.029 A 
HETATM   18  C4  UNL     1      27.144   7.698  47.761  1.00  0.00     0.003 A 
HETATM   19  C3  UNL     1      26.708   6.471  48.215  1.00  0.00     0.007 A 
HETATM   20  C2  UNL     1      27.624   5.496  48.552  1.00  0.00    -0.060 A 
HETATM   21  C1  UNL     1      27.117   4.186  49.038  1.00  0.00     0.048 C 
HETATM   22  C18 UNL     1      28.971   5.769  48.426  1.00  0.00     0.036 A 
ENDBRANCH  14  16
ENDBRANCH   1  14
BRANCH   7  23
HETATM   23  O1  UNL     1      35.417   2.971  45.840  1.00  0.00    -0.362 OA
HETATM   24  H13 UNL     1      35.532   2.063  45.422  1.00  0.00     0.217 HD
ENDBRANCH   7  23
TORSDOF 3
ENDMDL
MODEL 7
REMARK VINA RESULT:      -7.2      3.069      5.848
REMARK  3 active torsions:
REMARK  status: ('A' for Active; 'I' for Inactive)
REMARK    1  A    between atoms: C6_6  and  N1_7 
REMARK    2  A    between atoms: N1_7  and  C8_9 
REMARK    3  A    between atoms: C13_15  and  O1_16 
ROOT
HETATM    1  C8  UNL     1      21.617   2.091  50.755  1.00  0.00     0.138 C 
HETATM    2  C9  UNL     1      22.884   2.381  50.553  1.00  0.00     0.001 C 
HETATM    3  C10 UNL     1      23.307   2.753  51.914  1.00  0.00     0.011 C 
HETATM    4  C11 UNL     1      24.463   2.843  52.559  1.00  0.00     0.017 C 
HETATM    5  C12 UNL     1      25.746   2.528  51.897  1.00  0.00     0.249 C 
HETATM    6  F1  UNL     1      25.967   1.165  51.817  1.00  0.00    -0.238 F 
HETATM    7  C13 UNL     1      25.914   3.212  50.598  1.00  0.00     0.078 C 
HETATM    8  C14 UNL     1      25.041   3.096  49.615  1.00  0.00     0.023 C 
HETATM    9  C15 UNL     1      23.771   2.386  49.397  1.00  0.00     0.088 C 
HETATM   10  C16 UNL     1      23.039   2.888  48.212  1.00  0.00     0.104 C 
HETATM   11  N2  UNL     1      21.831   2.733  47.783  1.00  0.00    -0.257 NA
HETATM   12  C17 UNL     1      20.819   1.944  48.445  1.00  0.00     0.234 C 
HETATM   13  N3  UNL     1      20.709   1.657  49.719  1.00  0.00    -0.224 NA
ENDROOT
BRANCH   1  14
HETATM   14  N1  UNL     1      20.953   2.160  52.014  1.00  0.00    -0.336 N 
HETATM   15  C7  UNL     1      20.390   3.353  52.673  1.00  0.00     0.158 C 
BRANCH  14  16
HETATM   16  C6  UNL     1      20.825   0.918  52.747  1.00  0.00     0.036 A 
HETATM   17  C5  UNL     1      19.684   0.141  52.677  1.00  0.00     0.029 A 
HETATM   18  C4  UNL     1      19.533  -1.045  53.364  1.00  0.00     0.003 A 
HETATM   19  C3  UNL     1      20.567  -1.488  54.163  1.00  0.00     0.007 A 
HETATM   20  C2  UNL     1      21.726  -0.746  54.264  1.00  0.00    -0.060 A 
HETATM   21  C1  UNL     1      22.818  -1.256  55.134  1.00  0.00     0.048 C 
HETATM   22  C18 UNL     1      21.831   0.434  53.557  1.00  0.00     0.036 A 
ENDBRANCH  14  16
ENDBRANCH   1  14
BRANCH   7  23
HETATM   23  O1  UNL     1      27.028   4.015  50.383  1.00  0.00    -0.362 OA
HETATM   24  H13 UNL     1      27.021   5.020  50.399  1.00  0.00     0.217 HD
ENDBRANCH   7  23
TORSDOF 3
ENDMDL
MODEL 8
REMARK VINA RESULT:      -7.1      3.553      6.743
REMARK  3 active torsions:
REMARK  status: ('A' for Active; 'I' for Inactive)
REMARK    1  A    between atoms: C6_6  and  N1_7 
REMARK    2  A    between atoms: N1_7  and  C8_9 
REMARK    3  A    between atoms: C13_15  and  O1_16 
ROOT
HETATM    1  C8  UNL     1      22.151   2.635  50.369  1.00  0.00     0.138 C 
HETATM    2  C9  UNL     1      22.738   3.693  49.854  1.00  0.00     0.001 C 
HETATM    3  C10 UNL     1      22.894   4.539  51.049  1.00  0.00     0.011 C 
HETATM    4  C11 UNL     1      23.656   5.569  51.393  1.00  0.00     0.017 C 
HETATM    5  C12 UNL     1      24.653   6.140  50.463  1.00  0.00     0.249 C 
HETATM    6  F1  UNL     1      25.808   5.381  50.414  1.00  0.00    -0.238 F 
HETATM    7  C13 UNL     1      24.101   6.430  49.124  1.00  0.00     0.078 C 
HETATM    8  C14 UNL     1      23.504   5.511  48.386  1.00  0.00     0.023 C 
HETATM    9  C15 UNL     1      23.181   4.083  48.520  1.00  0.00     0.088 C 
HETATM   10  C16 UNL     1      22.190   3.631  47.517  1.00  0.00     0.104 C 
HETATM   11  N2  UNL     1      21.468   2.567  47.400  1.00  0.00    -0.257 NA
HETATM   12  C17 UNL     1      21.473   1.463  48.330  1.00  0.00     0.234 C 
HETATM   13  N3  UNL     1      21.764   1.471  49.608  1.00  0.00    -0.224 NA
ENDROOT
BRANCH   1  14
HETATM   14  N1  UNL     1      21.811   2.477  51.744  1.00  0.00    -0.336 N 
HETATM   15  C7  UNL     1      20.818   3.242  52.522  1.00  0.00     0.158 C 
BRANCH  14  16
HETATM   16  C6  UNL     1      22.534   1.459  52.477  1.00  0.00     0.036 A 
HETATM   17  C5  UNL     1      23.916   1.434  52.525  1.00  0.00     0.029 A 
HETATM   18  C4  UNL     1      24.631   0.478  53.213  1.00  0.00     0.003 A 
HETATM   19  C3  UNL     1      23.945  -0.508  53.892  1.00  0.00     0.007 A 
HETATM   20  C2  UNL     1      22.565  -0.524  53.873  1.00  0.00    -0.060 A 
HETATM   21  C1  UNL     1      21.860  -1.600  54.616  1.00  0.00     0.048 C 
HETATM   22  C18 UNL     1      21.892   0.455  53.171  1.00  0.00     0.036 A 
ENDBRANCH  14  16
ENDBRANCH   1  14
BRANCH   7  23
HETATM   23  O1  UNL     1      24.202   7.714  48.601  1.00  0.00    -0.362 OA
HETATM   24  H13 UNL     1      24.919   8.375  48.844  1.00  0.00     0.217 HD
ENDBRANCH   7  23
TORSDOF 3
ENDMDL
MODEL 9
REMARK VINA RESULT:      -7.1      1.316      1.670
REMARK  3 active torsions:
REMARK  status: ('A' for Active; 'I' for Inactive)
REMARK    1  A    between atoms: C6_6  and  N1_7 
REMARK    2  A    between atoms: N1_7  and  C8_9 
REMARK    3  A    between atoms: C13_15  and  O1_16 
ROOT
HETATM    1  C8  UNL     1      24.322   3.225  50.856  1.00  0.00     0.138 C 
HETATM    2  C9  UNL     1      24.098   2.180  51.622  1.00  0.00     0.001 C 
HETATM    3  C10 UNL     1      22.700   2.416  52.020  1.00  0.00     0.011 C 
HETATM    4  C11 UNL     1      21.707   1.674  52.493  1.00  0.00     0.017 C 
HETATM    5  C12 UNL     1      21.873   0.227  52.744  1.00  0.00     0.249 C 
HETATM    6  F1  UNL     1      21.789  -0.513  51.579  1.00  0.00    -0.238 F 
HETATM    7  C13 UNL     1      23.077  -0.092  53.540  1.00  0.00     0.078 C 
HETATM    8  C14 UNL     1      24.290   0.284  53.176  1.00  0.00     0.023 C 
HETATM    9  C15 UNL     1      24.882   1.030  52.055  1.00  0.00     0.088 C 
HETATM   10  C16 UNL     1      26.274   1.453  52.331  1.00  0.00     0.104 C 
HETATM   11  N2  UNL     1      27.077   2.288  51.761  1.00  0.00    -0.257 NA
HETATM   12  C17 UNL     1      26.751   3.078  50.597  1.00  0.00     0.234 C 
HETATM   13  N3  UNL     1      25.576   3.491  50.191  1.00  0.00    -0.224 NA
ENDROOT
BRANCH   1  14
HETATM   14  N1  UNL     1      23.370   4.247  50.569  1.00  0.00    -0.336 N 
HETATM   15  C7  UNL     1      22.778   5.218  51.507  1.00  0.00     0.158 C 
BRANCH  14  16
HETATM   16  C6  UNL     1      22.913   4.338  49.199  1.00  0.00     0.036 A 
HETATM   17  C5  UNL     1      22.329   3.265  48.549  1.00  0.00     0.029 A 
HETATM   18  C4  UNL     1      21.884   3.321  47.246  1.00  0.00     0.003 A 
HETATM   19  C3  UNL     1      22.022   4.501  46.545  1.00  0.00     0.007 A 
HETATM   20  C2  UNL     1      22.598   5.599  47.151  1.00  0.00    -0.060 A 
HETATM   21  C1  UNL     1      22.730   6.853  46.364  1.00  0.00     0.048 C 
HETATM   22  C18 UNL     1      23.028   5.495  48.458  1.00  0.00     0.036 A 
ENDBRANCH  14  16
ENDBRANCH   1  14
BRANCH   7  23
HETATM   23  O1  UNL     1      22.950  -0.813  54.720  1.00  0.00    -0.362 OA
HETATM   24  H13 UNL     1      22.289  -1.557  54.869  1.00  0.00     0.217 HD
ENDBRANCH   7  23
TORSDOF 3
ENDMDL
