MODEL 1
REMARK VINA RESULT:      -7.6      0.000      0.000
REMARK  4 active torsions:
REMARK  status: ('A' for Active; 'I' for Inactive)
REMARK    1  A    between atoms: C5_5  and  S1_6 
REMARK    2  A    between atoms: S1_6  and  N1_9 
REMARK       I    between atoms: N1_9  and  C6_10 
REMARK    3  A    between atoms: C6_10  and  C7_12 
REMARK    4  A    between atoms: C7_12  and  C8_13 
ROOT
HETATM    1  N1  UNL     1      23.465   1.605  51.335  1.00  0.00    -0.250 N 
HETATM    2  C6  UNL     1      23.930   1.727  52.675  1.00  0.00     0.235 C 
HETATM    3  O3  UNL     1      24.048   2.941  53.055  1.00  0.00    -0.272 OA
HETATM    4  H6  UNL     1      23.321   0.659  50.889  1.00  0.00     0.181 HD
ENDROOT
BRANCH   1   5
HETATM    5  S1  UNL     1      23.147   3.077  50.469  1.00  0.00     0.261 S 
HETATM    6  O1  UNL     1      22.304   4.030  51.230  1.00  0.00    -0.200 OA
HETATM    7  O2  UNL     1      22.387   2.673  49.214  1.00  0.00    -0.200 OA
BRANCH   5   8
HETATM    8  C5  UNL     1      24.644   3.781  49.893  1.00  0.00     0.061 A 
HETATM    9  C4  UNL     1      25.725   2.988  49.945  1.00  0.00     0.021 A 
HETATM   10  C3  UNL     1      26.859   3.770  49.419  1.00  0.00     0.004 A 
HETATM   11  C2  UNL     1      26.442   4.976  49.074  1.00  0.00    -0.079 A 
HETATM   12  C1  UNL     1      27.191   6.128  48.498  1.00  0.00     0.044 C 
HETATM   13  C14 UNL     1      24.984   5.091  49.347  1.00  0.00     0.086 A 
ENDBRANCH   5   8
ENDBRANCH   1   5
BRANCH   2  14
HETATM   14  C7  UNL     1      24.195   0.462  53.395  1.00  0.00     0.142 C 
BRANCH  14  15
HETATM   15  C8  UNL     1      25.624   0.160  53.559  1.00  0.00    -0.049 A 
HETATM   16  C9  UNL     1      26.463   0.677  54.550  1.00  0.00     0.009 A 
HETATM   17  C10 UNL     1      27.790   0.294  54.569  1.00  0.00     0.024 A 
HETATM   18  C11 UNL     1      28.369  -0.577  53.669  1.00  0.00     0.034 A 
HETATM   19 CL1  UNL     1      30.047  -1.008  53.760  1.00  0.00    -0.084 Cl
HETATM   20  C12 UNL     1      27.536  -1.086  52.686  1.00  0.00     0.024 A 
HETATM   21  C13 UNL     1      26.206  -0.719  52.648  1.00  0.00     0.009 A 
ENDBRANCH  14  15
ENDBRANCH   2  14
TORSDOF 4
ENDMDL
MODEL 2
REMARK VINA RESULT:      -7.4      3.206      6.851
REMARK  4 active torsions:
REMARK  status: ('A' for Active; 'I' for Inactive)
REMARK    1  A    between atoms: C5_5  and  S1_6 
REMARK    2  A    between atoms: S1_6  and  N1_9 
REMARK       I    between atoms: N1_9  and  C6_10 
REMARK    3  A    between atoms: C6_10  and  C7_12 
REMARK    4  A    between atoms: C7_12  and  C8_13 
ROOT
HETATM    1  N1  UNL     1      25.581   1.436  51.601  1.00  0.00    -0.250 N 
HETATM    2  C6  UNL     1      24.769   2.601  51.498  1.00  0.00     0.235 C 
HETATM    3  O3  UNL     1      24.434   3.080  52.634  1.00  0.00    -0.272 OA
HETATM    4  H6  UNL     1      25.932   0.935  50.740  1.00  0.00     0.181 HD
ENDROOT
BRANCH   1   5
HETATM    5  S1  UNL     1      25.968   0.879  53.200  1.00  0.00     0.261 S 
HETATM    6  O1  UNL     1      26.464   1.957  54.089  1.00  0.00    -0.200 OA
HETATM    7  O2  UNL     1      27.082  -0.145  53.033  1.00  0.00    -0.200 OA
BRANCH   5   8
HETATM    8  C5  UNL     1      24.621  -0.015  53.876  1.00  0.00     0.061 A 
HETATM    9  C4  UNL     1      24.887  -0.734  54.977  1.00  0.00     0.021 A 
HETATM   10  C3  UNL     1      23.631  -1.397  55.373  1.00  0.00     0.004 A 
HETATM   11  C2  UNL     1      22.672  -1.069  54.524  1.00  0.00    -0.079 A 
HETATM   12  C1  UNL     1      21.238  -1.471  54.486  1.00  0.00     0.044 C 
HETATM   13  C14 UNL     1      23.221  -0.153  53.488  1.00  0.00     0.086 A 
ENDBRANCH   5   8
ENDBRANCH   1   5
BRANCH   2  14
HETATM   14  C7  UNL     1      24.451   3.060  50.127  1.00  0.00     0.142 C 
BRANCH  14  15
HETATM   15  C8  UNL     1      25.437   3.999  49.573  1.00  0.00    -0.049 A 
HETATM   16  C9  UNL     1      26.781   3.718  49.311  1.00  0.00     0.009 A 
HETATM   17  C10 UNL     1      27.582   4.714  48.788  1.00  0.00     0.024 A 
HETATM   18  C11 UNL     1      27.155   5.994  48.495  1.00  0.00     0.034 A 
HETATM   19 CL1  UNL     1      28.227   7.189  47.839  1.00  0.00    -0.084 Cl
HETATM   20  C12 UNL     1      25.823   6.270  48.757  1.00  0.00     0.024 A 
HETATM   21  C13 UNL     1      25.003   5.290  49.279  1.00  0.00     0.009 A 
ENDBRANCH  14  15
ENDBRANCH   2  14
TORSDOF 4
ENDMDL
MODEL 3
REMARK VINA RESULT:      -7.4      3.868      6.912
REMARK  4 active torsions:
REMARK  status: ('A' for Active; 'I' for Inactive)
REMARK    1  A    between atoms: C5_5  and  S1_6 
REMARK    2  A    between atoms: S1_6  and  N1_9 
REMARK       I    between atoms: N1_9  and  C6_10 
REMARK    3  A    between atoms: C6_10  and  C7_12 
REMARK    4  A    between atoms: C7_12  and  C8_13 
ROOT
HETATM    1  N1  UNL     1      26.766   0.438  52.282  1.00  0.00    -0.250 N 
HETATM    2  C6  UNL     1      26.582   1.841  52.439  1.00  0.00     0.235 C 
HETATM    3  O3  UNL     1      26.259   2.174  53.629  1.00  0.00    -0.272 OA
HETATM    4  H6  UNL     1      27.035   0.021  51.350  1.00  0.00     0.181 HD
ENDROOT
BRANCH   1   5
HETATM    5  S1  UNL     1      26.528  -0.554  53.688  1.00  0.00     0.261 S 
HETATM    6  O1  UNL     1      27.370  -0.148  54.838  1.00  0.00    -0.200 OA
HETATM    7  O2  UNL     1      26.931  -1.965  53.283  1.00  0.00    -0.200 OA
BRANCH   5   8
HETATM    8  C5  UNL     1      24.823  -0.659  54.079  1.00  0.00     0.061 A 
HETATM    9  C4  UNL     1      24.524  -1.235  55.253  1.00  0.00     0.021 A 
HETATM   10  C3  UNL     1      23.054  -1.218  55.379  1.00  0.00     0.004 A 
HETATM   11  C2  UNL     1      22.525  -0.650  54.308  1.00  0.00    -0.079 A 
HETATM   12  C1  UNL     1      21.101  -0.396  53.955  1.00  0.00     0.044 C 
HETATM   13  C14 UNL     1      23.613  -0.241  53.378  1.00  0.00     0.086 A 
ENDBRANCH   5   8
ENDBRANCH   1   5
BRANCH   2  14
HETATM   14  C7  UNL     1      26.791   2.668  51.230  1.00  0.00     0.142 C 
BRANCH  14  15
HETATM   15  C8  UNL     1      25.543   3.089  50.577  1.00  0.00    -0.049 A 
HETATM   16  C9  UNL     1      24.285   2.508  50.760  1.00  0.00     0.009 A 
HETATM   17  C10 UNL     1      23.204   3.022  50.070  1.00  0.00     0.024 A 
HETATM   18  C11 UNL     1      23.265   4.087  49.195  1.00  0.00     0.034 A 
HETATM   19 CL1  UNL     1      21.859   4.672  48.365  1.00  0.00    -0.084 Cl
HETATM   20  C12 UNL     1      24.513   4.660  49.014  1.00  0.00     0.024 A 
HETATM   21  C13 UNL     1      25.607   4.165  49.694  1.00  0.00     0.009 A 
ENDBRANCH  14  15
ENDBRANCH   2  14
TORSDOF 4
ENDMDL
MODEL 4
REMARK VINA RESULT:      -7.4      3.310      6.768
REMARK  4 active torsions:
REMARK  status: ('A' for Active; 'I' for Inactive)
REMARK    1  A    between atoms: C5_5  and  S1_6 
REMARK    2  A    between atoms: S1_6  and  N1_9 
REMARK       I    between atoms: N1_9  and  C6_10 
REMARK    3  A    between atoms: C6_10  and  C7_12 
REMARK    4  A    between atoms: C7_12  and  C8_13 
ROOT
HETATM    1  N1  UNL     1      25.279   1.967  51.284  1.00  0.00    -0.250 N 
HETATM    2  C6  UNL     1      26.469   2.603  50.829  1.00  0.00     0.235 C 
HETATM    3  O3  UNL     1      27.358   2.710  51.741  1.00  0.00    -0.272 OA
HETATM    4  H6  UNL     1      24.459   1.812  50.636  1.00  0.00     0.181 HD
ENDROOT
BRANCH   1   5
HETATM    5  S1  UNL     1      25.235   1.461  52.944  1.00  0.00     0.261 S 
HETATM    6  O1  UNL     1      23.959   0.807  53.322  1.00  0.00    -0.200 OA
HETATM    7  O2  UNL     1      25.380   2.727  53.776  1.00  0.00    -0.200 OA
BRANCH   5   8
HETATM    8  C5  UNL     1      26.648   0.498  53.326  1.00  0.00     0.061 A 
HETATM    9  C4  UNL     1      27.305   0.836  54.446  1.00  0.00     0.021 A 
HETATM   10  C3  UNL     1      28.444  -0.091  54.574  1.00  0.00     0.004 A 
HETATM   11  C2  UNL     1      28.443  -0.936  53.557  1.00  0.00    -0.079 A 
HETATM   12  C1  UNL     1      29.373  -2.052  53.229  1.00  0.00     0.044 C 
HETATM   13  C14 UNL     1      27.291  -0.634  52.665  1.00  0.00     0.086 A 
ENDBRANCH   5   8
ENDBRANCH   1   5
BRANCH   2  14
HETATM   14  C7  UNL     1      26.487   3.026  49.412  1.00  0.00     0.142 C 
BRANCH  14  15
HETATM   15  C8  UNL     1      26.647   4.475  49.227  1.00  0.00    -0.049 A 
HETATM   16  C9  UNL     1      25.749   5.460  49.648  1.00  0.00     0.009 A 
HETATM   17  C10 UNL     1      26.045   6.786  49.398  1.00  0.00     0.024 A 
HETATM   18  C11 UNL     1      27.182   7.229  48.753  1.00  0.00     0.034 A 
HETATM   19 CL1  UNL     1      27.481   8.915  48.477  1.00  0.00    -0.084 Cl
HETATM   20  C12 UNL     1      28.070   6.250  48.335  1.00  0.00     0.024 A 
HETATM   21  C13 UNL     1      27.795   4.919  48.575  1.00  0.00     0.009 A 
ENDBRANCH  14  15
ENDBRANCH   2  14
TORSDOF 4
ENDMDL
MODEL 5
REMARK VINA RESULT:      -7.3      3.847      7.062
REMARK  4 active torsions:
REMARK  status: ('A' for Active; 'I' for Inactive)
REMARK    1  A    between atoms: C5_5  and  S1_6 
REMARK    2  A    between atoms: S1_6  and  N1_9 
REMARK       I    between atoms: N1_9  and  C6_10 
REMARK    3  A    between atoms: C6_10  and  C7_12 
REMARK    4  A    between atoms: C7_12  and  C8_13 
ROOT
HETATM    1  N1  UNL     1      25.278   2.081  51.183  1.00  0.00    -0.250 N 
HETATM    2  C6  UNL     1      26.484   2.677  50.719  1.00  0.00     0.235 C 
HETATM    3  O3  UNL     1      27.406   2.695  51.603  1.00  0.00    -0.272 OA
HETATM    4  H6  UNL     1      24.431   1.999  50.557  1.00  0.00     0.181 HD
ENDROOT
BRANCH   1   5
HETATM    5  S1  UNL     1      25.260   1.498  52.819  1.00  0.00     0.261 S 
HETATM    6  O1  UNL     1      25.635   2.534  53.812  1.00  0.00    -0.200 OA
HETATM    7  O2  UNL     1      26.298   0.387  52.883  1.00  0.00    -0.200 OA
BRANCH   5   8
HETATM    8  C5  UNL     1      23.731   0.718  53.173  1.00  0.00     0.061 A 
HETATM    9  C4  UNL     1      22.632   1.369  52.763  1.00  0.00     0.021 A 
HETATM   10  C3  UNL     1      21.473   0.546  53.157  1.00  0.00     0.004 A 
HETATM   11  C2  UNL     1      21.895  -0.544  53.775  1.00  0.00    -0.079 A 
HETATM   12  C1  UNL     1      21.128  -1.679  54.360  1.00  0.00     0.044 C 
HETATM   13  C14 UNL     1      23.381  -0.531  53.840  1.00  0.00     0.086 A 
ENDBRANCH   5   8
ENDBRANCH   1   5
BRANCH   2  14
HETATM   14  C7  UNL     1      26.479   3.167  49.322  1.00  0.00     0.142 C 
BRANCH  14  15
HETATM   15  C8  UNL     1      26.673   4.619  49.202  1.00  0.00    -0.049 A 
HETATM   16  C9  UNL     1      27.706   5.254  48.507  1.00  0.00     0.009 A 
HETATM   17  C10 UNL     1      27.749   6.634  48.488  1.00  0.00     0.024 A 
HETATM   18  C11 UNL     1      26.836   7.458  49.115  1.00  0.00     0.034 A 
HETATM   19 CL1  UNL     1      26.962   9.186  49.044  1.00  0.00    -0.084 Cl
HETATM   20  C12 UNL     1      25.814   6.826  49.805  1.00  0.00     0.024 A 
HETATM   21  C13 UNL     1      25.750   5.448  49.836  1.00  0.00     0.009 A 
ENDBRANCH  14  15
ENDBRANCH   2  14
TORSDOF 4
ENDMDL
MODEL 6
REMARK VINA RESULT:      -6.9      1.853      2.586
REMARK  4 active torsions:
REMARK  status: ('A' for Active; 'I' for Inactive)
REMARK    1  A    between atoms: C5_5  and  S1_6 
REMARK    2  A    between atoms: S1_6  and  N1_9 
REMARK       I    between atoms: N1_9  and  C6_10 
REMARK    3  A    between atoms: C6_10  and  C7_12 
REMARK    4  A    between atoms: C7_12  and  C8_13 
ROOT
HETATM    1  N1  UNL     1      24.800   4.128  51.268  1.00  0.00    -0.250 N 
HETATM    2  C6  UNL     1      23.820   3.161  51.629  1.00  0.00     0.235 C 
HETATM    3  O3  UNL     1      22.882   3.054  50.768  1.00  0.00    -0.272 OA
HETATM    4  H6  UNL     1      25.633   4.321  51.888  1.00  0.00     0.181 HD
ENDROOT
BRANCH   1   5
HETATM    5  S1  UNL     1      24.565   4.973  49.769  1.00  0.00     0.261 S 
HETATM    6  O1  UNL     1      23.589   6.084  49.872  1.00  0.00    -0.200 OA
HETATM    7  O2  UNL     1      24.012   3.949  48.789  1.00  0.00    -0.200 OA
BRANCH   5   8
HETATM    8  C5  UNL     1      26.108   5.464  49.097  1.00  0.00     0.061 A 
HETATM    9  C4  UNL     1      26.172   6.719  48.630  1.00  0.00     0.021 A 
HETATM   10  C3  UNL     1      27.541   6.919  48.118  1.00  0.00     0.004 A 
HETATM   11  C2  UNL     1      28.242   5.811  48.286  1.00  0.00    -0.079 A 
HETATM   12  C1  UNL     1      29.657   5.502  47.940  1.00  0.00     0.044 C 
HETATM   13  C14 UNL     1      27.385   4.778  48.930  1.00  0.00     0.086 A 
ENDBRANCH   5   8
ENDBRANCH   1   5
BRANCH   2  14
HETATM   14  C7  UNL     1      24.039   2.452  52.909  1.00  0.00     0.142 C 
BRANCH  14  15
HETATM   15  C8  UNL     1      24.920   1.281  52.795  1.00  0.00    -0.049 A 
HETATM   16  C9  UNL     1      25.969   1.129  51.883  1.00  0.00     0.009 A 
HETATM   17  C10 UNL     1      26.708  -0.037  51.903  1.00  0.00     0.024 A 
HETATM   18  C11 UNL     1      26.493  -1.090  52.769  1.00  0.00     0.034 A 
HETATM   19 CL1  UNL     1      27.467  -2.523  52.729  1.00  0.00    -0.084 Cl
HETATM   20  C12 UNL     1      25.452  -0.937  53.671  1.00  0.00     0.024 A 
HETATM   21  C13 UNL     1      24.700   0.219  53.670  1.00  0.00     0.009 A 
ENDBRANCH  14  15
ENDBRANCH   2  14
TORSDOF 4
ENDMDL
MODEL 7
REMARK VINA RESULT:      -6.7      3.299      6.789
REMARK  4 active torsions:
REMARK  status: ('A' for Active; 'I' for Inactive)
REMARK    1  A    between atoms: C5_5  and  S1_6 
REMARK    2  A    between atoms: S1_6  and  N1_9 
REMARK       I    between atoms: N1_9  and  C6_10 
REMARK    3  A    between atoms: C6_10  and  C7_12 
REMARK    4  A    between atoms: C7_12  and  C8_13 
ROOT
HETATM    1  N1  UNL     1      25.062   1.742  51.257  1.00  0.00    -0.250 N 
HETATM    2  C6  UNL     1      26.176   2.547  50.885  1.00  0.00     0.235 C 
HETATM    3  O3  UNL     1      27.004   2.727  51.841  1.00  0.00    -0.272 OA
HETATM    4  H6  UNL     1      24.298   1.511  50.565  1.00  0.00     0.181 HD
ENDROOT
BRANCH   1   5
HETATM    5  S1  UNL     1      25.015   1.160  52.892  1.00  0.00     0.261 S 
HETATM    6  O1  UNL     1      23.763   0.436  53.219  1.00  0.00    -0.200 OA
HETATM    7  O2  UNL     1      25.092   2.392  53.782  1.00  0.00    -0.200 OA
BRANCH   5   8
HETATM    8  C5  UNL     1      26.463   0.242  53.255  1.00  0.00     0.061 A 
HETATM    9  C4  UNL     1      27.217   0.707  54.262  1.00  0.00     0.021 A 
HETATM   10  C3  UNL     1      28.369  -0.203  54.394  1.00  0.00     0.004 A 
HETATM   11  C2  UNL     1      28.281  -1.163  53.489  1.00  0.00    -0.079 A 
HETATM   12  C1  UNL     1      29.184  -2.314  53.211  1.00  0.00     0.044 C 
HETATM   13  C14 UNL     1      27.050  -0.962  52.676  1.00  0.00     0.086 A 
ENDBRANCH   5   8
ENDBRANCH   1   5
BRANCH   2  14
HETATM   14  C7  UNL     1      26.197   3.032  49.487  1.00  0.00     0.142 C 
BRANCH  14  15
HETATM   15  C8  UNL     1      26.254   4.496  49.368  1.00  0.00    -0.049 A 
HETATM   16  C9  UNL     1      27.218   5.225  48.667  1.00  0.00     0.009 A 
HETATM   17  C10 UNL     1      27.132   6.604  48.651  1.00  0.00     0.024 A 
HETATM   18  C11 UNL     1      26.150   7.338  49.284  1.00  0.00     0.034 A 
HETATM   19 CL1  UNL     1      26.113   9.070  49.216  1.00  0.00    -0.084 Cl
HETATM   20  C12 UNL     1      25.196   6.612  49.980  1.00  0.00     0.024 A 
HETATM   21  C13 UNL     1      25.261   5.234  50.009  1.00  0.00     0.009 A 
ENDBRANCH  14  15
ENDBRANCH   2  14
TORSDOF 4
ENDMDL
MODEL 8
REMARK VINA RESULT:      -6.6      2.609      6.182
REMARK  4 active torsions:
REMARK  status: ('A' for Active; 'I' for Inactive)
REMARK    1  A    between atoms: C5_5  and  S1_6 
REMARK    2  A    between atoms: S1_6  and  N1_9 
REMARK       I    between atoms: N1_9  and  C6_10 
REMARK    3  A    between atoms: C6_10  and  C7_12 
REMARK    4  A    between atoms: C7_12  and  C8_13 
ROOT
HETATM    1  N1  UNL     1      23.471   3.495  51.491  1.00  0.00    -0.250 N 
HETATM    2  C6  UNL     1      24.058   3.873  50.250  1.00  0.00     0.235 C 
HETATM    3  O3  UNL     1      24.155   2.902  49.426  1.00  0.00    -0.272 OA
HETATM    4  H6  UNL     1      23.329   4.198  52.267  1.00  0.00     0.181 HD
ENDROOT
BRANCH   1   5
HETATM    5  S1  UNL     1      23.002   1.832  51.672  1.00  0.00     0.261 S 
HETATM    6  O1  UNL     1      22.412   1.255  50.440  1.00  0.00    -0.200 OA
HETATM    7  O2  UNL     1      21.939   1.809  52.760  1.00  0.00    -0.200 OA
BRANCH   5   8
HETATM    8  C5  UNL     1      24.334   0.889  52.312  1.00  0.00     0.061 A 
HETATM    9  C4  UNL     1      24.025   0.026  53.291  1.00  0.00     0.021 A 
HETATM   10  C3  UNL     1      25.276  -0.653  53.677  1.00  0.00     0.004 A 
HETATM   11  C2  UNL     1      26.274  -0.193  52.941  1.00  0.00    -0.079 A 
HETATM   12  C1  UNL     1      27.719  -0.553  52.943  1.00  0.00     0.044 C 
HETATM   13  C14 UNL     1      25.758   0.837  51.999  1.00  0.00     0.086 A 
ENDBRANCH   5   8
ENDBRANCH   1   5
BRANCH   2  14
HETATM   14  C7  UNL     1      24.449   5.294  50.116  1.00  0.00     0.142 C 
BRANCH  14  15
HETATM   15  C8  UNL     1      25.758   5.491  49.477  1.00  0.00    -0.049 A 
HETATM   16  C9  UNL     1      26.698   4.492  49.208  1.00  0.00     0.009 A 
HETATM   17  C10 UNL     1      27.887   4.840  48.599  1.00  0.00     0.024 A 
HETATM   18  C11 UNL     1      28.233   6.123  48.224  1.00  0.00     0.034 A 
HETATM   19 CL1  UNL     1      29.750   6.477  47.463  1.00  0.00    -0.084 Cl
HETATM   20  C12 UNL     1      27.300   7.111  48.493  1.00  0.00     0.024 A 
HETATM   21  C13 UNL     1      26.104   6.787  49.100  1.00  0.00     0.009 A 
ENDBRANCH  14  15
ENDBRANCH   2  14
TORSDOF 4
ENDMDL
MODEL 9
REMARK VINA RESULT:      -6.6      2.058      2.548
REMARK  4 active torsions:
REMARK  status: ('A' for Active; 'I' for Inactive)
REMARK    1  A    between atoms: C5_5  and  S1_6 
REMARK    2  A    between atoms: S1_6  and  N1_9 
REMARK       I    between atoms: N1_9  and  C6_10 
REMARK    3  A    between atoms: C6_10  and  C7_12 
REMARK    4  A    between atoms: C7_12  and  C8_13 
ROOT
HETATM    1  N1  UNL     1      22.428   1.978  52.709  1.00  0.00    -0.250 N 
HETATM    2  C6  UNL     1      23.805   1.678  52.913  1.00  0.00     0.235 C 
HETATM    3  O3  UNL     1      24.575   2.663  52.652  1.00  0.00    -0.272 OA
HETATM    4  H6  UNL     1      21.678   1.256  52.886  1.00  0.00     0.181 HD
ENDROOT
BRANCH   1   5
HETATM    5  S1  UNL     1      22.039   3.579  52.160  1.00  0.00     0.261 S 
HETATM    6  O1  UNL     1      22.742   4.643  52.916  1.00  0.00    -0.200 OA
HETATM    7  O2  UNL     1      20.543   3.751  52.384  1.00  0.00    -0.200 OA
BRANCH   5   8
HETATM    8  C5  UNL     1      22.259   3.698  50.425  1.00  0.00     0.061 A 
HETATM    9  C4  UNL     1      23.221   4.536  50.012  1.00  0.00     0.021 A 
HETATM   10  C3  UNL     1      23.235   4.483  48.538  1.00  0.00     0.004 A 
HETATM   11  C2  UNL     1      22.307   3.639  48.118  1.00  0.00    -0.079 A 
HETATM   12  C1  UNL     1      21.923   3.238  46.736  1.00  0.00     0.044 C 
HETATM   13  C14 UNL     1      21.598   3.061  49.291  1.00  0.00     0.086 A 
ENDBRANCH   5   8
ENDBRANCH   1   5
BRANCH   2  14
HETATM   14  C7  UNL     1      24.115   0.309  53.382  1.00  0.00     0.142 C 
BRANCH  14  15
HETATM   15  C8  UNL     1      25.552   0.056  53.562  1.00  0.00    -0.049 A 
HETATM   16  C9  UNL     1      26.341   0.520  54.618  1.00  0.00     0.009 A 
HETATM   17  C10 UNL     1      27.683   0.194  54.644  1.00  0.00     0.024 A 
HETATM   18  C11 UNL     1      28.324  -0.571  53.691  1.00  0.00     0.034 A 
HETATM   19 CL1  UNL     1      30.016  -0.936  53.796  1.00  0.00    -0.084 Cl
HETATM   20  C12 UNL     1      27.540  -1.028  52.644  1.00  0.00     0.024 A 
HETATM   21  C13 UNL     1      26.197  -0.716  52.598  1.00  0.00     0.009 A 
ENDBRANCH  14  15
ENDBRANCH   2  14
TORSDOF 4
ENDMDL
