MODEL 1
REMARK VINA RESULT:      -9.5      0.000      0.000
REMARK  6 active torsions:
REMARK  status: ('A' for Active; 'I' for Inactive)
REMARK    1  A    between atoms: C7_7  and  N1_8 
REMARK    2  A    between atoms: N1_8  and  C8_9 
REMARK    3  A    between atoms: C10_13  and  N4_14 
REMARK    4  A    between atoms: C11_15  and  C12_16 
REMARK    5  A    between atoms: C13_17  and  C14_18 
REMARK    6  A    between atoms: C14_18  and  C15_19 
ROOT
HETATM    1  C1  UNL     1      20.022   0.940  51.387  1.00  0.00     0.018 C 
HETATM    2  C2  UNL     1      20.867   0.488  52.124  1.00  0.00    -0.078 C 
HETATM    3  C3  UNL     1      21.860  -0.040  53.013  1.00  0.00     0.019 A 
HETATM    4  C4  UNL     1      21.469  -0.447  54.269  1.00  0.00     0.021 A 
HETATM    5  C5  UNL     1      22.405  -0.958  55.139  1.00  0.00     0.004 A 
HETATM    6  C6  UNL     1      23.711  -1.046  54.725  1.00  0.00     0.029 A 
HETATM    7  C7  UNL     1      24.187  -0.664  53.494  1.00  0.00     0.035 A 
HETATM    8  C21 UNL     1      23.191  -0.165  52.684  1.00  0.00     0.050 A 
ENDROOT
BRANCH   7   9
HETATM    9  N1  UNL     1      25.547  -0.781  53.123  1.00  0.00    -0.340 N 
HETATM   10  H5  UNL     1      25.693  -1.519  52.410  1.00  0.00     0.167 HD
BRANCH   9  11
HETATM   11  C8  UNL     1      26.669  -0.053  53.584  1.00  0.00     0.143 A 
HETATM   12  N2  UNL     1      27.404  -0.418  54.641  1.00  0.00    -0.223 NA
HETATM   13  C9  UNL     1      28.459   0.211  55.124  1.00  0.00     0.237 A 
HETATM   14  N3  UNL     1      28.866   1.346  54.508  1.00  0.00    -0.224 NA
HETATM   15  C10 UNL     1      28.164   1.781  53.420  1.00  0.00     0.136 A 
HETATM   16  C11 UNL     1      27.071   1.081  52.965  1.00  0.00     0.055 A 
BRANCH  15  17
HETATM   17  N4  UNL     1      28.740   2.961  52.932  1.00  0.00    -0.383 N 
HETATM   18  H7  UNL     1      29.730   3.288  53.013  1.00  0.00     0.157 HD
HETATM   19  H8  UNL     1      28.159   3.669  52.396  1.00  0.00     0.157 HD
ENDBRANCH  15  17
BRANCH  16  20
HETATM   20  C12 UNL     1      26.422   1.649  51.813  1.00  0.00     0.015 C 
HETATM   21  C13 UNL     1      25.461   2.534  51.595  1.00  0.00    -0.021 C 
BRANCH  21  22
HETATM   22  C14 UNL     1      24.843   3.071  50.376  1.00  0.00     0.067 C 
BRANCH  22  23
HETATM   23  C15 UNL     1      25.674   4.098  49.734  1.00  0.00    -0.033 A 
HETATM   24  C16 UNL     1      26.944   3.867  49.248  1.00  0.00     0.011 A 
HETATM   25  C17 UNL     1      27.744   4.829  48.637  1.00  0.00     0.024 A 
HETATM   26  C18 UNL     1      27.245   6.103  48.502  1.00  0.00     0.035 A 
HETATM   27 CL1  UNL     1      28.225   7.322  47.743  1.00  0.00    -0.084 Cl
HETATM   28  C19 UNL     1      25.975   6.369  48.977  1.00  0.00     0.048 A 
HETATM   29  C20 UNL     1      25.211   5.406  49.574  1.00  0.00     0.042 A 
HETATM   30 CL2  UNL     1      23.600   5.827  50.155  1.00  0.00    -0.084 Cl
ENDBRANCH  22  23
ENDBRANCH  21  22
ENDBRANCH  16  20
ENDBRANCH   9  11
ENDBRANCH   7   9
TORSDOF 6
ENDMDL
MODEL 2
REMARK VINA RESULT:      -9.4      2.711      6.535
REMARK  6 active torsions:
REMARK  status: ('A' for Active; 'I' for Inactive)
REMARK    1  A    between atoms: C7_7  and  N1_8 
REMARK    2  A    between atoms: N1_8  and  C8_9 
REMARK    3  A    between atoms: C10_13  and  N4_14 
REMARK    4  A    between atoms: C11_15  and  C12_16 
REMARK    5  A    between atoms: C13_17  and  C14_18 
REMARK    6  A    between atoms: C14_18  and  C15_19 
ROOT
HETATM    1  C1  UNL     1      28.315   6.679  47.884  1.00  0.00     0.018 C 
HETATM    2  C2  UNL     1      27.493   5.957  48.398  1.00  0.00    -0.078 C 
HETATM    3  C3  UNL     1      26.508   5.116  49.012  1.00  0.00     0.019 A 
HETATM    4  C4  UNL     1      25.187   5.503  48.961  1.00  0.00     0.021 A 
HETATM    5  C5  UNL     1      24.224   4.711  49.543  1.00  0.00     0.004 A 
HETATM    6  C6  UNL     1      24.612   3.550  50.164  1.00  0.00     0.029 A 
HETATM    7  C7  UNL     1      25.903   3.089  50.262  1.00  0.00     0.035 A 
HETATM    8  C21 UNL     1      26.805   3.936  49.655  1.00  0.00     0.050 A 
ENDROOT
BRANCH   7   9
HETATM    9  N1  UNL     1      26.243   1.880  50.913  1.00  0.00    -0.340 N 
HETATM   10  H5  UNL     1      25.979   1.049  50.352  1.00  0.00     0.167 HD
BRANCH   9  11
HETATM   11  C8  UNL     1      26.863   1.680  52.169  1.00  0.00     0.143 A 
HETATM   12  N2  UNL     1      28.010   2.267  52.530  1.00  0.00    -0.223 NA
HETATM   13  C9  UNL     1      28.641   2.125  53.680  1.00  0.00     0.237 A 
HETATM   14  N3  UNL     1      28.098   1.308  54.614  1.00  0.00    -0.224 NA
HETATM   15  C10 UNL     1      26.925   0.673  54.316  1.00  0.00     0.136 A 
HETATM   16  C11 UNL     1      26.315   0.862  53.097  1.00  0.00     0.055 A 
BRANCH  15  17
HETATM   17  N4  UNL     1      26.532  -0.118  55.403  1.00  0.00    -0.383 N 
HETATM   18  H7  UNL     1      26.442  -1.159  55.456  1.00  0.00     0.157 HD
HETATM   19  H8  UNL     1      26.276   0.324  56.333  1.00  0.00     0.157 HD
ENDBRANCH  15  17
BRANCH  16  20
HETATM   20  C12 UNL     1      25.088   0.134  52.913  1.00  0.00     0.015 C 
HETATM   21  C13 UNL     1      23.794   0.394  53.029  1.00  0.00    -0.021 C 
BRANCH  21  22
HETATM   22  C14 UNL     1      22.582  -0.409  52.823  1.00  0.00     0.067 C 
BRANCH  22  23
HETATM   23  C15 UNL     1      21.638   0.231  51.897  1.00  0.00    -0.033 A 
HETATM   24  C16 UNL     1      22.020   0.956  50.787  1.00  0.00     0.011 A 
HETATM   25  C17 UNL     1      21.138   1.569  49.901  1.00  0.00     0.024 A 
HETATM   26  C18 UNL     1      19.788   1.451  50.137  1.00  0.00     0.035 A 
HETATM   27 CL1  UNL     1      18.667   2.207  49.044  1.00  0.00    -0.084 Cl
HETATM   28  C19 UNL     1      19.371   0.731  51.240  1.00  0.00     0.048 A 
HETATM   29  C20 UNL     1      20.259   0.140  52.095  1.00  0.00     0.042 A 
HETATM   30 CL2  UNL     1      19.644  -0.761  53.480  1.00  0.00    -0.084 Cl
ENDBRANCH  22  23
ENDBRANCH  21  22
ENDBRANCH  16  20
ENDBRANCH   9  11
ENDBRANCH   7   9
TORSDOF 6
ENDMDL
MODEL 3
REMARK VINA RESULT:      -9.3      2.227      3.449
REMARK  6 active torsions:
REMARK  status: ('A' for Active; 'I' for Inactive)
REMARK    1  A    between atoms: C7_7  and  N1_8 
REMARK    2  A    between atoms: N1_8  and  C8_9 
REMARK    3  A    between atoms: C10_13  and  N4_14 
REMARK    4  A    between atoms: C11_15  and  C12_16 
REMARK    5  A    between atoms: C13_17  and  C14_18 
REMARK    6  A    between atoms: C14_18  and  C15_19 
ROOT
HETATM    1  C1  UNL     1      20.075   0.253  51.303  1.00  0.00     0.018 C 
HETATM    2  C2  UNL     1      20.951  -0.048  52.080  1.00  0.00    -0.078 C 
HETATM    3  C3  UNL     1      21.981  -0.396  53.014  1.00  0.00     0.019 A 
HETATM    4  C4  UNL     1      21.623  -0.668  54.316  1.00  0.00     0.021 A 
HETATM    5  C5  UNL     1      22.595  -1.005  55.230  1.00  0.00     0.004 A 
HETATM    6  C6  UNL     1      23.902  -1.059  54.814  1.00  0.00     0.029 A 
HETATM    7  C7  UNL     1      24.346  -0.803  53.539  1.00  0.00     0.035 A 
HETATM    8  C21 UNL     1      23.315  -0.475  52.686  1.00  0.00     0.050 A 
ENDROOT
BRANCH   7   9
HETATM    9  N1  UNL     1      25.709  -0.878  53.167  1.00  0.00    -0.340 N 
HETATM   10  H5  UNL     1      25.878  -1.612  52.455  1.00  0.00     0.167 HD
BRANCH   9  11
HETATM   11  C8  UNL     1      26.808  -0.115  53.628  1.00  0.00     0.143 A 
HETATM   12  N2  UNL     1      27.582  -0.479  54.657  1.00  0.00    -0.223 NA
HETATM   13  C9  UNL     1      28.618   0.182  55.137  1.00  0.00     0.237 A 
HETATM   14  N3  UNL     1      28.961   1.352  54.550  1.00  0.00    -0.224 NA
HETATM   15  C10 UNL     1      28.216   1.789  53.491  1.00  0.00     0.136 A 
HETATM   16  C11 UNL     1      27.145   1.054  53.037  1.00  0.00     0.055 A 
BRANCH  15  17
HETATM   17  N4  UNL     1      28.729   3.008  53.029  1.00  0.00    -0.383 N 
HETATM   18  H7  UNL     1      28.353   3.634  52.280  1.00  0.00     0.157 HD
HETATM   19  H8  UNL     1      29.614   3.419  53.445  1.00  0.00     0.157 HD
ENDBRANCH  15  17
BRANCH  16  20
HETATM   20  C12 UNL     1      26.447   1.627  51.917  1.00  0.00     0.015 C 
HETATM   21  C13 UNL     1      25.368   2.377  51.744  1.00  0.00    -0.021 C 
BRANCH  21  22
HETATM   22  C14 UNL     1      24.706   2.931  50.555  1.00  0.00     0.067 C 
BRANCH  22  23
HETATM   23  C15 UNL     1      23.279   3.191  50.781  1.00  0.00    -0.033 A 
HETATM   24  C16 UNL     1      22.731   3.453  52.020  1.00  0.00     0.011 A 
HETATM   25  C17 UNL     1      21.380   3.702  52.251  1.00  0.00     0.024 A 
HETATM   26  C18 UNL     1      20.521   3.690  51.177  1.00  0.00     0.035 A 
HETATM   27 CL1  UNL     1      18.831   3.998  51.439  1.00  0.00    -0.084 Cl
HETATM   28  C19 UNL     1      21.037   3.432  49.921  1.00  0.00     0.048 A 
HETATM   29  C20 UNL     1      22.367   3.190  49.723  1.00  0.00     0.042 A 
HETATM   30 CL2  UNL     1      22.946   2.868  48.088  1.00  0.00    -0.084 Cl
ENDBRANCH  22  23
ENDBRANCH  21  22
ENDBRANCH  16  20
ENDBRANCH   9  11
ENDBRANCH   7   9
TORSDOF 6
ENDMDL
MODEL 4
REMARK VINA RESULT:      -9.2      3.091      5.614
REMARK  6 active torsions:
REMARK  status: ('A' for Active; 'I' for Inactive)
REMARK    1  A    between atoms: C7_7  and  N1_8 
REMARK    2  A    between atoms: N1_8  and  C8_9 
REMARK    3  A    between atoms: C10_13  and  N4_14 
REMARK    4  A    between atoms: C11_15  and  C12_16 
REMARK    5  A    between atoms: C13_17  and  C14_18 
REMARK    6  A    between atoms: C14_18  and  C15_19 
ROOT
HETATM    1  C1  UNL     1      21.626   4.158  47.567  1.00  0.00     0.018 C 
HETATM    2  C2  UNL     1      22.223   3.984  48.604  1.00  0.00    -0.078 C 
HETATM    3  C3  UNL     1      22.926   3.792  49.839  1.00  0.00     0.019 A 
HETATM    4  C4  UNL     1      22.349   4.253  51.002  1.00  0.00     0.021 A 
HETATM    5  C5  UNL     1      23.004   4.080  52.199  1.00  0.00     0.004 A 
HETATM    6  C6  UNL     1      24.224   3.449  52.199  1.00  0.00     0.029 A 
HETATM    7  C7  UNL     1      24.870   2.961  51.089  1.00  0.00     0.035 A 
HETATM    8  C21 UNL     1      24.150   3.172  49.933  1.00  0.00     0.050 A 
ENDROOT
BRANCH   7   9
HETATM    9  N1  UNL     1      26.128   2.316  51.150  1.00  0.00    -0.340 N 
HETATM   10  H5  UNL     1      26.507   2.112  50.207  1.00  0.00     0.167 HD
BRANCH   9  11
HETATM   11  C8  UNL     1      26.887   1.933  52.281  1.00  0.00     0.143 A 
HETATM   12  N2  UNL     1      28.034   2.523  52.636  1.00  0.00    -0.223 NA
HETATM   13  C9  UNL     1      28.790   2.218  53.674  1.00  0.00     0.237 A 
HETATM   14  N3  UNL     1      28.392   1.209  54.483  1.00  0.00    -0.224 NA
HETATM   15  C10 UNL     1      27.228   0.559  54.184  1.00  0.00     0.136 A 
HETATM   16  C11 UNL     1      26.484   0.923  53.086  1.00  0.00     0.055 A 
BRANCH  15  17
HETATM   17  N4  UNL     1      26.994  -0.444  55.134  1.00  0.00    -0.383 N 
HETATM   18  H7  UNL     1      26.887  -0.351  56.170  1.00  0.00     0.157 HD
HETATM   19  H8  UNL     1      26.898  -1.459  54.841  1.00  0.00     0.157 HD
ENDBRANCH  15  17
BRANCH  16  20
HETATM   20  C12 UNL     1      25.283   0.157  52.885  1.00  0.00     0.015 C 
HETATM   21  C13 UNL     1      24.043   0.180  53.353  1.00  0.00    -0.021 C 
BRANCH  21  22
HETATM   22  C14 UNL     1      22.855  -0.646  53.099  1.00  0.00     0.067 C 
BRANCH  22  23
HETATM   23  C15 UNL     1      21.831   0.071  52.328  1.00  0.00    -0.033 A 
HETATM   24  C16 UNL     1      21.858   0.210  50.956  1.00  0.00     0.011 A 
HETATM   25  C17 UNL     1      20.895   0.886  50.210  1.00  0.00     0.024 A 
HETATM   26  C18 UNL     1      19.837   1.460  50.877  1.00  0.00     0.035 A 
HETATM   27 CL1  UNL     1      18.623   2.309  49.969  1.00  0.00    -0.084 Cl
HETATM   28  C19 UNL     1      19.779   1.339  52.252  1.00  0.00     0.048 A 
HETATM   29  C20 UNL     1      20.739   0.671  52.959  1.00  0.00     0.042 A 
HETATM   30 CL2  UNL     1      20.592   0.562  54.713  1.00  0.00    -0.084 Cl
ENDBRANCH  22  23
ENDBRANCH  21  22
ENDBRANCH  16  20
ENDBRANCH   9  11
ENDBRANCH   7   9
TORSDOF 6
ENDMDL
MODEL 5
REMARK VINA RESULT:      -9.1      2.708      5.564
REMARK  6 active torsions:
REMARK  status: ('A' for Active; 'I' for Inactive)
REMARK    1  A    between atoms: C7_7  and  N1_8 
REMARK    2  A    between atoms: N1_8  and  C8_9 
REMARK    3  A    between atoms: C10_13  and  N4_14 
REMARK    4  A    between atoms: C11_15  and  C12_16 
REMARK    5  A    between atoms: C13_17  and  C14_18 
REMARK    6  A    between atoms: C14_18  and  C15_19 
ROOT
HETATM    1  C1  UNL     1      21.937   5.542  51.565  1.00  0.00     0.018 C 
HETATM    2  C2  UNL     1      22.934   4.868  51.449  1.00  0.00    -0.078 C 
HETATM    3  C3  UNL     1      24.110   4.063  51.295  1.00  0.00     0.019 A 
HETATM    4  C4  UNL     1      24.661   3.937  50.038  1.00  0.00     0.021 A 
HETATM    5  C5  UNL     1      25.790   3.170  49.866  1.00  0.00     0.004 A 
HETATM    6  C6  UNL     1      26.338   2.548  50.961  1.00  0.00     0.029 A 
HETATM    7  C7  UNL     1      25.855   2.619  52.245  1.00  0.00     0.035 A 
HETATM    8  C21 UNL     1      24.727   3.404  52.334  1.00  0.00     0.050 A 
ENDROOT
BRANCH   7   9
HETATM    9  N1  UNL     1      26.465   1.956  53.336  1.00  0.00    -0.340 N 
HETATM   10  H5  UNL     1      26.149   2.337  54.248  1.00  0.00     0.167 HD
BRANCH   9  11
HETATM   11  C8  UNL     1      27.404   0.898  53.333  1.00  0.00     0.143 A 
HETATM   12  N2  UNL     1      28.723   1.078  53.473  1.00  0.00    -0.223 NA
HETATM   13  C9  UNL     1      29.651   0.141  53.478  1.00  0.00     0.237 A 
HETATM   14  N3  UNL     1      29.262  -1.148  53.331  1.00  0.00    -0.224 NA
HETATM   15  C10 UNL     1      27.930  -1.410  53.183  1.00  0.00     0.136 A 
HETATM   16  C11 UNL     1      27.009  -0.387  53.184  1.00  0.00     0.055 A 
BRANCH  15  17
HETATM   17  N4  UNL     1      27.736  -2.791  53.046  1.00  0.00    -0.383 N 
HETATM   18  H7  UNL     1      28.005  -3.413  52.249  1.00  0.00     0.157 HD
HETATM   19  H8  UNL     1      27.262  -3.352  53.811  1.00  0.00     0.157 HD
ENDBRANCH  15  17
BRANCH  16  20
HETATM   20  C12 UNL     1      25.642  -0.801  53.019  1.00  0.00     0.015 C 
HETATM   21  C13 UNL     1      24.464  -0.429  53.500  1.00  0.00    -0.021 C 
BRANCH  21  22
HETATM   22  C14 UNL     1      23.092  -0.905  53.283  1.00  0.00     0.067 C 
BRANCH  22  23
HETATM   23  C15 UNL     1      22.253   0.097  52.612  1.00  0.00    -0.033 A 
HETATM   24  C16 UNL     1      22.422   0.487  51.300  1.00  0.00     0.011 A 
HETATM   25  C17 UNL     1      21.635   1.435  50.649  1.00  0.00     0.024 A 
HETATM   26  C18 UNL     1      20.615   2.031  51.353  1.00  0.00     0.035 A 
HETATM   27 CL1  UNL     1      19.619   3.216  50.562  1.00  0.00    -0.084 Cl
HETATM   28  C19 UNL     1      20.417   1.662  52.670  1.00  0.00     0.048 A 
HETATM   29  C20 UNL     1      21.205   0.730  53.284  1.00  0.00     0.042 A 
HETATM   30 CL2  UNL     1      20.887   0.315  54.969  1.00  0.00    -0.084 Cl
ENDBRANCH  22  23
ENDBRANCH  21  22
ENDBRANCH  16  20
ENDBRANCH   9  11
ENDBRANCH   7   9
TORSDOF 6
ENDMDL
MODEL 6
REMARK VINA RESULT:      -8.8      1.550      2.558
REMARK  6 active torsions:
REMARK  status: ('A' for Active; 'I' for Inactive)
REMARK    1  A    between atoms: C7_7  and  N1_8 
REMARK    2  A    between atoms: N1_8  and  C8_9 
REMARK    3  A    between atoms: C10_13  and  N4_14 
REMARK    4  A    between atoms: C11_15  and  C12_16 
REMARK    5  A    between atoms: C13_17  and  C14_18 
REMARK    6  A    between atoms: C14_18  and  C15_19 
ROOT
HETATM    1  C1  UNL     1      19.794   2.596  51.754  1.00  0.00     0.018 C 
HETATM    2  C2  UNL     1      20.583   1.843  52.277  1.00  0.00    -0.078 C 
HETATM    3  C3  UNL     1      21.509   0.953  52.913  1.00  0.00     0.019 A 
HETATM    4  C4  UNL     1      21.052   0.144  53.930  1.00  0.00     0.021 A 
HETATM    5  C5  UNL     1      21.923  -0.719  54.555  1.00  0.00     0.004 A 
HETATM    6  C6  UNL     1      23.233  -0.747  54.143  1.00  0.00     0.029 A 
HETATM    7  C7  UNL     1      23.771   0.023  53.140  1.00  0.00     0.035 A 
HETATM    8  C21 UNL     1      22.838   0.857  52.566  1.00  0.00     0.050 A 
ENDROOT
BRANCH   7   9
HETATM    9  N1  UNL     1      25.131  -0.052  52.757  1.00  0.00    -0.340 N 
HETATM   10  H5  UNL     1      25.245  -0.432  51.799  1.00  0.00     0.167 HD
BRANCH   9  11
HETATM   11  C8  UNL     1      26.291   0.307  53.484  1.00  0.00     0.143 A 
HETATM   12  N2  UNL     1      26.598  -0.200  54.683  1.00  0.00    -0.223 NA
HETATM   13  C9  UNL     1      27.658   0.089  55.415  1.00  0.00     0.237 A 
HETATM   14  N3  UNL     1      28.546   0.989  54.929  1.00  0.00    -0.224 NA
HETATM   15  C10 UNL     1      28.298   1.550  53.708  1.00  0.00     0.136 A 
HETATM   16  C11 UNL     1      27.174   1.207  52.994  1.00  0.00     0.055 A 
BRANCH  15  17
HETATM   17  N4  UNL     1      29.326   2.446  53.388  1.00  0.00    -0.383 N 
HETATM   18  H7  UNL     1      29.281   3.312  52.803  1.00  0.00     0.157 HD
HETATM   19  H8  UNL     1      30.312   2.296  53.751  1.00  0.00     0.157 HD
ENDBRANCH  15  17
BRANCH  16  20
HETATM   20  C12 UNL     1      27.034   1.872  51.726  1.00  0.00     0.015 C 
HETATM   21  C13 UNL     1      26.178   2.725  51.182  1.00  0.00    -0.021 C 
BRANCH  21  22
HETATM   22  C14 UNL     1      26.098   3.369  49.864  1.00  0.00     0.067 C 
BRANCH  22  23
HETATM   23  C15 UNL     1      24.718   3.710  49.492  1.00  0.00    -0.033 A 
HETATM   24  C16 UNL     1      23.646   2.855  49.643  1.00  0.00     0.011 A 
HETATM   25  C17 UNL     1      22.333   3.164  49.296  1.00  0.00     0.024 A 
HETATM   26  C18 UNL     1      22.073   4.405  48.764  1.00  0.00     0.035 A 
HETATM   27 CL1  UNL     1      20.443   4.814  48.323  1.00  0.00    -0.084 Cl
HETATM   28  C19 UNL     1      23.124   5.287  48.600  1.00  0.00     0.048 A 
HETATM   29  C20 UNL     1      24.404   4.958  48.948  1.00  0.00     0.042 A 
HETATM   30 CL2  UNL     1      25.690   6.140  48.707  1.00  0.00    -0.084 Cl
ENDBRANCH  22  23
ENDBRANCH  21  22
ENDBRANCH  16  20
ENDBRANCH   9  11
ENDBRANCH   7   9
TORSDOF 6
ENDMDL
MODEL 7
REMARK VINA RESULT:      -8.6      1.953      2.972
REMARK  6 active torsions:
REMARK  status: ('A' for Active; 'I' for Inactive)
REMARK    1  A    between atoms: C7_7  and  N1_8 
REMARK    2  A    between atoms: N1_8  and  C8_9 
REMARK    3  A    between atoms: C10_13  and  N4_14 
REMARK    4  A    between atoms: C11_15  and  C12_16 
REMARK    5  A    between atoms: C13_17  and  C14_18 
REMARK    6  A    between atoms: C14_18  and  C15_19 
ROOT
HETATM    1  C1  UNL     1      20.294   2.462  48.236  1.00  0.00     0.018 C 
HETATM    2  C2  UNL     1      20.977   2.512  49.232  1.00  0.00    -0.078 C 
HETATM    3  C3  UNL     1      21.789   2.588  50.411  1.00  0.00     0.019 A 
HETATM    4  C4  UNL     1      21.689   3.708  51.207  1.00  0.00     0.021 A 
HETATM    5  C5  UNL     1      22.458   3.804  52.344  1.00  0.00     0.004 A 
HETATM    6  C6  UNL     1      23.310   2.772  52.653  1.00  0.00     0.029 A 
HETATM    7  C7  UNL     1      23.472   1.623  51.918  1.00  0.00     0.035 A 
HETATM    8  C21 UNL     1      22.669   1.604  50.799  1.00  0.00     0.050 A 
ENDROOT
BRANCH   7   9
HETATM    9  N1  UNL     1      24.366   0.590  52.288  1.00  0.00    -0.340 N 
HETATM   10  H5  UNL     1      24.107  -0.319  51.862  1.00  0.00     0.167 HD
BRANCH   9  11
HETATM   11  C8  UNL     1      25.505   0.645  53.125  1.00  0.00     0.143 A 
HETATM   12  N2  UNL     1      25.534   0.152  54.368  1.00  0.00    -0.223 NA
HETATM   13  C9  UNL     1      26.558   0.170  55.200  1.00  0.00     0.237 A 
HETATM   14  N3  UNL     1      27.714   0.739  54.783  1.00  0.00    -0.224 NA
HETATM   15  C10 UNL     1      27.760   1.265  53.523  1.00  0.00     0.136 A 
HETATM   16  C11 UNL     1      26.657   1.216  52.702  1.00  0.00     0.055 A 
BRANCH  15  17
HETATM   17  N4  UNL     1      29.032   1.801  53.285  1.00  0.00    -0.383 N 
HETATM   18  H7  UNL     1      29.955   1.310  53.265  1.00  0.00     0.157 HD
HETATM   19  H8  UNL     1      29.158   2.836  53.090  1.00  0.00     0.157 HD
ENDBRANCH  15  17
BRANCH  16  20
HETATM   20  C12 UNL     1      26.840   1.806  51.403  1.00  0.00     0.015 C 
HETATM   21  C13 UNL     1      26.559   2.968  50.832  1.00  0.00    -0.021 C 
BRANCH  21  22
HETATM   22  C14 UNL     1      26.779   3.507  49.483  1.00  0.00     0.067 C 
BRANCH  22  23
HETATM   23  C15 UNL     1      26.026   4.746  49.247  1.00  0.00    -0.033 A 
HETATM   24  C16 UNL     1      24.696   4.912  49.572  1.00  0.00     0.011 A 
HETATM   25  C17 UNL     1      23.968   6.080  49.355  1.00  0.00     0.024 A 
HETATM   26  C18 UNL     1      24.610   7.151  48.776  1.00  0.00     0.035 A 
HETATM   27 CL1  UNL     1      23.723   8.619  48.495  1.00  0.00    -0.084 Cl
HETATM   28  C19 UNL     1      25.943   7.018  48.439  1.00  0.00     0.048 A 
HETATM   29  C20 UNL     1      26.633   5.860  48.662  1.00  0.00     0.042 A 
HETATM   30 CL2  UNL     1      28.333   5.772  48.202  1.00  0.00    -0.084 Cl
ENDBRANCH  22  23
ENDBRANCH  21  22
ENDBRANCH  16  20
ENDBRANCH   9  11
ENDBRANCH   7   9
TORSDOF 6
ENDMDL
MODEL 8
REMARK VINA RESULT:      -8.4      4.426      7.979
REMARK  6 active torsions:
REMARK  status: ('A' for Active; 'I' for Inactive)
REMARK    1  A    between atoms: C7_7  and  N1_8 
REMARK    2  A    between atoms: N1_8  and  C8_9 
REMARK    3  A    between atoms: C10_13  and  N4_14 
REMARK    4  A    between atoms: C11_15  and  C12_16 
REMARK    5  A    between atoms: C13_17  and  C14_18 
REMARK    6  A    between atoms: C14_18  and  C15_19 
ROOT
HETATM    1  C1  UNL     1      26.915   0.654  54.673  1.00  0.00     0.018 C 
HETATM    2  C2  UNL     1      26.356   1.333  53.844  1.00  0.00    -0.078 C 
HETATM    3  C3  UNL     1      25.710   2.143  52.853  1.00  0.00     0.019 A 
HETATM    4  C4  UNL     1      26.232   2.164  51.578  1.00  0.00     0.021 A 
HETATM    5  C5  UNL     1      25.628   2.933  50.610  1.00  0.00     0.004 A 
HETATM    6  C6  UNL     1      24.515   3.663  50.947  1.00  0.00     0.029 A 
HETATM    7  C7  UNL     1      23.930   3.701  52.190  1.00  0.00     0.035 A 
HETATM    8  C21 UNL     1      24.592   2.906  53.100  1.00  0.00     0.050 A 
ENDROOT
BRANCH   7   9
HETATM    9  N1  UNL     1      22.780   4.472  52.478  1.00  0.00    -0.340 N 
HETATM   10  H5  UNL     1      22.605   4.543  53.498  1.00  0.00     0.167 HD
BRANCH   9  11
HETATM   11  C8  UNL     1      21.888   5.120  51.591  1.00  0.00     0.143 A 
HETATM   12  N2  UNL     1      22.014   6.398  51.216  1.00  0.00    -0.223 NA
HETATM   13  C9  UNL     1      21.222   7.062  50.397  1.00  0.00     0.237 A 
HETATM   14  N3  UNL     1      20.161   6.412  49.863  1.00  0.00    -0.224 NA
HETATM   15  C10 UNL     1      19.967   5.102  50.200  1.00  0.00     0.136 A 
HETATM   16  C11 UNL     1      20.829   4.465  51.062  1.00  0.00     0.055 A 
BRANCH  15  17
HETATM   17  N4  UNL     1      18.826   4.615  49.548  1.00  0.00    -0.383 N 
HETATM   18  H7  UNL     1      18.591   3.629  49.291  1.00  0.00     0.157 HD
HETATM   19  H8  UNL     1      18.052   5.273  49.244  1.00  0.00     0.157 HD
ENDBRANCH  15  17
BRANCH  16  20
HETATM   20  C12 UNL     1      20.509   3.089  51.333  1.00  0.00     0.015 C 
HETATM   21  C13 UNL     1      20.665   1.929  50.712  1.00  0.00    -0.021 C 
BRANCH  21  22
HETATM   22  C14 UNL     1      20.307   0.546  51.054  1.00  0.00     0.067 C 
BRANCH  22  23
HETATM   23  C15 UNL     1      21.067   0.042  52.206  1.00  0.00    -0.033 A 
HETATM   24  C16 UNL     1      22.437   0.138  52.326  1.00  0.00     0.011 A 
HETATM   25  C17 UNL     1      23.172  -0.335  53.411  1.00  0.00     0.024 A 
HETATM   26  C18 UNL     1      22.494  -0.943  54.442  1.00  0.00     0.035 A 
HETATM   27 CL1  UNL     1      23.388  -1.542  55.808  1.00  0.00    -0.084 Cl
HETATM   28  C19 UNL     1      21.120  -1.056  54.355  1.00  0.00     0.048 A 
HETATM   29  C20 UNL     1      20.424  -0.583  53.277  1.00  0.00     0.042 A 
HETATM   30 CL2  UNL     1      18.670  -0.767  53.242  1.00  0.00    -0.084 Cl
ENDBRANCH  22  23
ENDBRANCH  21  22
ENDBRANCH  16  20
ENDBRANCH   9  11
ENDBRANCH   7   9
TORSDOF 6
ENDMDL
MODEL 9
REMARK VINA RESULT:      -8.3      2.988      5.510
REMARK  6 active torsions:
REMARK  status: ('A' for Active; 'I' for Inactive)
REMARK    1  A    between atoms: C7_7  and  N1_8 
REMARK    2  A    between atoms: N1_8  and  C8_9 
REMARK    3  A    between atoms: C10_13  and  N4_14 
REMARK    4  A    between atoms: C11_15  and  C12_16 
REMARK    5  A    between atoms: C13_17  and  C14_18 
REMARK    6  A    between atoms: C14_18  and  C15_19 
ROOT
HETATM    1  C1  UNL     1      29.830  -0.642  53.470  1.00  0.00     0.018 C 
HETATM    2  C2  UNL     1      28.675  -0.305  53.351  1.00  0.00    -0.078 C 
HETATM    3  C3  UNL     1      27.301   0.078  53.203  1.00  0.00     0.019 A 
HETATM    4  C4  UNL     1      26.326  -0.862  53.451  1.00  0.00     0.021 A 
HETATM    5  C5  UNL     1      25.001  -0.517  53.317  1.00  0.00     0.004 A 
HETATM    6  C6  UNL     1      24.688   0.765  52.935  1.00  0.00     0.029 A 
HETATM    7  C7  UNL     1      25.595   1.762  52.667  1.00  0.00     0.035 A 
HETATM    8  C21 UNL     1      26.896   1.338  52.825  1.00  0.00     0.050 A 
ENDROOT
BRANCH   7   9
HETATM    9  N1  UNL     1      25.212   3.068  52.279  1.00  0.00    -0.340 N 
HETATM   10  H5  UNL     1      25.881   3.785  52.617  1.00  0.00     0.167 HD
BRANCH   9  11
HETATM   11  C8  UNL     1      24.089   3.489  51.530  1.00  0.00     0.143 A 
HETATM   12  N2  UNL     1      22.842   3.512  52.015  1.00  0.00    -0.223 NA
HETATM   13  C9  UNL     1      21.753   3.891  51.374  1.00  0.00     0.237 A 
HETATM   14  N3  UNL     1      21.875   4.306  50.091  1.00  0.00    -0.224 NA
HETATM   15  C10 UNL     1      23.120   4.310  49.527  1.00  0.00     0.136 A 
HETATM   16  C11 UNL     1      24.218   3.902  50.248  1.00  0.00     0.055 A 
BRANCH  15  17
HETATM   17  N4  UNL     1      23.034   4.769  48.206  1.00  0.00    -0.383 N 
HETATM   18  H7  UNL     1      22.266   5.315  47.752  1.00  0.00     0.157 HD
HETATM   19  H8  UNL     1      23.813   4.577  47.512  1.00  0.00     0.157 HD
ENDBRANCH  15  17
BRANCH  16  20
HETATM   20  C12 UNL     1      25.466   3.954  49.535  1.00  0.00     0.015 C 
HETATM   21  C13 UNL     1      26.416   4.855  49.333  1.00  0.00    -0.021 C 
BRANCH  21  22
HETATM   22  C14 UNL     1      27.679   4.838  48.583  1.00  0.00     0.067 C 
BRANCH  22  23
HETATM   23  C15 UNL     1      28.124   6.186  48.207  1.00  0.00    -0.033 A 
HETATM   24  C16 UNL     1      27.299   7.291  48.184  1.00  0.00     0.011 A 
HETATM   25  C17 UNL     1      27.706   8.576  47.831  1.00  0.00     0.024 A 
HETATM   26  C18 UNL     1      29.021   8.770  47.479  1.00  0.00     0.035 A 
HETATM   27 CL1  UNL     1      29.554  10.363  47.034  1.00  0.00    -0.084 Cl
HETATM   28  C19 UNL     1      29.876   7.684  47.492  1.00  0.00     0.048 A 
HETATM   29  C20 UNL     1      29.450   6.434  47.842  1.00  0.00     0.042 A 
HETATM   30 CL2  UNL     1      30.604   5.100  47.833  1.00  0.00    -0.084 Cl
ENDBRANCH  22  23
ENDBRANCH  21  22
ENDBRANCH  16  20
ENDBRANCH   9  11
ENDBRANCH   7   9
TORSDOF 6
ENDMDL
