MODEL 1
REMARK VINA RESULT:      -8.3      0.000      0.000
REMARK  5 active torsions:
REMARK  status: ('A' for Active; 'I' for Inactive)
REMARK    1  A    between atoms: C5_5  and  O1_6 
REMARK    2  A    between atoms: C6_7  and  O2_8 
REMARK    3  A    between atoms: O2_8  and  C7_9 
REMARK    4  A    between atoms: C9_11  and  O3_12 
REMARK    5  A    between atoms: C13_17  and  O5_18 
ROOT
HETATM    1  C7  UNL     1      25.936  -0.309  53.679  1.00  0.00     0.148 C 
HETATM    2  C8  UNL     1      26.219  -1.520  53.050  1.00  0.00     0.234 C 
HETATM    3  C9  UNL     1      27.629  -2.010  52.903  1.00  0.00     0.052 C 
HETATM    4  C10 UNL     1      28.982  -1.887  53.120  1.00  0.00     0.031 C 
HETATM    5  C11 UNL     1      29.086  -0.673  53.889  1.00  0.00     0.197 C 
HETATM    6  O4  UNL     1      29.787   0.437  53.479  1.00  0.00    -0.385 OA
HETATM    7  C12 UNL     1      29.521   1.499  54.372  1.00  0.00     0.201 C 
HETATM    8  C13 UNL     1      28.376   2.389  54.000  1.00  0.00     0.165 C 
HETATM    9  C14 UNL     1      27.154   1.739  53.460  1.00  0.00     0.204 C 
HETATM   10  O6  UNL     1      26.447   0.937  54.373  1.00  0.00    -0.357 OA
ENDROOT
BRANCH   1  11
HETATM   11  O2  UNL     1      24.630   0.138  53.822  1.00  0.00    -0.344 OA
BRANCH  11  12
HETATM   12  C6  UNL     1      23.498  -0.610  53.453  1.00  0.00     0.209 A 
HETATM   13  C2  UNL     1      22.531   0.297  52.789  1.00  0.00    -0.049 A 
HETATM   14  C1  UNL     1      22.630   0.977  51.477  1.00  0.00     0.046 C 
HETATM   15  C3  UNL     1      21.475   0.446  53.573  1.00  0.00     0.008 A 
HETATM   16  C4  UNL     1      21.600  -0.312  54.802  1.00  0.00     0.035 A 
HETATM   17  C5  UNL     1      22.776  -0.917  54.718  1.00  0.00     0.076 A 
BRANCH  17  18
HETATM   18  O1  UNL     1      23.301  -1.765  55.711  1.00  0.00    -0.362 OA
HETATM   19  H6  UNL     1      22.731  -2.051  56.504  1.00  0.00     0.217 HD
ENDBRANCH  17  18
ENDBRANCH  11  12
ENDBRANCH   1  11
BRANCH   3  20
HETATM   20  O3  UNL     1      27.065  -3.099  52.192  1.00  0.00    -0.365 OA
HETATM   21  H9  UNL     1      27.543  -3.960  52.034  1.00  0.00     0.217 HD
ENDBRANCH   3  20
BRANCH   8  22
HETATM   22  O5  UNL     1      28.880   3.169  52.838  1.00  0.00    -0.391 OA
HETATM   23  H16 UNL     1      28.647   2.656  52.035  1.00  0.00     0.210 HD
ENDBRANCH   8  22
TORSDOF 5
ENDMDL
MODEL 2
REMARK VINA RESULT:      -7.9      1.652      5.852
REMARK  5 active torsions:
REMARK  status: ('A' for Active; 'I' for Inactive)
REMARK    1  A    between atoms: C5_5  and  O1_6 
REMARK    2  A    between atoms: C6_7  and  O2_8 
REMARK    3  A    between atoms: O2_8  and  C7_9 
REMARK    4  A    between atoms: C9_11  and  O3_12 
REMARK    5  A    between atoms: C13_17  and  O5_18 
ROOT
HETATM    1  C7  UNL     1      24.956  -0.084  53.981  1.00  0.00     0.148 C 
HETATM    2  C8  UNL     1      24.267  -0.906  54.872  1.00  0.00     0.234 C 
HETATM    3  C9  UNL     1      22.825  -1.256  54.652  1.00  0.00     0.052 C 
HETATM    4  C10 UNL     1      21.666  -1.207  53.912  1.00  0.00     0.031 C 
HETATM    5  C11 UNL     1      22.044  -0.432  52.756  1.00  0.00     0.197 C 
HETATM    6  O4  UNL     1      21.457   0.763  52.409  1.00  0.00    -0.385 OA
HETATM    7  C12 UNL     1      22.190   1.338  51.348  1.00  0.00     0.201 C 
HETATM    8  C13 UNL     1      23.285   2.276  51.749  1.00  0.00     0.165 C 
HETATM    9  C14 UNL     1      24.121   1.890  52.915  1.00  0.00     0.204 C 
HETATM   10  O6  UNL     1      24.936   0.761  52.723  1.00  0.00    -0.357 OA
ENDROOT
BRANCH   1  11
HETATM   11  O2  UNL     1      26.292   0.231  54.181  1.00  0.00    -0.344 OA
BRANCH  11  12
HETATM   12  C6  UNL     1      27.244   0.309  53.149  1.00  0.00     0.209 A 
HETATM   13  C2  UNL     1      27.986  -0.973  53.096  1.00  0.00    -0.049 A 
HETATM   14  C1  UNL     1      27.513  -2.316  52.688  1.00  0.00     0.046 C 
HETATM   15  C3  UNL     1      29.232  -0.765  53.491  1.00  0.00     0.008 A 
HETATM   16  C4  UNL     1      29.466   0.623  53.840  1.00  0.00     0.035 A 
HETATM   17  C5  UNL     1      28.307   1.231  53.638  1.00  0.00     0.076 A 
BRANCH  17  18
HETATM   18  O1  UNL     1      28.086   2.604  53.855  1.00  0.00    -0.362 OA
HETATM   19  H6  UNL     1      27.691   2.934  54.732  1.00  0.00     0.217 HD
ENDBRANCH  17  18
ENDBRANCH  11  12
ENDBRANCH   1  11
BRANCH   3  20
HETATM   20  O3  UNL     1      22.916  -1.952  55.884  1.00  0.00    -0.365 OA
HETATM   21  H9  UNL     1      22.123  -2.194  56.439  1.00  0.00     0.217 HD
ENDBRANCH   3  20
BRANCH   8  22
HETATM   22  O5  UNL     1      22.572   3.486  52.236  1.00  0.00    -0.391 OA
HETATM   23  H16 UNL     1      23.247   4.194  52.317  1.00  0.00     0.210 HD
ENDBRANCH   8  22
TORSDOF 5
ENDMDL
MODEL 3
REMARK VINA RESULT:      -7.9      1.146      2.025
REMARK  5 active torsions:
REMARK  status: ('A' for Active; 'I' for Inactive)
REMARK    1  A    between atoms: C5_5  and  O1_6 
REMARK    2  A    between atoms: C6_7  and  O2_8 
REMARK    3  A    between atoms: O2_8  and  C7_9 
REMARK    4  A    between atoms: C9_11  and  O3_12 
REMARK    5  A    between atoms: C13_17  and  O5_18 
ROOT
HETATM    1  C7  UNL     1      26.362  -0.802  53.069  1.00  0.00     0.148 C 
HETATM    2  C8  UNL     1      27.030  -1.985  52.755  1.00  0.00     0.234 C 
HETATM    3  C9  UNL     1      28.473  -2.183  53.113  1.00  0.00     0.052 C 
HETATM    4  C10 UNL     1      29.645  -1.759  53.698  1.00  0.00     0.031 C 
HETATM    5  C11 UNL     1      29.292  -0.479  54.258  1.00  0.00     0.197 C 
HETATM    6  O4  UNL     1      29.893   0.706  53.901  1.00  0.00    -0.385 OA
HETATM    7  C12 UNL     1      29.181   1.773  54.493  1.00  0.00     0.201 C 
HETATM    8  C13 UNL     1      28.085   2.363  53.661  1.00  0.00     0.165 C 
HETATM    9  C14 UNL     1      27.228   1.423  52.895  1.00  0.00     0.204 C 
HETATM   10  O6  UNL     1      26.408   0.587  53.673  1.00  0.00    -0.357 OA
ENDROOT
BRANCH   1  11
HETATM   11  O2  UNL     1      25.025  -0.625  52.745  1.00  0.00    -0.344 OA
BRANCH  11  12
HETATM   12  C6  UNL     1      24.162   0.255  53.422  1.00  0.00     0.209 A 
HETATM   13  C2  UNL     1      23.159  -0.548  54.162  1.00  0.00    -0.049 A 
HETATM   14  C1  UNL     1      23.343  -1.428  55.340  1.00  0.00     0.046 C 
HETATM   15  C3  UNL     1      21.972  -0.377  53.600  1.00  0.00     0.008 A 
HETATM   16  C4  UNL     1      22.034   0.524  52.466  1.00  0.00     0.035 A 
HETATM   17  C5  UNL     1      23.307   0.881  52.375  1.00  0.00     0.076 A 
BRANCH  17  18
HETATM   18  O1  UNL     1      23.814   1.759  51.399  1.00  0.00    -0.362 OA
HETATM   19  H6  UNL     1      23.280   2.573  51.106  1.00  0.00     0.217 HD
ENDBRANCH  17  18
ENDBRANCH  11  12
ENDBRANCH   1  11
BRANCH   3  20
HETATM   20  O3  UNL     1      28.357  -3.430  52.451  1.00  0.00    -0.365 OA
HETATM   21  H9  UNL     1      28.161  -3.521  51.477  1.00  0.00     0.217 HD
ENDBRANCH   3  20
BRANCH   8  22
HETATM   22  O5  UNL     1      28.799   3.110  52.591  1.00  0.00    -0.391 OA
HETATM   23  H16 UNL     1      28.149   3.737  52.207  1.00  0.00     0.210 HD
ENDBRANCH   8  22
TORSDOF 5
ENDMDL
MODEL 4
REMARK VINA RESULT:      -7.7      2.420      5.728
REMARK  5 active torsions:
REMARK  status: ('A' for Active; 'I' for Inactive)
REMARK    1  A    between atoms: C5_5  and  O1_6 
REMARK    2  A    between atoms: C6_7  and  O2_8 
REMARK    3  A    between atoms: O2_8  and  C7_9 
REMARK    4  A    between atoms: C9_11  and  O3_12 
REMARK    5  A    between atoms: C13_17  and  O5_18 
ROOT
HETATM    1  C7  UNL     1      25.893   0.590  51.993  1.00  0.00     0.148 C 
HETATM    2  C8  UNL     1      24.842   0.256  52.846  1.00  0.00     0.234 C 
HETATM    3  C9  UNL     1      23.463   0.806  52.635  1.00  0.00     0.052 C 
HETATM    4  C10 UNL     1      22.553   1.552  51.921  1.00  0.00     0.031 C 
HETATM    5  C11 UNL     1      23.326   2.040  50.807  1.00  0.00     0.197 C 
HETATM    6  O4  UNL     1      23.532   3.375  50.543  1.00  0.00    -0.385 OA
HETATM    7  C12 UNL     1      24.482   3.491  49.504  1.00  0.00     0.201 C 
HETATM    8  C13 UNL     1      25.909   3.610  49.939  1.00  0.00     0.165 C 
HETATM    9  C14 UNL     1      26.354   2.747  51.063  1.00  0.00     0.204 C 
HETATM   10  O6  UNL     1      26.382   1.368  50.789  1.00  0.00    -0.357 OA
ENDROOT
BRANCH   1  11
HETATM   11  O2  UNL     1      27.165   0.073  52.185  1.00  0.00    -0.344 OA
BRANCH  11  12
HETATM   12  C6  UNL     1      27.720  -0.202  53.448  1.00  0.00     0.209 A 
HETATM   13  C2  UNL     1      28.868   0.712  53.665  1.00  0.00    -0.049 A 
HETATM   14  C1  UNL     1      28.874   2.179  53.873  1.00  0.00     0.046 C 
HETATM   15  C3  UNL     1      29.988   0.006  53.648  1.00  0.00     0.008 A 
HETATM   16  C4  UNL     1      29.737  -1.405  53.430  1.00  0.00     0.035 A 
HETATM   17  C5  UNL     1      28.421  -1.509  53.315  1.00  0.00     0.076 A 
BRANCH  17  18
HETATM   18  O1  UNL     1      27.741  -2.721  53.093  1.00  0.00    -0.362 OA
HETATM   19  H6  UNL     1      26.809  -2.726  52.684  1.00  0.00     0.217 HD
ENDBRANCH  17  18
ENDBRANCH  11  12
ENDBRANCH   1  11
BRANCH   3  20
HETATM   20  O3  UNL     1      23.118   0.110  53.820  1.00  0.00    -0.365 OA
HETATM   21  H9  UNL     1      23.325   0.447  54.737  1.00  0.00     0.217 HD
ENDBRANCH   3  20
BRANCH   8  22
HETATM   22  O5  UNL     1      26.006   4.979  50.511  1.00  0.00    -0.391 OA
HETATM   23  H16 UNL     1      25.126   5.396  50.387  1.00  0.00     0.210 HD
ENDBRANCH   8  22
TORSDOF 5
ENDMDL
MODEL 5
REMARK VINA RESULT:      -7.2      2.151      3.742
REMARK  5 active torsions:
REMARK  status: ('A' for Active; 'I' for Inactive)
REMARK    1  A    between atoms: C5_5  and  O1_6 
REMARK    2  A    between atoms: C6_7  and  O2_8 
REMARK    3  A    between atoms: O2_8  and  C7_9 
REMARK    4  A    between atoms: C9_11  and  O3_12 
REMARK    5  A    between atoms: C13_17  and  O5_18 
ROOT
HETATM    1  C7  UNL     1      23.662   1.224  52.703  1.00  0.00     0.148 C 
HETATM    2  C8  UNL     1      23.822   2.521  52.217  1.00  0.00     0.234 C 
HETATM    3  C9  UNL     1      25.136   2.989  51.667  1.00  0.00     0.052 C 
HETATM    4  C10 UNL     1      26.448   2.770  51.313  1.00  0.00     0.031 C 
HETATM    5  C11 UNL     1      26.647   1.376  51.622  1.00  0.00     0.197 C 
HETATM    6  O4  UNL     1      27.574   0.916  52.529  1.00  0.00    -0.385 OA
HETATM    7  C12 UNL     1      27.369  -0.467  52.727  1.00  0.00     0.201 C 
HETATM    8  C13 UNL     1      26.452  -0.833  53.852  1.00  0.00     0.165 C 
HETATM    9  C14 UNL     1      25.225  -0.015  54.026  1.00  0.00     0.204 C 
HETATM   10  O6  UNL     1      24.274  -0.130  52.997  1.00  0.00    -0.357 OA
ENDROOT
BRANCH   1  11
HETATM   11  O2  UNL     1      22.443   0.790  53.202  1.00  0.00    -0.344 OA
BRANCH  11  12
HETATM   12  C6  UNL     1      21.725  -0.303  52.685  1.00  0.00     0.209 A 
HETATM   13  C2  UNL     1      20.819   0.192  51.620  1.00  0.00    -0.049 A 
HETATM   14  C1  UNL     1      21.150   0.733  50.281  1.00  0.00     0.046 C 
HETATM   15  C3  UNL     1      19.567   0.089  52.039  1.00  0.00     0.008 A 
HETATM   16  C4  UNL     1      19.486  -0.466  53.376  1.00  0.00     0.035 A 
HETATM   17  C5  UNL     1      20.742  -0.686  53.736  1.00  0.00     0.076 A 
BRANCH  17  18
HETATM   18  O1  UNL     1      21.125  -1.227  54.978  1.00  0.00    -0.362 OA
HETATM   19  H6  UNL     1      20.716  -0.882  55.843  1.00  0.00     0.217 HD
ENDBRANCH  17  18
ENDBRANCH  11  12
ENDBRANCH   1  11
BRANCH   3  20
HETATM   20  O3  UNL     1      24.502   4.246  51.506  1.00  0.00    -0.365 OA
HETATM   21  H9  UNL     1      23.630   4.481  51.932  1.00  0.00     0.217 HD
ENDBRANCH   3  20
BRANCH   8  22
HETATM   22  O5  UNL     1      27.235  -0.526  55.078  1.00  0.00    -0.391 OA
HETATM   23  H16 UNL     1      27.749   0.288  54.885  1.00  0.00     0.210 HD
ENDBRANCH   8  22
TORSDOF 5
ENDMDL
MODEL 6
REMARK VINA RESULT:      -7.2      2.285      6.023
REMARK  5 active torsions:
REMARK  status: ('A' for Active; 'I' for Inactive)
REMARK    1  A    between atoms: C5_5  and  O1_6 
REMARK    2  A    between atoms: C6_7  and  O2_8 
REMARK    3  A    between atoms: O2_8  and  C7_9 
REMARK    4  A    between atoms: C9_11  and  O3_12 
REMARK    5  A    between atoms: C13_17  and  O5_18 
ROOT
HETATM    1  C7  UNL     1      23.640   0.040  53.083  1.00  0.00     0.148 C 
HETATM    2  C8  UNL     1      23.032  -0.782  54.030  1.00  0.00     0.234 C 
HETATM    3  C9  UNL     1      21.539  -0.849  54.159  1.00  0.00     0.052 C 
HETATM    4  C10 UNL     1      20.271  -0.494  53.757  1.00  0.00     0.031 C 
HETATM    5  C11 UNL     1      20.511   0.374  52.632  1.00  0.00     0.197 C 
HETATM    6  O4  UNL     1      20.110   1.689  52.579  1.00  0.00    -0.385 OA
HETATM    7  C12 UNL     1      20.671   2.290  51.430  1.00  0.00     0.201 C 
HETATM    8  C13 UNL     1      21.995   2.959  51.629  1.00  0.00     0.165 C 
HETATM    9  C14 UNL     1      22.988   2.265  52.488  1.00  0.00     0.204 C 
HETATM   10  O6  UNL     1      23.492   1.059  51.971  1.00  0.00    -0.357 OA
ENDROOT
BRANCH   1  11
HETATM   11  O2  UNL     1      25.020   0.093  52.958  1.00  0.00    -0.344 OA
BRANCH  11  12
HETATM   12  C6  UNL     1      25.842   0.969  53.688  1.00  0.00     0.209 A 
HETATM   13  C2  UNL     1      26.919   1.458  52.793  1.00  0.00    -0.049 A 
HETATM   14  C1  UNL     1      26.829   2.362  51.622  1.00  0.00     0.046 C 
HETATM   15  C3  UNL     1      28.073   0.949  53.192  1.00  0.00     0.008 A 
HETATM   16  C4  UNL     1      27.918   0.096  54.354  1.00  0.00     0.035 A 
HETATM   17  C5  UNL     1      26.622   0.118  54.629  1.00  0.00     0.076 A 
BRANCH  17  18
HETATM   18  O1  UNL     1      26.028  -0.584  55.694  1.00  0.00    -0.362 OA
HETATM   19  H6  UNL     1      25.548  -1.467  55.531  1.00  0.00     0.217 HD
ENDBRANCH  17  18
ENDBRANCH  11  12
ENDBRANCH   1  11
BRANCH   3  20
HETATM   20  O3  UNL     1      21.777  -1.730  55.243  1.00  0.00    -0.365 OA
HETATM   21  H9  UNL     1      22.264  -1.464  56.073  1.00  0.00     0.217 HD
ENDBRANCH   3  20
BRANCH   8  22
HETATM   22  O5  UNL     1      21.674   4.183  52.410  1.00  0.00    -0.391 OA
HETATM   23  H16 UNL     1      22.339   4.237  53.130  1.00  0.00     0.210 HD
ENDBRANCH   8  22
TORSDOF 5
ENDMDL
MODEL 7
REMARK VINA RESULT:      -7.1      1.833      6.393
REMARK  5 active torsions:
REMARK  status: ('A' for Active; 'I' for Inactive)
REMARK    1  A    between atoms: C5_5  and  O1_6 
REMARK    2  A    between atoms: C6_7  and  O2_8 
REMARK    3  A    between atoms: O2_8  and  C7_9 
REMARK    4  A    between atoms: C9_11  and  O3_12 
REMARK    5  A    between atoms: C13_17  and  O5_18 
ROOT
HETATM    1  C7  UNL     1      24.732   1.196  53.065  1.00  0.00     0.148 C 
HETATM    2  C8  UNL     1      24.622   1.806  51.817  1.00  0.00     0.234 C 
HETATM    3  C9  UNL     1      23.282   2.114  51.216  1.00  0.00     0.052 C 
HETATM    4  C10 UNL     1      21.907   2.138  51.271  1.00  0.00     0.031 C 
HETATM    5  C11 UNL     1      21.618   1.607  52.579  1.00  0.00     0.197 C 
HETATM    6  O4  UNL     1      20.881   0.465  52.797  1.00  0.00    -0.385 OA
HETATM    7  C12 UNL     1      20.956   0.130  54.167  1.00  0.00     0.201 C 
HETATM    8  C13 UNL     1      22.061  -0.806  54.548  1.00  0.00     0.165 C 
HETATM    9  C14 UNL     1      23.385  -0.593  53.909  1.00  0.00     0.204 C 
HETATM   10  O6  UNL     1      24.045   0.593  54.274  1.00  0.00    -0.357 OA
ENDROOT
BRANCH   1  11
HETATM   11  O2  UNL     1      25.972   0.922  53.623  1.00  0.00    -0.344 OA
BRANCH  11  12
HETATM   12  C6  UNL     1      27.153   0.768  52.876  1.00  0.00     0.209 A 
HETATM   13  C2  UNL     1      27.568  -0.654  52.941  1.00  0.00    -0.049 A 
HETATM   14  C1  UNL     1      26.923  -1.849  52.349  1.00  0.00     0.046 C 
HETATM   15  C3  UNL     1      28.680  -0.745  53.654  1.00  0.00     0.008 A 
HETATM   16  C4  UNL     1      29.126   0.550  54.131  1.00  0.00     0.035 A 
HETATM   17  C5  UNL     1      28.232   1.414  53.673  1.00  0.00     0.076 A 
BRANCH  17  18
HETATM   18  O1  UNL     1      28.284   2.802  53.905  1.00  0.00    -0.362 OA
HETATM   19  H6  UNL     1      27.988   3.190  54.798  1.00  0.00     0.217 HD
ENDBRANCH  17  18
ENDBRANCH  11  12
ENDBRANCH   1  11
BRANCH   3  20
HETATM   20  O3  UNL     1      24.010   2.579  50.092  1.00  0.00    -0.365 OA
HETATM   21  H9  UNL     1      24.798   3.188  50.160  1.00  0.00     0.217 HD
ENDBRANCH   3  20
BRANCH   8  22
HETATM   22  O5  UNL     1      21.633  -2.120  54.000  1.00  0.00    -0.391 OA
HETATM   23  H16 UNL     1      22.059  -2.209  53.121  1.00  0.00     0.210 HD
ENDBRANCH   8  22
TORSDOF 5
ENDMDL
MODEL 8
REMARK VINA RESULT:      -7.0      2.507      5.587
REMARK  5 active torsions:
REMARK  status: ('A' for Active; 'I' for Inactive)
REMARK    1  A    between atoms: C5_5  and  O1_6 
REMARK    2  A    between atoms: C6_7  and  O2_8 
REMARK    3  A    between atoms: O2_8  and  C7_9 
REMARK    4  A    between atoms: C9_11  and  O3_12 
REMARK    5  A    between atoms: C13_17  and  O5_18 
ROOT
HETATM    1  C7  UNL     1      24.756   0.631  52.786  1.00  0.00     0.148 C 
HETATM    2  C8  UNL     1      25.837   0.755  53.658  1.00  0.00     0.234 C 
HETATM    3  C9  UNL     1      25.884  -0.001  54.953  1.00  0.00     0.052 C 
HETATM    4  C10 UNL     1      25.356  -0.903  55.848  1.00  0.00     0.031 C 
HETATM    5  C11 UNL     1      24.154  -1.355  55.194  1.00  0.00     0.197 C 
HETATM    6  O4  UNL     1      22.891  -1.202  55.718  1.00  0.00    -0.385 OA
HETATM    7  C12 UNL     1      21.944  -1.577  54.740  1.00  0.00     0.201 C 
HETATM    8  C13 UNL     1      21.445  -0.473  53.861  1.00  0.00     0.165 C 
HETATM    9  C14 UNL     1      22.441   0.519  53.381  1.00  0.00     0.204 C 
HETATM   10  O6  UNL     1      23.403   0.021  52.485  1.00  0.00    -0.357 OA
ENDROOT
BRANCH   1  11
HETATM   11  O2  UNL     1      24.720   1.323  51.585  1.00  0.00    -0.344 OA
BRANCH  11  12
HETATM   12  C6  UNL     1      24.697   2.726  51.486  1.00  0.00     0.209 A 
HETATM   13  C2  UNL     1      23.734   3.105  50.423  1.00  0.00    -0.049 A 
HETATM   14  C1  UNL     1      22.258   2.982  50.405  1.00  0.00     0.046 C 
HETATM   15  C3  UNL     1      24.404   3.611  49.399  1.00  0.00     0.008 A 
HETATM   16  C4  UNL     1      25.833   3.632  49.642  1.00  0.00     0.035 A 
HETATM   17  C5  UNL     1      25.987   3.116  50.853  1.00  0.00     0.076 A 
BRANCH  17  18
HETATM   18  O1  UNL     1      27.231   2.950  51.489  1.00  0.00    -0.362 OA
HETATM   19  H6  UNL     1      27.496   2.050  51.883  1.00  0.00     0.217 HD
ENDBRANCH  17  18
ENDBRANCH  11  12
ENDBRANCH   1  11
BRANCH   3  20
HETATM   20  O3  UNL     1      27.103   0.683  55.186  1.00  0.00    -0.365 OA
HETATM   21  H9  UNL     1      27.198   1.433  55.838  1.00  0.00     0.217 HD
ENDBRANCH   3  20
BRANCH   8  22
HETATM   22  O5  UNL     1      20.569   0.336  54.750  1.00  0.00    -0.391 OA
HETATM   23  H16 UNL     1      21.061   1.161  54.951  1.00  0.00     0.210 HD
ENDBRANCH   8  22
TORSDOF 5
ENDMDL
MODEL 9
REMARK VINA RESULT:      -7.0      3.070      4.486
REMARK  5 active torsions:
REMARK  status: ('A' for Active; 'I' for Inactive)
REMARK    1  A    between atoms: C5_5  and  O1_6 
REMARK    2  A    between atoms: C6_7  and  O2_8 
REMARK    3  A    between atoms: O2_8  and  C7_9 
REMARK    4  A    between atoms: C9_11  and  O3_12 
REMARK    5  A    between atoms: C13_17  and  O5_18 
ROOT
HETATM    1  C7  UNL     1      25.214   2.249  53.216  1.00  0.00     0.148 C 
HETATM    2  C8  UNL     1      24.272   1.235  53.049  1.00  0.00     0.234 C 
HETATM    3  C9  UNL     1      24.486  -0.129  53.636  1.00  0.00     0.052 C 
HETATM    4  C10 UNL     1      25.215  -1.025  54.384  1.00  0.00     0.031 C 
HETATM    5  C11 UNL     1      26.336  -0.242  54.839  1.00  0.00     0.197 C 
HETATM    6  O4  UNL     1      27.648  -0.535  54.541  1.00  0.00    -0.385 OA
HETATM    7  C12 UNL     1      28.462   0.533  54.978  1.00  0.00     0.201 C 
HETATM    8  C13 UNL     1      28.729   1.602  53.965  1.00  0.00     0.165 C 
HETATM    9  C14 UNL     1      27.595   2.027  53.106  1.00  0.00     0.204 C 
HETATM   10  O6  UNL     1      26.551   2.692  53.773  1.00  0.00    -0.357 OA
ENDROOT
BRANCH   1  11
HETATM   11  O2  UNL     1      25.010   3.513  52.680  1.00  0.00    -0.344 OA
BRANCH  11  12
HETATM   12  C6  UNL     1      24.318   3.756  51.480  1.00  0.00     0.209 A 
HETATM   13  C2  UNL     1      25.309   4.078  50.425  1.00  0.00    -0.049 A 
HETATM   14  C1  UNL     1      26.314   3.201  49.781  1.00  0.00     0.046 C 
HETATM   15  C3  UNL     1      25.183   5.353  50.093  1.00  0.00     0.008 A 
HETATM   16  C4  UNL     1      24.138   6.011  50.852  1.00  0.00     0.035 A 
HETATM   17  C5  UNL     1      23.648   5.075  51.651  1.00  0.00     0.076 A 
BRANCH  17  18
HETATM   18  O1  UNL     1      22.602   5.286  52.568  1.00  0.00    -0.362 OA
HETATM   19  H6  UNL     1      22.754   5.835  53.411  1.00  0.00     0.217 HD
ENDBRANCH  17  18
ENDBRANCH  11  12
ENDBRANCH   1  11
BRANCH   3  20
HETATM   20  O3  UNL     1      23.264  -0.476  53.006  1.00  0.00    -0.365 OA
HETATM   21  H9  UNL     1      22.849   0.063  52.276  1.00  0.00     0.217 HD
ENDBRANCH   3  20
BRANCH   8  22
HETATM   22  O5  UNL     1      29.661   0.966  52.997  1.00  0.00    -0.391 OA
HETATM   23  H16 UNL     1      30.534   1.394  53.127  1.00  0.00     0.210 HD
ENDBRANCH   8  22
TORSDOF 5
ENDMDL
