MODEL 1
REMARK VINA RESULT:      -8.1      0.000      0.000
REMARK  2 active torsions:
REMARK  status: ('A' for Active; 'I' for Inactive)
REMARK    1  A    between atoms: C3_3  and  C4_4 
REMARK       I    between atoms: C4_4  and  N1_6 
REMARK    2  A    between atoms: N1_6  and  C5_7 
ROOT
HETATM    1  C1  UNL     1      15.921   0.460  48.912  1.00  0.00     0.112 C 
HETATM    2  C2  UNL     1      16.965   0.283  49.927  1.00  0.00    -0.101 C 
HETATM    3  C3  UNL     1      17.825   0.116  50.772  1.00  0.00    -0.006 C 
ENDROOT
BRANCH   3   4
HETATM    4  C4  UNL     1      18.863  -0.076  51.766  1.00  0.00     0.300 C 
HETATM    5  O1  UNL     1      18.561  -0.560  52.888  1.00  0.00    -0.258 OA
HETATM    6  N1  UNL     1      20.169   0.315  51.360  1.00  0.00    -0.316 N 
HETATM    7  H4  UNL     1      20.362   0.712  50.414  1.00  0.00     0.170 HD
BRANCH   6   8
HETATM    8  C5  UNL     1      21.372   0.244  52.115  1.00  0.00     0.036 A 
HETATM    9  C6  UNL     1      21.741  -0.914  52.766  1.00  0.00     0.032 A 
HETATM   10  C7  UNL     1      22.955  -0.859  53.480  1.00  0.00     0.034 A 
HETATM   11  C8  UNL     1      23.827   0.236  53.603  1.00  0.00     0.065 A 
HETATM   12  C9  UNL     1      23.395   1.395  52.913  1.00  0.00    -0.023 A 
HETATM   13  N4  UNL     1      24.808  -0.260  54.409  1.00  0.00    -0.242 NA
HETATM   14  C10 UNL     1      22.210   1.334  52.219  1.00  0.00     0.039 A 
HETATM   15  C11 UNL     1      24.087   2.735  52.795  1.00  0.00     0.075 C 
HETATM   16  C12 UNL     1      25.527   2.486  52.454  1.00  0.00    -0.070 C 
HETATM   17  C13 UNL     1      25.716   1.773  53.540  1.00  0.00     0.034 C 
HETATM   18  C16 UNL     1      26.733   2.529  51.567  1.00  0.00     0.064 C 
HETATM   19  C14 UNL     1      26.401   0.892  52.610  1.00  0.00     0.047 C 
HETATM   20  C15 UNL     1      26.649   0.978  51.313  1.00  0.00     0.008 C 
HETATM   21  N2  UNL     1      26.532  -0.330  53.397  1.00  0.00    -0.243 N 
HETATM   22  C17 UNL     1      27.185  -1.497  53.099  1.00  0.00     0.190 C 
HETATM   23  C18 UNL     1      25.922  -0.599  54.650  1.00  0.00     0.226 C 
HETATM   24  N3  UNL     1      27.714  -2.469  52.835  1.00  0.00    -0.171 NA
ENDBRANCH   6   8
ENDBRANCH   3   4
TORSDOF 2
ENDMDL
MODEL 2
REMARK VINA RESULT:      -7.7      2.973      7.699
REMARK  2 active torsions:
REMARK  status: ('A' for Active; 'I' for Inactive)
REMARK    1  A    between atoms: C3_3  and  C4_4 
REMARK       I    between atoms: C4_4  and  N1_6 
REMARK    2  A    between atoms: N1_6  and  C5_7 
ROOT
HETATM    1  C1  UNL     1      29.793  -1.986  53.458  1.00  0.00     0.112 C 
HETATM    2  C2  UNL     1      28.702  -1.008  53.524  1.00  0.00    -0.101 C 
HETATM    3  C3  UNL     1      27.783  -0.211  53.573  1.00  0.00    -0.006 C 
ENDROOT
BRANCH   3   4
HETATM    4  C4  UNL     1      26.694   0.742  53.649  1.00  0.00     0.300 C 
HETATM    5  O1  UNL     1      26.686   1.599  54.570  1.00  0.00    -0.258 OA
HETATM    6  N1  UNL     1      25.704   0.610  52.636  1.00  0.00    -0.316 N 
HETATM    7  H4  UNL     1      25.761  -0.122  51.894  1.00  0.00     0.170 HD
BRANCH   6   8
HETATM    8  C5  UNL     1      24.532   1.395  52.457  1.00  0.00     0.036 A 
HETATM    9  C6  UNL     1      24.586   2.636  51.857  1.00  0.00     0.032 A 
HETATM   10  C7  UNL     1      23.358   3.316  51.737  1.00  0.00     0.034 A 
HETATM   11  C8  UNL     1      22.091   2.877  52.158  1.00  0.00     0.065 A 
HETATM   12  C9  UNL     1      22.099   1.597  52.765  1.00  0.00    -0.023 A 
HETATM   13  N4  UNL     1      21.290   3.926  51.818  1.00  0.00    -0.242 NA
HETATM   14  C10 UNL     1      23.301   0.940  52.879  1.00  0.00     0.039 A 
HETATM   15  C11 UNL     1      20.930   0.801  53.302  1.00  0.00     0.075 C 
HETATM   16  C12 UNL     1      19.835   0.834  52.276  1.00  0.00    -0.070 C 
HETATM   17  C13 UNL     1      19.773   2.145  52.309  1.00  0.00     0.034 C 
HETATM   18  C16 UNL     1      18.923   0.233  51.252  1.00  0.00     0.064 C 
HETATM   19  C14 UNL     1      19.729   1.987  50.866  1.00  0.00     0.047 C 
HETATM   20  C15 UNL     1      19.719   0.921  50.083  1.00  0.00     0.008 C 
HETATM   21  N2  UNL     1      19.994   3.348  50.408  1.00  0.00    -0.243 N 
HETATM   22  C17 UNL     1      19.983   3.861  49.138  1.00  0.00     0.190 C 
HETATM   23  C18 UNL     1      20.411   4.443  51.208  1.00  0.00     0.226 C 
HETATM   24  N3  UNL     1      19.989   4.274  48.078  1.00  0.00    -0.171 NA
ENDBRANCH   6   8
ENDBRANCH   3   4
TORSDOF 2
ENDMDL
MODEL 3
REMARK VINA RESULT:      -7.6      4.094      7.820
REMARK  2 active torsions:
REMARK  status: ('A' for Active; 'I' for Inactive)
REMARK    1  A    between atoms: C3_3  and  C4_4 
REMARK       I    between atoms: C4_4  and  N1_6 
REMARK    2  A    between atoms: N1_6  and  C5_7 
ROOT
HETATM    1  C1  UNL     1      30.044  -1.608  53.880  1.00  0.00     0.112 C 
HETATM    2  C2  UNL     1      29.097  -0.572  53.456  1.00  0.00    -0.101 C 
HETATM    3  C3  UNL     1      28.320   0.301  53.117  1.00  0.00    -0.006 C 
ENDROOT
BRANCH   3   4
HETATM    4  C4  UNL     1      27.399   1.339  52.696  1.00  0.00     0.300 C 
HETATM    5  O1  UNL     1      27.853   2.430  52.265  1.00  0.00    -0.258 OA
HETATM    6  N1  UNL     1      26.020   1.008  52.816  1.00  0.00    -0.316 N 
HETATM    7  H4  UNL     1      25.700   0.084  53.182  1.00  0.00     0.170 HD
BRANCH   6   8
HETATM    8  C5  UNL     1      24.899   1.817  52.484  1.00  0.00     0.036 A 
HETATM    9  C6  UNL     1      24.638   2.990  53.160  1.00  0.00     0.032 A 
HETATM   10  C7  UNL     1      23.499   3.704  52.739  1.00  0.00     0.034 A 
HETATM   11  C8  UNL     1      22.602   3.357  51.713  1.00  0.00     0.065 A 
HETATM   12  C9  UNL     1      22.923   2.144  51.055  1.00  0.00    -0.023 A 
HETATM   13  N4  UNL     1      21.697   4.375  51.760  1.00  0.00    -0.242 NA
HETATM   14  C10 UNL     1      24.036   1.454  51.473  1.00  0.00     0.039 A 
HETATM   15  C11 UNL     1      22.211   1.484  49.896  1.00  0.00     0.075 C 
HETATM   16  C12 UNL     1      21.944   2.533  48.856  1.00  0.00    -0.070 C 
HETATM   17  C13 UNL     1      21.243   3.260  49.695  1.00  0.00     0.034 C 
HETATM   18  C16 UNL     1      22.116   3.187  47.520  1.00  0.00     0.064 C 
HETATM   19  C14 UNL     1      22.027   4.337  49.115  1.00  0.00     0.047 C 
HETATM   20  C15 UNL     1      22.941   4.365  48.160  1.00  0.00     0.008 C 
HETATM   21  N2  UNL     1      21.784   5.424  50.059  1.00  0.00    -0.243 N 
HETATM   22  C17 UNL     1      22.174   6.736  50.001  1.00  0.00     0.190 C 
HETATM   23  C18 UNL     1      21.134   5.324  51.317  1.00  0.00     0.226 C 
HETATM   24  N3  UNL     1      22.518   7.820  49.954  1.00  0.00    -0.171 NA
ENDBRANCH   6   8
ENDBRANCH   3   4
TORSDOF 2
ENDMDL
MODEL 4
REMARK VINA RESULT:      -7.6      4.905      8.478
REMARK  2 active torsions:
REMARK  status: ('A' for Active; 'I' for Inactive)
REMARK    1  A    between atoms: C3_3  and  C4_4 
REMARK       I    between atoms: C4_4  and  N1_6 
REMARK    2  A    between atoms: N1_6  and  C5_7 
ROOT
HETATM    1  C1  UNL     1      29.782  -1.054  54.088  1.00  0.00     0.112 C 
HETATM    2  C2  UNL     1      28.810  -0.052  53.636  1.00  0.00    -0.101 C 
HETATM    3  C3  UNL     1      28.018   0.785  53.246  1.00  0.00    -0.006 C 
ENDROOT
BRANCH   3   4
HETATM    4  C4  UNL     1      27.061   1.769  52.781  1.00  0.00     0.300 C 
HETATM    5  O1  UNL     1      26.382   2.416  53.620  1.00  0.00    -0.258 OA
HETATM    6  N1  UNL     1      26.980   1.912  51.368  1.00  0.00    -0.316 N 
HETATM    7  H4  UNL     1      27.569   1.347  50.717  1.00  0.00     0.170 HD
BRANCH   6   8
HETATM    8  C5  UNL     1      26.140   2.790  50.628  1.00  0.00     0.036 A 
HETATM    9  C6  UNL     1      24.774   2.607  50.586  1.00  0.00     0.032 A 
HETATM   10  C7  UNL     1      24.051   3.542  49.820  1.00  0.00     0.034 A 
HETATM   11  C8  UNL     1      24.561   4.635  49.098  1.00  0.00     0.065 A 
HETATM   12  C9  UNL     1      25.968   4.772  49.181  1.00  0.00    -0.023 A 
HETATM   13  N4  UNL     1      23.436   5.168  48.541  1.00  0.00    -0.242 NA
HETATM   14  C10 UNL     1      26.667   3.855  49.929  1.00  0.00     0.039 A 
HETATM   15  C11 UNL     1      26.850   5.838  48.567  1.00  0.00     0.075 C 
HETATM   16  C12 UNL     1      26.224   7.173  48.844  1.00  0.00    -0.070 C 
HETATM   17  C13 UNL     1      25.115   6.841  48.226  1.00  0.00     0.034 C 
HETATM   18  C16 UNL     1      26.156   8.529  49.477  1.00  0.00     0.064 C 
HETATM   19  C14 UNL     1      24.508   7.455  49.395  1.00  0.00     0.047 C 
HETATM   20  C15 UNL     1      25.018   8.056  50.456  1.00  0.00     0.008 C 
HETATM   21  N2  UNL     1      23.125   6.998  49.287  1.00  0.00    -0.243 N 
HETATM   22  C17 UNL     1      22.034   7.327  50.047  1.00  0.00     0.190 C 
HETATM   23  C18 UNL     1      22.624   6.022  48.387  1.00  0.00     0.226 C 
HETATM   24  N3  UNL     1      21.137   7.592  50.695  1.00  0.00    -0.171 NA
ENDBRANCH   6   8
ENDBRANCH   3   4
TORSDOF 2
ENDMDL
MODEL 5
REMARK VINA RESULT:      -7.3      4.235      8.130
REMARK  2 active torsions:
REMARK  status: ('A' for Active; 'I' for Inactive)
REMARK    1  A    between atoms: C3_3  and  C4_4 
REMARK       I    between atoms: C4_4  and  N1_6 
REMARK    2  A    between atoms: N1_6  and  C5_7 
ROOT
HETATM    1  C1  UNL     1      29.577  -2.187  53.503  1.00  0.00     0.112 C 
HETATM    2  C2  UNL     1      28.874  -0.911  53.329  1.00  0.00    -0.101 C 
HETATM    3  C3  UNL     1      28.302   0.150  53.166  1.00  0.00    -0.006 C 
ENDROOT
BRANCH   3   4
HETATM    4  C4  UNL     1      27.603   1.406  52.974  1.00  0.00     0.300 C 
HETATM    5  O1  UNL     1      27.659   2.287  53.871  1.00  0.00    -0.258 OA
HETATM    6  N1  UNL     1      26.898   1.523  51.744  1.00  0.00    -0.316 N 
HETATM    7  H4  UNL     1      26.886   0.758  51.035  1.00  0.00     0.170 HD
BRANCH   6   8
HETATM    8  C5  UNL     1      26.130   2.628  51.284  1.00  0.00     0.036 A 
HETATM    9  C6  UNL     1      26.476   3.313  50.138  1.00  0.00     0.032 A 
HETATM   10  C7  UNL     1      25.637   4.388  49.786  1.00  0.00     0.034 A 
HETATM   11  C8  UNL     1      24.492   4.839  50.465  1.00  0.00     0.065 A 
HETATM   12  C9  UNL     1      24.186   4.097  51.632  1.00  0.00    -0.023 A 
HETATM   13  N4  UNL     1      24.100   5.901  49.705  1.00  0.00    -0.242 NA
HETATM   14  C10 UNL     1      25.011   3.049  51.970  1.00  0.00     0.039 A 
HETATM   15  C11 UNL     1      23.024   4.272  52.584  1.00  0.00     0.075 C 
HETATM   16  C12 UNL     1      21.772   4.413  51.767  1.00  0.00    -0.070 C 
HETATM   17  C13 UNL     1      22.238   5.468  51.140  1.00  0.00     0.034 C 
HETATM   18  C16 UNL     1      20.434   3.976  51.259  1.00  0.00     0.064 C 
HETATM   19  C14 UNL     1      21.699   4.777  49.981  1.00  0.00     0.047 C 
HETATM   20  C15 UNL     1      21.037   3.640  49.845  1.00  0.00     0.008 C 
HETATM   21  N2  UNL     1      22.319   5.510  48.882  1.00  0.00    -0.243 N 
HETATM   22  C17 UNL     1      22.122   5.393  47.531  1.00  0.00     0.190 C 
HETATM   23  C18 UNL     1      23.351   6.479  48.986  1.00  0.00     0.226 C 
HETATM   24  N3  UNL     1      21.965   5.276  46.410  1.00  0.00    -0.171 NA
ENDBRANCH   6   8
ENDBRANCH   3   4
TORSDOF 2
ENDMDL
MODEL 6
REMARK VINA RESULT:      -7.3     11.872     15.361
REMARK  2 active torsions:
REMARK  status: ('A' for Active; 'I' for Inactive)
REMARK    1  A    between atoms: C3_3  and  C4_4 
REMARK       I    between atoms: C4_4  and  N1_6 
REMARK    2  A    between atoms: N1_6  and  C5_7 
ROOT
HETATM    1  C1  UNL     1      36.357   5.813  37.215  1.00  0.00     0.112 C 
HETATM    2  C2  UNL     1      36.283   5.950  38.674  1.00  0.00    -0.101 C 
HETATM    3  C3  UNL     1      36.201   6.059  39.883  1.00  0.00    -0.006 C 
ENDROOT
BRANCH   3   4
HETATM    4  C4  UNL     1      36.118   6.176  41.325  1.00  0.00     0.300 C 
HETATM    5  O1  UNL     1      37.114   6.596  41.969  1.00  0.00    -0.258 OA
HETATM    6  N1  UNL     1      34.872   5.791  41.892  1.00  0.00    -0.316 N 
HETATM    7  H4  UNL     1      34.077   5.448  41.308  1.00  0.00     0.170 HD
BRANCH   6   8
HETATM    8  C5  UNL     1      34.500   5.799  43.265  1.00  0.00     0.036 A 
HETATM    9  C6  UNL     1      33.828   6.869  43.818  1.00  0.00     0.032 A 
HETATM   10  C7  UNL     1      33.515   6.758  45.187  1.00  0.00     0.034 A 
HETATM   11  C8  UNL     1      33.809   5.688  46.049  1.00  0.00     0.065 A 
HETATM   12  C9  UNL     1      34.499   4.619  45.424  1.00  0.00    -0.023 A 
HETATM   13  N4  UNL     1      33.305   6.122  47.239  1.00  0.00    -0.242 NA
HETATM   14  C10 UNL     1      34.801   4.735  44.088  1.00  0.00     0.039 A 
HETATM   15  C11 UNL     1      34.945   3.305  46.025  1.00  0.00     0.075 C 
HETATM   16  C12 UNL     1      33.795   2.738  46.805  1.00  0.00    -0.070 C 
HETATM   17  C13 UNL     1      33.731   3.795  47.580  1.00  0.00     0.034 C 
HETATM   18  C16 UNL     1      32.712   1.742  47.086  1.00  0.00     0.064 C 
HETATM   19  C14 UNL     1      32.307   3.653  47.330  1.00  0.00     0.047 C 
HETATM   20  C15 UNL     1      31.602   2.767  46.646  1.00  0.00     0.008 C 
HETATM   21  N2  UNL     1      31.792   4.938  47.795  1.00  0.00    -0.243 N 
HETATM   22  C17 UNL     1      30.498   5.372  47.911  1.00  0.00     0.190 C 
HETATM   23  C18 UNL     1      32.560   6.073  48.163  1.00  0.00     0.226 C 
HETATM   24  N3  UNL     1      29.421   5.730  47.987  1.00  0.00    -0.171 NA
ENDBRANCH   6   8
ENDBRANCH   3   4
TORSDOF 2
ENDMDL
MODEL 7
REMARK VINA RESULT:      -7.2      8.801     11.553
REMARK  2 active torsions:
REMARK  status: ('A' for Active; 'I' for Inactive)
REMARK    1  A    between atoms: C3_3  and  C4_4 
REMARK       I    between atoms: C4_4  and  N1_6 
REMARK    2  A    between atoms: N1_6  and  C5_7 
ROOT
HETATM    1  C1  UNL     1      23.921   4.980  50.925  1.00  0.00     0.112 C 
HETATM    2  C2  UNL     1      25.004   5.487  50.075  1.00  0.00    -0.101 C 
HETATM    3  C3  UNL     1      25.888   5.915  49.357  1.00  0.00    -0.006 C 
ENDROOT
BRANCH   3   4
HETATM    4  C4  UNL     1      26.949   6.434  48.516  1.00  0.00     0.300 C 
HETATM    5  O1  UNL     1      26.676   7.290  47.635  1.00  0.00    -0.258 OA
HETATM    6  N1  UNL     1      28.243   5.904  48.779  1.00  0.00    -0.316 N 
HETATM    7  H4  UNL     1      28.411   5.192  49.524  1.00  0.00     0.170 HD
BRANCH   6   8
HETATM    8  C5  UNL     1      29.463   6.221  48.122  1.00  0.00     0.036 A 
HETATM    9  C6  UNL     1      29.831   7.529  47.888  1.00  0.00     0.032 A 
HETATM   10  C7  UNL     1      31.063   7.714  47.229  1.00  0.00     0.034 A 
HETATM   11  C8  UNL     1      31.954   6.722  46.784  1.00  0.00     0.065 A 
HETATM   12  C9  UNL     1      31.522   5.399  47.053  1.00  0.00    -0.023 A 
HETATM   13  N4  UNL     1      32.947   7.457  46.208  1.00  0.00    -0.242 NA
HETATM   14  C10 UNL     1      30.319   5.227  47.696  1.00  0.00     0.039 A 
HETATM   15  C11 UNL     1      32.230   4.097  46.753  1.00  0.00     0.075 C 
HETATM   16  C12 UNL     1      33.657   4.231  47.196  1.00  0.00    -0.070 C 
HETATM   17  C13 UNL     1      33.862   5.257  46.403  1.00  0.00     0.034 C 
HETATM   18  C16 UNL     1      34.842   3.912  48.055  1.00  0.00     0.064 C 
HETATM   19  C14 UNL     1      34.511   5.796  47.586  1.00  0.00     0.047 C 
HETATM   20  C15 UNL     1      34.729   5.298  48.792  1.00  0.00     0.008 C 
HETATM   21  N2  UNL     1      34.644   7.207  47.237  1.00  0.00    -0.243 N 
HETATM   22  C17 UNL     1      35.273   8.220  47.913  1.00  0.00     0.190 C 
HETATM   23  C18 UNL     1      34.061   7.861  46.121  1.00  0.00     0.226 C 
HETATM   24  N3  UNL     1      35.781   9.058  48.490  1.00  0.00    -0.171 NA
ENDBRANCH   6   8
ENDBRANCH   3   4
TORSDOF 2
ENDMDL
MODEL 8
REMARK VINA RESULT:      -7.2      7.267      9.754
REMARK  2 active torsions:
REMARK  status: ('A' for Active; 'I' for Inactive)
REMARK    1  A    between atoms: C3_3  and  C4_4 
REMARK       I    between atoms: C4_4  and  N1_6 
REMARK    2  A    between atoms: N1_6  and  C5_7 
ROOT
HETATM    1  C1  UNL     1      23.114   1.317  52.111  1.00  0.00     0.112 C 
HETATM    2  C2  UNL     1      23.663   2.317  51.190  1.00  0.00    -0.101 C 
HETATM    3  C3  UNL     1      24.130   3.132  50.416  1.00  0.00    -0.006 C 
ENDROOT
BRANCH   3   4
HETATM    4  C4  UNL     1      24.669   4.108  49.490  1.00  0.00     0.300 C 
HETATM    5  O1  UNL     1      23.934   4.565  48.577  1.00  0.00    -0.258 OA
HETATM    6  N1  UNL     1      26.028   4.467  49.713  1.00  0.00    -0.316 N 
HETATM    7  H4  UNL     1      26.592   4.054  50.489  1.00  0.00     0.170 HD
BRANCH   6   8
HETATM    8  C5  UNL     1      26.817   5.390  48.973  1.00  0.00     0.036 A 
HETATM    9  C6  UNL     1      26.313   6.614  48.587  1.00  0.00     0.032 A 
HETATM   10  C7  UNL     1      27.192   7.440  47.858  1.00  0.00     0.034 A 
HETATM   11  C8  UNL     1      28.517   7.159  47.483  1.00  0.00     0.065 A 
HETATM   12  C9  UNL     1      28.978   5.889  47.908  1.00  0.00    -0.023 A 
HETATM   13  N4  UNL     1      28.868   8.279  46.789  1.00  0.00    -0.242 NA
HETATM   14  C10 UNL     1      28.114   5.089  48.618  1.00  0.00     0.039 A 
HETATM   15  C11 UNL     1      30.345   5.270  47.716  1.00  0.00     0.075 C 
HETATM   16  C12 UNL     1      31.376   6.298  48.080  1.00  0.00    -0.070 C 
HETATM   17  C13 UNL     1      30.933   7.139  47.175  1.00  0.00     0.034 C 
HETATM   18  C16 UNL     1      32.480   6.868  48.915  1.00  0.00     0.064 C 
HETATM   19  C14 UNL     1      31.079   8.088  48.265  1.00  0.00     0.047 C 
HETATM   20  C15 UNL     1      31.519   7.965  49.506  1.00  0.00     0.008 C 
HETATM   21  N2  UNL     1      30.330   9.236  47.763  1.00  0.00    -0.243 N 
HETATM   22  C17 UNL     1      30.185  10.488  48.300  1.00  0.00     0.190 C 
HETATM   23  C18 UNL     1      29.502   9.269  46.611  1.00  0.00     0.226 C 
HETATM   24  N3  UNL     1      30.055  11.520  48.763  1.00  0.00    -0.171 NA
ENDBRANCH   6   8
ENDBRANCH   3   4
TORSDOF 2
ENDMDL
MODEL 9
REMARK VINA RESULT:      -7.1      6.500      8.952
REMARK  2 active torsions:
REMARK  status: ('A' for Active; 'I' for Inactive)
REMARK    1  A    between atoms: C3_3  and  C4_4 
REMARK       I    between atoms: C4_4  and  N1_6 
REMARK    2  A    between atoms: N1_6  and  C5_7 
ROOT
HETATM    1  C1  UNL     1      24.246   0.143  54.229  1.00  0.00     0.112 C 
HETATM    2  C2  UNL     1      24.280   1.033  53.064  1.00  0.00    -0.101 C 
HETATM    3  C3  UNL     1      24.328   1.775  52.101  1.00  0.00    -0.006 C 
ENDROOT
BRANCH   3   4
HETATM    4  C4  UNL     1      24.379   2.646  50.943  1.00  0.00     0.300 C 
HETATM    5  O1  UNL     1      23.634   2.408  49.958  1.00  0.00    -0.258 OA
HETATM    6  N1  UNL     1      25.302   3.725  51.039  1.00  0.00    -0.316 N 
HETATM    7  H4  UNL     1      25.897   3.874  51.883  1.00  0.00     0.170 HD
BRANCH   6   8
HETATM    8  C5  UNL     1      25.567   4.731  50.069  1.00  0.00     0.036 A 
HETATM    9  C6  UNL     1      24.596   5.632  49.689  1.00  0.00     0.032 A 
HETATM   10  C7  UNL     1      24.981   6.581  48.720  1.00  0.00     0.034 A 
HETATM   11  C8  UNL     1      26.236   6.712  48.102  1.00  0.00     0.065 A 
HETATM   12  C9  UNL     1      27.192   5.760  48.534  1.00  0.00    -0.023 A 
HETATM   13  N4  UNL     1      26.036   7.759  47.252  1.00  0.00    -0.242 NA
HETATM   14  C10 UNL     1      26.808   4.837  49.478  1.00  0.00     0.039 A 
HETATM   15  C11 UNL     1      28.639   5.620  48.116  1.00  0.00     0.075 C 
HETATM   16  C12 UNL     1      29.269   6.981  48.161  1.00  0.00    -0.070 C 
HETATM   17  C13 UNL     1      28.408   7.466  47.297  1.00  0.00     0.034 C 
HETATM   18  C16 UNL     1      30.210   8.018  48.691  1.00  0.00     0.064 C 
HETATM   19  C14 UNL     1      28.374   8.569  48.242  1.00  0.00     0.047 C 
HETATM   20  C15 UNL     1      29.026   8.802  49.369  1.00  0.00     0.008 C 
HETATM   21  N2  UNL     1      27.187   9.298  47.807  1.00  0.00    -0.243 N 
HETATM   22  C17 UNL     1      26.685  10.495  48.248  1.00  0.00     0.190 C 
HETATM   23  C18 UNL     1      26.227   8.864  46.856  1.00  0.00     0.226 C 
HETATM   24  N3  UNL     1      26.266  11.480  48.632  1.00  0.00    -0.171 NA
ENDBRANCH   6   8
ENDBRANCH   3   4
TORSDOF 2
ENDMDL
