MODEL 1
REMARK VINA RESULT:      -9.1      0.000      0.000
REMARK  5 active torsions:
REMARK  status: ('A' for Active; 'I' for Inactive)
REMARK    1  A    between atoms: C7_11  and  N3_12 
REMARK    2  A    between atoms: N4_23  and  C16_24 
REMARK    3  A    between atoms: C16_24  and  C17_25 
REMARK    4  A    between atoms: C17_25  and  C18_26 
REMARK    5  A    between atoms: C18_26  and  N5_27 
ROOT
HETATM    1  O1  UNL     1      28.487   2.302  53.615  1.00  0.00    -0.271 OA
HETATM    2  C1  UNL     1      27.600   1.404  53.760  1.00  0.00     0.248 C 
HETATM    3  C2  UNL     1      28.049   0.227  54.547  1.00  0.00     0.279 C 
HETATM    4  O2  UNL     1      26.885  -0.339  55.169  1.00  0.00    -0.340 OA
HETATM    5  C3  UNL     1      25.631  -0.183  54.627  1.00  0.00     0.098 A 
HETATM    6  C4  UNL     1      24.654  -1.019  55.091  1.00  0.00     0.071 A 
HETATM    7  C5  UNL     1      23.382  -0.905  54.574  1.00  0.00     0.075 A 
HETATM    8  N1  UNL     1      22.394  -1.719  55.006  1.00  0.00    -0.241 NA
HETATM    9  C6  UNL     1      21.151  -1.625  54.513  1.00  0.00     0.236 A 
HETATM   10  N2  UNL     1      20.781  -0.714  53.548  1.00  0.00    -0.223 NA
HETATM   11  C7  UNL     1      21.791   0.107  53.113  1.00  0.00     0.147 A 
HETATM   12  C13 UNL     1      23.074   0.028  53.608  1.00  0.00     0.042 A 
HETATM   13  C14 UNL     1      24.026   0.908  53.097  1.00  0.00     0.050 A 
HETATM   14  C15 UNL     1      25.297   0.741  53.660  1.00  0.00     0.071 A 
HETATM   15  N4  UNL     1      26.293   1.603  53.168  1.00  0.00    -0.314 N 
ENDROOT
BRANCH  15  16
HETATM   16  C16 UNL     1      26.206   2.625  52.174  1.00  0.00     0.134 C 
BRANCH  16  17
HETATM   17  C17 UNL     1      26.401   2.042  50.809  1.00  0.00     0.050 C 
BRANCH  17  18
HETATM   18  C18 UNL     1      26.745   3.064  49.745  1.00  0.00     0.274 C 
BRANCH  18  19
HETATM   19  N5  UNL     1      25.825   4.190  49.801  1.00  0.00     0.088 N 
HETATM   20  C19 UNL     1      24.550   3.739  49.289  1.00  0.00     0.272 C 
HETATM   21  C20 UNL     1      23.544   4.867  49.212  1.00  0.00     0.030 C 
HETATM   22  C21 UNL     1      24.088   6.106  48.549  1.00  0.00     0.003 C 
HETATM   23  C22 UNL     1      25.382   6.469  49.251  1.00  0.00     0.030 C 
HETATM   24  C23 UNL     1      26.334   5.309  49.019  1.00  0.00     0.272 C 
ENDBRANCH  18  19
ENDBRANCH  17  18
ENDBRANCH  16  17
ENDBRANCH  15  16
BRANCH  11  25
HETATM   25  N3  UNL     1      21.450   1.057  52.097  1.00  0.00    -0.314 N 
HETATM   26  C8  UNL     1      21.458   0.442  50.803  1.00  0.00     0.113 C 
HETATM   27  C9  UNL     1      21.538   1.227  49.746  1.00  0.00     0.035 C 
HETATM   28  C10 UNL     1      20.893   2.357  49.808  1.00  0.00     0.152 C 
HETATM   29  F1  UNL     1      20.260   2.910  48.745  1.00  0.00    -0.203 F 
HETATM   30  C11 UNL     1      20.867   3.037  51.091  1.00  0.00     0.089 C 
HETATM   31 CL1  UNL     1      20.477   4.721  51.188  1.00  0.00    -0.080 Cl
HETATM   32  C12 UNL     1      21.136   2.434  52.252  1.00  0.00     0.125 C 
ENDBRANCH  11  25
TORSDOF 5
ENDMDL
MODEL 2
REMARK VINA RESULT:      -8.5      2.634      5.502
REMARK  5 active torsions:
REMARK  status: ('A' for Active; 'I' for Inactive)
REMARK    1  A    between atoms: C7_11  and  N3_12 
REMARK    2  A    between atoms: N4_23  and  C16_24 
REMARK    3  A    between atoms: C16_24  and  C17_25 
REMARK    4  A    between atoms: C17_25  and  C18_26 
REMARK    5  A    between atoms: C18_26  and  N5_27 
ROOT
HETATM    1  O1  UNL     1      23.436  -1.249  55.580  1.00  0.00    -0.271 OA
HETATM    2  C1  UNL     1      22.690  -1.026  54.576  1.00  0.00     0.248 C 
HETATM    3  C2  UNL     1      21.525  -1.941  54.469  1.00  0.00     0.279 C 
HETATM    4  O2  UNL     1      20.489  -1.232  53.770  1.00  0.00    -0.340 OA
HETATM    5  C3  UNL     1      20.778  -0.215  52.891  1.00  0.00     0.098 A 
HETATM    6  C4  UNL     1      19.777   0.165  52.042  1.00  0.00     0.071 A 
HETATM    7  C5  UNL     1      20.022   1.177  51.139  1.00  0.00     0.075 A 
HETATM    8  N1  UNL     1      19.057   1.573  50.281  1.00  0.00    -0.241 NA
HETATM    9  C6  UNL     1      19.276   2.553  49.393  1.00  0.00     0.236 A 
HETATM   10  N2  UNL     1      20.474   3.225  49.280  1.00  0.00    -0.223 NA
HETATM   11  C7  UNL     1      21.449   2.814  50.154  1.00  0.00     0.147 A 
HETATM   12  C13 UNL     1      21.244   1.811  51.074  1.00  0.00     0.042 A 
HETATM   13  C14 UNL     1      22.301   1.469  51.914  1.00  0.00     0.050 A 
HETATM   14  C15 UNL     1      21.991   0.435  52.807  1.00  0.00     0.071 A 
HETATM   15  N4  UNL     1      23.034   0.050  53.669  1.00  0.00    -0.314 N 
ENDROOT
BRANCH  15  16
HETATM   16  C16 UNL     1      24.366   0.553  53.772  1.00  0.00     0.134 C 
BRANCH  16  17
HETATM   17  C17 UNL     1      25.290  -0.239  52.901  1.00  0.00     0.050 C 
BRANCH  17  18
HETATM   18  C18 UNL     1      26.057   0.596  51.896  1.00  0.00     0.274 C 
BRANCH  18  19
HETATM   19  N5  UNL     1      27.387   0.905  52.396  1.00  0.00     0.088 N 
HETATM   20  C19 UNL     1      27.872  -0.263  53.099  1.00  0.00     0.272 C 
HETATM   21  C20 UNL     1      29.216  -0.011  53.747  1.00  0.00     0.030 C 
HETATM   22  C21 UNL     1      29.266   1.269  54.540  1.00  0.00     0.003 C 
HETATM   23  C22 UNL     1      28.789   2.387  53.633  1.00  0.00     0.030 C 
HETATM   24  C23 UNL     1      27.349   2.065  53.277  1.00  0.00     0.272 C 
ENDBRANCH  18  19
ENDBRANCH  17  18
ENDBRANCH  16  17
ENDBRANCH  15  16
BRANCH  11  25
HETATM   25  N3  UNL     1      22.715   3.477  50.056  1.00  0.00    -0.314 N 
HETATM   26  C8  UNL     1      22.569   4.886  50.269  1.00  0.00     0.113 C 
HETATM   27  C9  UNL     1      23.539   5.678  49.852  1.00  0.00     0.035 C 
HETATM   28  C10 UNL     1      24.755   5.230  49.984  1.00  0.00     0.152 C 
HETATM   29  F1  UNL     1      25.805   6.021  50.313  1.00  0.00    -0.203 F 
HETATM   30  C11 UNL     1      24.968   3.811  49.761  1.00  0.00     0.089 C 
HETATM   31 CL1  UNL     1      26.554   3.199  49.435  1.00  0.00    -0.080 Cl
HETATM   32  C12 UNL     1      23.988   2.904  49.787  1.00  0.00     0.125 C 
ENDBRANCH  11  25
TORSDOF 5
ENDMDL
MODEL 3
REMARK VINA RESULT:      -8.2      1.603      2.421
REMARK  5 active torsions:
REMARK  status: ('A' for Active; 'I' for Inactive)
REMARK    1  A    between atoms: C7_11  and  N3_12 
REMARK    2  A    between atoms: N4_23  and  C16_24 
REMARK    3  A    between atoms: C16_24  and  C17_25 
REMARK    4  A    between atoms: C17_25  and  C18_26 
REMARK    5  A    between atoms: C18_26  and  N5_27 
ROOT
HETATM    1  O1  UNL     1      26.925   1.429  54.328  1.00  0.00    -0.271 OA
HETATM    2  C1  UNL     1      25.840   0.870  53.977  1.00  0.00     0.248 C 
HETATM    3  C2  UNL     1      25.691  -0.527  54.460  1.00  0.00     0.279 C 
HETATM    4  O2  UNL     1      24.285  -0.789  54.580  1.00  0.00    -0.340 OA
HETATM    5  C3  UNL     1      23.357  -0.113  53.822  1.00  0.00     0.098 A 
HETATM    6  C4  UNL     1      22.103  -0.653  53.762  1.00  0.00     0.071 A 
HETATM    7  C5  UNL     1      21.141  -0.014  53.010  1.00  0.00     0.075 A 
HETATM    8  N1  UNL     1      19.893  -0.522  52.924  1.00  0.00    -0.241 NA
HETATM    9  C6  UNL     1      18.945   0.083  52.194  1.00  0.00     0.236 A 
HETATM   10  N2  UNL     1      19.155   1.246  51.487  1.00  0.00    -0.223 NA
HETATM   11  C7  UNL     1      20.426   1.755  51.578  1.00  0.00     0.147 A 
HETATM   12  C13 UNL     1      21.414   1.150  52.323  1.00  0.00     0.042 A 
HETATM   13  C14 UNL     1      22.672   1.747  52.347  1.00  0.00     0.050 A 
HETATM   14  C15 UNL     1      23.604   1.051  53.126  1.00  0.00     0.071 A 
HETATM   15  N4  UNL     1      24.892   1.614  53.172  1.00  0.00    -0.314 N 
ENDROOT
BRANCH  15  16
HETATM   16  C16 UNL     1      25.398   2.791  52.540  1.00  0.00     0.134 C 
BRANCH  16  17
HETATM   17  C17 UNL     1      25.838   2.484  51.143  1.00  0.00     0.050 C 
BRANCH  17  18
HETATM   18  C18 UNL     1      24.831   2.871  50.080  1.00  0.00     0.274 C 
BRANCH  18  19
HETATM   19  N5  UNL     1      25.349   3.949  49.253  1.00  0.00     0.088 N 
HETATM   20  C19 UNL     1      26.793   3.908  49.334  1.00  0.00     0.272 C 
HETATM   21  C20 UNL     1      27.431   5.056  48.583  1.00  0.00     0.030 C 
HETATM   22  C21 UNL     1      26.818   6.394  48.905  1.00  0.00     0.003 C 
HETATM   23  C22 UNL     1      25.320   6.271  48.704  1.00  0.00     0.030 C 
HETATM   24  C23 UNL     1      24.838   5.236  49.704  1.00  0.00     0.272 C 
ENDBRANCH  18  19
ENDBRANCH  17  18
ENDBRANCH  16  17
ENDBRANCH  15  16
BRANCH  11  25
HETATM   25  N3  UNL     1      20.688   2.955  50.842  1.00  0.00    -0.314 N 
HETATM   26  C8  UNL     1      20.805   2.678  49.442  1.00  0.00     0.113 C 
HETATM   27  C9  UNL     1      21.405   3.574  48.682  1.00  0.00     0.035 C 
HETATM   28  C10 UNL     1      21.186   4.825  48.973  1.00  0.00     0.152 C 
HETATM   29  F1  UNL     1      21.061   5.794  48.034  1.00  0.00    -0.203 F 
HETATM   30  C11 UNL     1      21.078   5.171  50.379  1.00  0.00     0.089 C 
HETATM   31 CL1  UNL     1      21.271   6.810  50.902  1.00  0.00    -0.080 Cl
HETATM   32  C12 UNL     1      20.832   4.278  51.342  1.00  0.00     0.125 C 
ENDBRANCH  11  25
TORSDOF 5
ENDMDL
MODEL 4
REMARK VINA RESULT:      -8.0      2.532      4.898
REMARK  5 active torsions:
REMARK  status: ('A' for Active; 'I' for Inactive)
REMARK    1  A    between atoms: C7_11  and  N3_12 
REMARK    2  A    between atoms: N4_23  and  C16_24 
REMARK    3  A    between atoms: C16_24  and  C17_25 
REMARK    4  A    between atoms: C17_25  and  C18_26 
REMARK    5  A    between atoms: C18_26  and  N5_27 
ROOT
HETATM    1  O1  UNL     1      24.628  -0.745  54.783  1.00  0.00    -0.271 OA
HETATM    2  C1  UNL     1      23.460  -0.883  54.303  1.00  0.00     0.248 C 
HETATM    3  C2  UNL     1      22.625  -1.885  55.014  1.00  0.00     0.279 C 
HETATM    4  O2  UNL     1      21.253  -1.497  54.841  1.00  0.00    -0.340 OA
HETATM    5  C3  UNL     1      20.845  -0.755  53.758  1.00  0.00     0.098 A 
HETATM    6  C4  UNL     1      19.502  -0.722  53.509  1.00  0.00     0.071 A 
HETATM    7  C5  UNL     1      19.045   0.005  52.430  1.00  0.00     0.075 A 
HETATM    8  N1  UNL     1      17.724   0.055  52.151  1.00  0.00    -0.241 NA
HETATM    9  C6  UNL     1      17.261   0.753  51.105  1.00  0.00     0.236 A 
HETATM   10  N2  UNL     1      18.070   1.462  50.244  1.00  0.00    -0.223 NA
HETATM   11  C7  UNL     1      19.410   1.404  50.534  1.00  0.00     0.147 A 
HETATM   12  C13 UNL     1      19.906   0.695  51.604  1.00  0.00     0.042 A 
HETATM   13  C14 UNL     1      21.284   0.699  51.808  1.00  0.00     0.050 A 
HETATM   14  C15 UNL     1      21.685  -0.057  52.917  1.00  0.00     0.071 A 
HETATM   15  N4  UNL     1      23.071  -0.088  53.157  1.00  0.00    -0.314 N 
ENDROOT
BRANCH  15  16
HETATM   16  C16 UNL     1      24.136   0.534  52.437  1.00  0.00     0.134 C 
BRANCH  16  17
HETATM   17  C17 UNL     1      24.616   1.751  53.164  1.00  0.00     0.050 C 
BRANCH  17  18
HETATM   18  C18 UNL     1      26.005   2.202  52.761  1.00  0.00     0.274 C 
BRANCH  18  19
HETATM   19  N5  UNL     1      27.017   1.439  53.475  1.00  0.00     0.088 N 
HETATM   20  C19 UNL     1      28.172   2.293  53.642  1.00  0.00     0.272 C 
HETATM   21  C20 UNL     1      29.325   1.559  54.291  1.00  0.00     0.030 C 
HETATM   22  C21 UNL     1      29.615   0.225  53.655  1.00  0.00     0.003 C 
HETATM   23  C22 UNL     1      28.316  -0.557  53.622  1.00  0.00     0.030 C 
HETATM   24  C23 UNL     1      27.366   0.231  52.738  1.00  0.00     0.272 C 
ENDBRANCH  18  19
ENDBRANCH  17  18
ENDBRANCH  16  17
ENDBRANCH  15  16
BRANCH  11  25
HETATM   25  N3  UNL     1      20.286   2.116  49.651  1.00  0.00    -0.314 N 
HETATM   26  C8  UNL     1      20.919   1.218  48.731  1.00  0.00     0.113 C 
HETATM   27  C9  UNL     1      22.010   1.632  48.116  1.00  0.00     0.035 C 
HETATM   28  C10 UNL     1      22.040   2.886  47.763  1.00  0.00     0.152 C 
HETATM   29  F1  UNL     1      22.608   3.318  46.611  1.00  0.00    -0.203 F 
HETATM   30  C11 UNL     1      21.431   3.845  48.667  1.00  0.00     0.089 C 
HETATM   31 CL1  UNL     1      21.821   5.529  48.558  1.00  0.00    -0.080 Cl
HETATM   32  C12 UNL     1      20.556   3.510  49.618  1.00  0.00     0.125 C 
ENDBRANCH  11  25
TORSDOF 5
ENDMDL
MODEL 5
REMARK VINA RESULT:      -8.0      1.894      2.492
REMARK  5 active torsions:
REMARK  status: ('A' for Active; 'I' for Inactive)
REMARK    1  A    between atoms: C7_11  and  N3_12 
REMARK    2  A    between atoms: N4_23  and  C16_24 
REMARK    3  A    between atoms: C16_24  and  C17_25 
REMARK    4  A    between atoms: C17_25  and  C18_26 
REMARK    5  A    between atoms: C18_26  and  N5_27 
ROOT
HETATM    1  O1  UNL     1      28.291   2.227  52.632  1.00  0.00    -0.271 OA
HETATM    2  C1  UNL     1      27.195   1.587  52.662  1.00  0.00     0.248 C 
HETATM    3  C2  UNL     1      27.149   0.508  53.682  1.00  0.00     0.279 C 
HETATM    4  O2  UNL     1      25.773   0.333  54.057  1.00  0.00    -0.340 OA
HETATM    5  C3  UNL     1      24.746   0.655  53.201  1.00  0.00     0.098 A 
HETATM    6  C4  UNL     1      23.513   0.152  53.507  1.00  0.00     0.071 A 
HETATM    7  C5  UNL     1      22.453   0.443  52.676  1.00  0.00     0.075 A 
HETATM    8  N1  UNL     1      21.222  -0.042  52.945  1.00  0.00    -0.241 NA
HETATM    9  C6  UNL     1      20.179   0.227  52.146  1.00  0.00     0.236 A 
HETATM   10  N2  UNL     1      20.270   1.001  51.010  1.00  0.00    -0.223 NA
HETATM   11  C7  UNL     1      21.524   1.487  50.743  1.00  0.00     0.147 A 
HETATM   12  C13 UNL     1      22.608   1.225  51.551  1.00  0.00     0.042 A 
HETATM   13  C14 UNL     1      23.839   1.765  51.188  1.00  0.00     0.050 A 
HETATM   14  C15 UNL     1      24.875   1.433  52.071  1.00  0.00     0.071 A 
HETATM   15  N4  UNL     1      26.140   1.952  51.739  1.00  0.00    -0.314 N 
ENDROOT
BRANCH  15  16
HETATM   16  C16 UNL     1      26.531   2.765  50.633  1.00  0.00     0.134 C 
BRANCH  16  17
HETATM   17  C17 UNL     1      25.696   4.006  50.576  1.00  0.00     0.050 C 
BRANCH  17  18
HETATM   18  C18 UNL     1      26.088   4.964  49.470  1.00  0.00     0.274 C 
BRANCH  18  19
HETATM   19  N5  UNL     1      25.627   6.309  49.772  1.00  0.00     0.088 N 
HETATM   20  C19 UNL     1      24.473   6.194  50.636  1.00  0.00     0.272 C 
HETATM   21  C20 UNL     1      23.854   7.542  50.931  1.00  0.00     0.030 C 
HETATM   22  C21 UNL     1      23.637   8.382  49.699  1.00  0.00     0.003 C 
HETATM   23  C22 UNL     1      24.957   8.449  48.955  1.00  0.00     0.030 C 
HETATM   24  C23 UNL     1      25.291   7.025  48.548  1.00  0.00     0.272 C 
ENDBRANCH  18  19
ENDBRANCH  17  18
ENDBRANCH  16  17
ENDBRANCH  15  16
BRANCH  11  25
HETATM   25  N3  UNL     1      21.663   2.283  49.560  1.00  0.00    -0.314 N 
HETATM   26  C8  UNL     1      21.860   1.453  48.409  1.00  0.00     0.113 C 
HETATM   27  C9  UNL     1      22.371   2.008  47.327  1.00  0.00     0.035 C 
HETATM   28  C10 UNL     1      21.991   3.226  47.062  1.00  0.00     0.152 C 
HETATM   29  F1  UNL     1      21.780   3.680  45.802  1.00  0.00    -0.203 F 
HETATM   30  C11 UNL     1      21.794   4.120  48.188  1.00  0.00     0.089 C 
HETATM   31 CL1  UNL     1      21.767   5.836  47.958  1.00  0.00    -0.080 Cl
HETATM   32  C12 UNL     1      21.626   3.699  49.445  1.00  0.00     0.125 C 
ENDBRANCH  11  25
TORSDOF 5
ENDMDL
MODEL 6
REMARK VINA RESULT:      -7.9      2.420      4.060
REMARK  5 active torsions:
REMARK  status: ('A' for Active; 'I' for Inactive)
REMARK    1  A    between atoms: C7_11  and  N3_12 
REMARK    2  A    between atoms: N4_23  and  C16_24 
REMARK    3  A    between atoms: C16_24  and  C17_25 
REMARK    4  A    between atoms: C17_25  and  C18_26 
REMARK    5  A    between atoms: C18_26  and  N5_27 
ROOT
HETATM    1  O1  UNL     1      24.193  -0.769  54.833  1.00  0.00    -0.271 OA
HETATM    2  C1  UNL     1      23.052  -0.940  54.304  1.00  0.00     0.248 C 
HETATM    3  C2  UNL     1      22.231  -1.994  54.953  1.00  0.00     0.279 C 
HETATM    4  O2  UNL     1      20.853  -1.655  54.737  1.00  0.00    -0.340 OA
HETATM    5  C3  UNL     1      20.456  -0.897  53.660  1.00  0.00     0.098 A 
HETATM    6  C4  UNL     1      19.123  -0.909  53.359  1.00  0.00     0.071 A 
HETATM    7  C5  UNL     1      18.679  -0.170  52.285  1.00  0.00     0.075 A 
HETATM    8  N1  UNL     1      17.369  -0.163  51.956  1.00  0.00    -0.241 NA
HETATM    9  C6  UNL     1      16.918   0.547  50.912  1.00  0.00     0.236 A 
HETATM   10  N2  UNL     1      17.730   1.313  50.104  1.00  0.00    -0.223 NA
HETATM   11  C7  UNL     1      19.059   1.299  50.444  1.00  0.00     0.147 A 
HETATM   12  C13 UNL     1      19.542   0.578  51.513  1.00  0.00     0.042 A 
HETATM   13  C14 UNL     1      20.910   0.630  51.771  1.00  0.00     0.050 A 
HETATM   14  C15 UNL     1      21.299  -0.142  52.873  1.00  0.00     0.071 A 
HETATM   15  N4  UNL     1      22.675  -0.126  53.166  1.00  0.00    -0.314 N 
ENDROOT
BRANCH  15  16
HETATM   16  C16 UNL     1      23.741   0.558  52.506  1.00  0.00     0.134 C 
BRANCH  16  17
HETATM   17  C17 UNL     1      23.788   1.990  52.939  1.00  0.00     0.050 C 
BRANCH  17  18
HETATM   18  C18 UNL     1      25.099   2.684  52.633  1.00  0.00     0.274 C 
BRANCH  18  19
HETATM   19  N5  UNL     1      25.156   3.077  51.235  1.00  0.00     0.088 N 
HETATM   20  C19 UNL     1      26.545   3.067  50.833  1.00  0.00     0.272 C 
HETATM   21  C20 UNL     1      26.724   3.559  49.413  1.00  0.00     0.030 C 
HETATM   22  C21 UNL     1      25.995   4.847  49.132  1.00  0.00     0.003 C 
HETATM   23  C22 UNL     1      24.550   4.656  49.551  1.00  0.00     0.030 C 
HETATM   24  C23 UNL     1      24.569   4.397  51.046  1.00  0.00     0.272 C 
ENDBRANCH  18  19
ENDBRANCH  17  18
ENDBRANCH  16  17
ENDBRANCH  15  16
BRANCH  11  25
HETATM   25  N3  UNL     1      19.938   2.070  49.617  1.00  0.00    -0.314 N 
HETATM   26  C8  UNL     1      20.772   1.215  48.826  1.00  0.00     0.113 C 
HETATM   27  C9  UNL     1      21.869   1.731  48.306  1.00  0.00     0.035 C 
HETATM   28  C10 UNL     1      21.791   2.961  47.882  1.00  0.00     0.152 C 
HETATM   29  F1  UNL     1      22.430   3.404  46.772  1.00  0.00    -0.203 F 
HETATM   30  C11 UNL     1      20.975   3.879  48.655  1.00  0.00     0.089 C 
HETATM   31 CL1  UNL     1      21.173   5.591  48.486  1.00  0.00    -0.080 Cl
HETATM   32  C12 UNL     1      20.043   3.485  49.527  1.00  0.00     0.125 C 
ENDBRANCH  11  25
TORSDOF 5
ENDMDL
MODEL 7
REMARK VINA RESULT:      -7.8      1.804      2.603
REMARK  5 active torsions:
REMARK  status: ('A' for Active; 'I' for Inactive)
REMARK    1  A    between atoms: C7_11  and  N3_12 
REMARK    2  A    between atoms: N4_23  and  C16_24 
REMARK    3  A    between atoms: C16_24  and  C17_25 
REMARK    4  A    between atoms: C17_25  and  C18_26 
REMARK    5  A    between atoms: C18_26  and  N5_27 
ROOT
HETATM    1  O1  UNL     1      26.634   0.892  54.550  1.00  0.00    -0.271 OA
HETATM    2  C1  UNL     1      25.552   0.254  54.363  1.00  0.00     0.248 C 
HETATM    3  C2  UNL     1      25.447  -1.007  55.142  1.00  0.00     0.279 C 
HETATM    4  O2  UNL     1      24.050  -1.257  55.361  1.00  0.00    -0.340 OA
HETATM    5  C3  UNL     1      23.087  -0.776  54.506  1.00  0.00     0.098 A 
HETATM    6  C4  UNL     1      21.844  -1.334  54.604  1.00  0.00     0.071 A 
HETATM    7  C5  UNL     1      20.848  -0.888  53.763  1.00  0.00     0.075 A 
HETATM    8  N1  UNL     1      19.609  -1.422  53.830  1.00  0.00    -0.241 NA
HETATM    9  C6  UNL     1      18.628  -1.003  53.018  1.00  0.00     0.236 A 
HETATM   10  N2  UNL     1      18.792  -0.018  52.069  1.00  0.00    -0.223 NA
HETATM   11  C7  UNL     1      20.054   0.517  52.007  1.00  0.00     0.147 A 
HETATM   12  C13 UNL     1      21.075   0.103  52.832  1.00  0.00     0.042 A 
HETATM   13  C14 UNL     1      22.320   0.710  52.686  1.00  0.00     0.050 A 
HETATM   14  C15 UNL     1      23.289   0.213  53.566  1.00  0.00     0.071 A 
HETATM   15  N4  UNL     1      24.566   0.792  53.448  1.00  0.00    -0.314 N 
ENDROOT
BRANCH  15  16
HETATM   16  C16 UNL     1      25.027   1.811  52.560  1.00  0.00     0.134 C 
BRANCH  16  17
HETATM   17  C17 UNL     1      24.549   3.154  53.015  1.00  0.00     0.050 C 
BRANCH  17  18
HETATM   18  C18 UNL     1      23.471   3.755  52.136  1.00  0.00     0.274 C 
BRANCH  18  19
HETATM   19  N5  UNL     1      24.048   4.700  51.194  1.00  0.00     0.088 N 
HETATM   20  C19 UNL     1      23.218   5.885  51.198  1.00  0.00     0.272 C 
HETATM   21  C20 UNL     1      23.679   6.898  50.173  1.00  0.00     0.030 C 
HETATM   22  C21 UNL     1      23.919   6.301  48.810  1.00  0.00     0.003 C 
HETATM   23  C22 UNL     1      24.855   5.121  48.988  1.00  0.00     0.030 C 
HETATM   24  C23 UNL     1      24.120   4.119  49.860  1.00  0.00     0.272 C 
ENDBRANCH  18  19
ENDBRANCH  17  18
ENDBRANCH  16  17
ENDBRANCH  15  16
BRANCH  11  25
HETATM   25  N3  UNL     1      20.269   1.533  51.020  1.00  0.00    -0.314 N 
HETATM   26  C8  UNL     1      19.795   2.802  51.486  1.00  0.00     0.113 C 
HETATM   27  C9  UNL     1      19.572   3.745  50.590  1.00  0.00     0.035 C 
HETATM   28  C10 UNL     1      20.404   3.807  49.590  1.00  0.00     0.152 C 
HETATM   29  F1  UNL     1      20.810   4.975  49.035  1.00  0.00    -0.203 F 
HETATM   30  C11 UNL     1      20.903   2.550  49.062  1.00  0.00     0.089 C 
HETATM   31 CL1  UNL     1      21.604   2.475  47.480  1.00  0.00    -0.080 Cl
HETATM   32  C12 UNL     1      20.859   1.397  49.735  1.00  0.00     0.125 C 
ENDBRANCH  11  25
TORSDOF 5
ENDMDL
MODEL 8
REMARK VINA RESULT:      -7.7      1.543      2.147
REMARK  5 active torsions:
REMARK  status: ('A' for Active; 'I' for Inactive)
REMARK    1  A    between atoms: C7_11  and  N3_12 
REMARK    2  A    between atoms: N4_23  and  C16_24 
REMARK    3  A    between atoms: C16_24  and  C17_25 
REMARK    4  A    between atoms: C17_25  and  C18_26 
REMARK    5  A    between atoms: C18_26  and  N5_27 
ROOT
HETATM    1  O1  UNL     1      27.312   2.938  51.224  1.00  0.00    -0.271 OA
HETATM    2  C1  UNL     1      26.590   1.994  51.671  1.00  0.00     0.248 C 
HETATM    3  C2  UNL     1      27.347   0.936  52.388  1.00  0.00     0.279 C 
HETATM    4  O2  UNL     1      26.452   0.346  53.344  1.00  0.00    -0.340 OA
HETATM    5  C3  UNL     1      25.090   0.354  53.158  1.00  0.00     0.098 A 
HETATM    6  C4  UNL     1      24.360  -0.505  53.931  1.00  0.00     0.071 A 
HETATM    7  C5  UNL     1      22.991  -0.537  53.776  1.00  0.00     0.075 A 
HETATM    8  N1  UNL     1      22.240  -1.378  54.520  1.00  0.00    -0.241 NA
HETATM    9  C6  UNL     1      20.908  -1.426  54.381  1.00  0.00     0.236 A 
HETATM   10  N2  UNL     1      20.205  -0.643  53.491  1.00  0.00    -0.223 NA
HETATM   11  C7  UNL     1      20.976   0.206  52.739  1.00  0.00     0.147 A 
HETATM   12  C13 UNL     1      22.346   0.272  52.866  1.00  0.00     0.042 A 
HETATM   13  C14 UNL     1      23.035   1.167  52.052  1.00  0.00     0.050 A 
HETATM   14  C15 UNL     1      24.421   1.152  52.255  1.00  0.00     0.071 A 
HETATM   15  N4  UNL     1      25.159   2.036  51.447  1.00  0.00    -0.314 N 
ENDROOT
BRANCH  15  16
HETATM   16  C16 UNL     1      24.709   2.947  50.444  1.00  0.00     0.134 C 
BRANCH  16  17
HETATM   17  C17 UNL     1      24.365   4.268  51.057  1.00  0.00     0.050 C 
BRANCH  17  18
HETATM   18  C18 UNL     1      23.873   5.300  50.063  1.00  0.00     0.274 C 
BRANCH  18  19
HETATM   19  N5  UNL     1      24.981   6.105  49.571  1.00  0.00     0.088 N 
HETATM   20  C19 UNL     1      25.230   7.147  50.542  1.00  0.00     0.272 C 
HETATM   21  C20 UNL     1      26.305   8.104  50.077  1.00  0.00     0.030 C 
HETATM   22  C21 UNL     1      26.100   8.592  48.667  1.00  0.00     0.003 C 
HETATM   23  C22 UNL     1      25.922   7.373  47.783  1.00  0.00     0.030 C 
HETATM   24  C23 UNL     1      24.665   6.673  48.267  1.00  0.00     0.272 C 
ENDBRANCH  18  19
ENDBRANCH  17  18
ENDBRANCH  16  17
ENDBRANCH  15  16
BRANCH  11  25
HETATM   25  N3  UNL     1      20.284   1.025  51.789  1.00  0.00    -0.314 N 
HETATM   26  C8  UNL     1      20.450   0.514  50.461  1.00  0.00     0.113 C 
HETATM   27  C9  UNL     1      20.208   1.328  49.451  1.00  0.00     0.035 C 
HETATM   28  C10 UNL     1      19.214   2.157  49.595  1.00  0.00     0.152 C 
HETATM   29  F1  UNL     1      18.385   2.504  48.581  1.00  0.00    -0.203 F 
HETATM   30  C11 UNL     1      19.009   2.723  50.916  1.00  0.00     0.089 C 
HETATM   31 CL1  UNL     1      18.063   4.159  51.122  1.00  0.00    -0.080 Cl
HETATM   32  C12 UNL     1      19.518   2.197  52.033  1.00  0.00     0.125 C 
ENDBRANCH  11  25
TORSDOF 5
ENDMDL
MODEL 9
REMARK VINA RESULT:      -7.5      8.806     11.793
REMARK  5 active torsions:
REMARK  status: ('A' for Active; 'I' for Inactive)
REMARK    1  A    between atoms: C7_11  and  N3_12 
REMARK    2  A    between atoms: N4_23  and  C16_24 
REMARK    3  A    between atoms: C16_24  and  C17_25 
REMARK    4  A    between atoms: C17_25  and  C18_26 
REMARK    5  A    between atoms: C18_26  and  N5_27 
ROOT
HETATM    1  O1  UNL     1      35.039   6.126  48.890  1.00  0.00    -0.271 OA
HETATM    2  C1  UNL     1      34.538   7.255  48.596  1.00  0.00     0.248 C 
HETATM    3  C2  UNL     1      35.535   8.273  48.177  1.00  0.00     0.279 C 
HETATM    4  O2  UNL     1      34.865   9.191  47.299  1.00  0.00    -0.340 OA
HETATM    5  C3  UNL     1      33.508   9.399  47.373  1.00  0.00     0.098 A 
HETATM    6  C4  UNL     1      33.023  10.510  46.742  1.00  0.00     0.071 A 
HETATM    7  C5  UNL     1      31.669  10.764  46.793  1.00  0.00     0.075 A 
HETATM    8  N1  UNL     1      31.157  11.856  46.186  1.00  0.00    -0.241 NA
HETATM    9  C6  UNL     1      29.843  12.122  46.228  1.00  0.00     0.236 A 
HETATM   10  N2  UNL     1      28.925  11.326  46.876  1.00  0.00    -0.223 NA
HETATM   11  C7  UNL     1      29.455  10.220  47.492  1.00  0.00     0.147 A 
HETATM   12  C13 UNL     1      30.800   9.928  47.461  1.00  0.00     0.042 A 
HETATM   13  C14 UNL     1      31.235   8.781  48.121  1.00  0.00     0.050 A 
HETATM   14  C15 UNL     1      32.618   8.579  48.034  1.00  0.00     0.071 A 
HETATM   15  N4  UNL     1      33.104   7.436  48.694  1.00  0.00    -0.314 N 
ENDROOT
BRANCH  15  16
HETATM   16  C16 UNL     1      32.399   6.447  49.446  1.00  0.00     0.134 C 
BRANCH  16  17
HETATM   17  C17 UNL     1      32.369   5.149  48.701  1.00  0.00     0.050 C 
BRANCH  17  18
HETATM   18  C18 UNL     1      31.773   5.249  47.311  1.00  0.00     0.274 C 
BRANCH  18  19
HETATM   19  N5  UNL     1      32.618   4.568  46.343  1.00  0.00     0.088 N 
HETATM   20  C19 UNL     1      33.513   3.700  47.076  1.00  0.00     0.272 C 
HETATM   21  C20 UNL     1      34.505   3.015  46.163  1.00  0.00     0.030 C 
HETATM   22  C21 UNL     1      35.186   3.959  45.207  1.00  0.00     0.003 C 
HETATM   23  C22 UNL     1      34.103   4.735  44.483  1.00  0.00     0.030 C 
HETATM   24  C23 UNL     1      33.365   5.531  45.544  1.00  0.00     0.272 C 
ENDBRANCH  18  19
ENDBRANCH  17  18
ENDBRANCH  16  17
ENDBRANCH  15  16
BRANCH  11  25
HETATM   25  N3  UNL     1      28.533   9.376  48.193  1.00  0.00    -0.314 N 
HETATM   26  C8  UNL     1      27.984  10.055  49.329  1.00  0.00     0.113 C 
HETATM   27  C9  UNL     1      27.427   9.325  50.276  1.00  0.00     0.035 C 
HETATM   28  C10 UNL     1      26.753   8.280  49.886  1.00  0.00     0.152 C 
HETATM   29  F1  UNL     1      25.611   7.869  50.488  1.00  0.00    -0.203 F 
HETATM   30  C11 UNL     1      27.272   7.540  48.751  1.00  0.00     0.089 C 
HETATM   31 CL1  UNL     1      26.760   5.914  48.450  1.00  0.00    -0.080 Cl
HETATM   32  C12 UNL     1      28.156   8.041  47.884  1.00  0.00     0.125 C 
ENDBRANCH  11  25
TORSDOF 5
ENDMDL
