MODEL 1
REMARK VINA RESULT:      -8.6      0.000      0.000
REMARK  3 active torsions:
REMARK  status: ('A' for Active; 'I' for Inactive)
REMARK    1  A    between atoms: C2_2  and  O1_3 
REMARK    2  A    between atoms: N3_13  and  C10_14 
REMARK    3  A    between atoms: C16_21  and  O2_22 
ROOT
HETATM    1  O1  UNL     1      27.433  -0.029  52.964  1.00  0.00     0.000 OA
HETATM    2  C3  UNL     1      26.132  -0.220  53.360  1.00  0.00    -0.067 A 
HETATM    3  C4  UNL     1      26.102   0.754  52.505  1.00  0.00     0.050 A 
HETATM    4  C5  UNL     1      26.759   1.648  51.599  1.00  0.00     0.002 C 
HETATM    5  C6  UNL     1      26.581   2.621  50.774  1.00  0.00     0.112 C 
HETATM    6  N1  UNL     1      25.713   3.525  50.140  1.00  0.00    -0.276 NA
HETATM    7  C7  UNL     1      24.665   3.940  50.726  1.00  0.00     0.111 C 
HETATM    8  C8  UNL     1      23.814   3.889  51.973  1.00  0.00     0.197 C 
HETATM    9  N2  UNL     1      22.833   2.870  51.832  1.00  0.00    -0.279 NA
HETATM   10  C9  UNL     1      22.391   2.027  52.603  1.00  0.00     0.211 C 
HETATM   11  N3  UNL     1      21.596   0.954  53.019  1.00  0.00    -0.287 N 
HETATM   12  C16 UNL     1      21.567  -0.080  53.978  1.00  0.00     0.144 C 
HETATM   13  C17 UNL     1      22.642  -0.768  54.433  1.00  0.00     0.035 C 
HETATM   14  C18 UNL     1      23.853  -0.225  53.741  1.00  0.00     0.057 C 
HETATM   15  C19 UNL     1      25.040  -0.803  54.064  1.00  0.00     0.010 C 
ENDROOT
BRANCH  11  16
HETATM   16  C10 UNL     1      20.639   1.212  52.014  1.00  0.00     0.044 A 
HETATM   17  C11 UNL     1      20.586   0.569  50.789  1.00  0.00     0.030 A 
HETATM   18  C12 UNL     1      19.603   0.909  49.839  1.00  0.00     0.004 A 
HETATM   19  C13 UNL     1      18.656   1.898  50.101  1.00  0.00     0.024 A 
HETATM   20  C14 UNL     1      18.658   2.577  51.311  1.00  0.00     0.036 A 
HETATM   21 CL1  UNL     1      17.575   3.829  51.826  1.00  0.00    -0.084 Cl
HETATM   22  C15 UNL     1      19.657   2.197  52.216  1.00  0.00     0.054 A 
ENDBRANCH  11  16
BRANCH  12  23
HETATM   23  O2  UNL     1      20.199  -0.156  54.274  1.00  0.00    -0.346 OA
HETATM   24  H15 UNL     1      19.823   0.627  54.816  1.00  0.00     0.219 HD
ENDBRANCH  12  23
BRANCH   1  25
HETATM   25  C2  UNL     1      28.490  -0.778  53.501  1.00  0.00    -0.030 C 
HETATM   26  C1  UNL     1      29.795  -0.688  53.498  1.00  0.00     0.030 C 
ENDBRANCH   1  25
TORSDOF 3
ENDMDL
MODEL 2
REMARK VINA RESULT:      -8.1      2.719      6.226
REMARK  3 active torsions:
REMARK  status: ('A' for Active; 'I' for Inactive)
REMARK    1  A    between atoms: C2_2  and  O1_3 
REMARK    2  A    between atoms: N3_13  and  C10_14 
REMARK    3  A    between atoms: C16_21  and  O2_22 
ROOT
HETATM    1  O1  UNL     1      21.019   0.054  52.751  1.00  0.00     0.000 OA
HETATM    2  C3  UNL     1      22.309   0.514  52.660  1.00  0.00    -0.067 A 
HETATM    3  C4  UNL     1      21.669   1.058  51.672  1.00  0.00     0.050 A 
HETATM    4  C5  UNL     1      20.470   1.261  50.915  1.00  0.00     0.002 C 
HETATM    5  C6  UNL     1      19.965   1.866  49.896  1.00  0.00     0.112 C 
HETATM    6  N1  UNL     1      20.129   2.725  48.797  1.00  0.00    -0.276 NA
HETATM    7  C7  UNL     1      21.238   2.789  48.180  1.00  0.00     0.111 C 
HETATM    8  C8  UNL     1      22.659   2.286  48.087  1.00  0.00     0.197 C 
HETATM    9  N2  UNL     1      23.507   3.129  48.854  1.00  0.00    -0.279 NA
HETATM   10  C9  UNL     1      24.448   2.902  49.605  1.00  0.00     0.211 C 
HETATM   11  N3  UNL     1      25.492   3.201  50.488  1.00  0.00    -0.287 N 
HETATM   12  C16 UNL     1      26.249   2.618  51.525  1.00  0.00     0.144 C 
HETATM   13  C17 UNL     1      25.783   1.747  52.452  1.00  0.00     0.035 C 
HETATM   14  C18 UNL     1      24.330   1.519  52.169  1.00  0.00     0.057 C 
HETATM   15  C19 UNL     1      23.681   0.672  53.011  1.00  0.00     0.010 C 
ENDROOT
BRANCH  11  16
HETATM   16  C10 UNL     1      25.605   4.515  49.983  1.00  0.00     0.044 A 
HETATM   17  C11 UNL     1      26.487   4.908  48.991  1.00  0.00     0.030 A 
HETATM   18  C12 UNL     1      26.540   6.249  48.565  1.00  0.00     0.004 A 
HETATM   19  C13 UNL     1      25.711   7.220  49.125  1.00  0.00     0.024 A 
HETATM   20  C14 UNL     1      24.806   6.887  50.123  1.00  0.00     0.036 A 
HETATM   21 CL1  UNL     1      23.696   7.937  50.942  1.00  0.00    -0.084 Cl
HETATM   22  C15 UNL     1      24.797   5.539  50.506  1.00  0.00     0.054 A 
ENDBRANCH  11  16
BRANCH  12  23
HETATM   23  O2  UNL     1      27.515   3.178  51.303  1.00  0.00    -0.346 OA
HETATM   24  H15 UNL     1      28.309   2.588  51.566  1.00  0.00     0.219 HD
ENDBRANCH  12  23
BRANCH   1  25
HETATM   25  C2  UNL     1      20.625  -0.861  53.738  1.00  0.00    -0.030 C 
HETATM   26  C1  UNL     1      21.240  -1.677  54.556  1.00  0.00     0.030 C 
ENDBRANCH   1  25
TORSDOF 3
ENDMDL
MODEL 3
REMARK VINA RESULT:      -8.0      3.065      6.604
REMARK  3 active torsions:
REMARK  status: ('A' for Active; 'I' for Inactive)
REMARK    1  A    between atoms: C2_2  and  O1_3 
REMARK    2  A    between atoms: N3_13  and  C10_14 
REMARK    3  A    between atoms: C16_21  and  O2_22 
ROOT
HETATM    1  O1  UNL     1      18.442  -0.636  52.599  1.00  0.00     0.000 OA
HETATM    2  C3  UNL     1      19.778  -0.402  52.808  1.00  0.00    -0.067 A 
HETATM    3  C4  UNL     1      19.453   0.306  51.772  1.00  0.00     0.050 A 
HETATM    4  C5  UNL     1      18.487   0.761  50.818  1.00  0.00     0.002 C 
HETATM    5  C6  UNL     1      18.308   1.507  49.782  1.00  0.00     0.112 C 
HETATM    6  N1  UNL     1      18.831   2.393  48.826  1.00  0.00    -0.276 NA
HETATM    7  C7  UNL     1      20.041   2.302  48.448  1.00  0.00     0.111 C 
HETATM    8  C8  UNL     1      21.353   1.567  48.587  1.00  0.00     0.197 C 
HETATM    9  N2  UNL     1      22.143   2.201  49.584  1.00  0.00    -0.279 NA
HETATM   10  C9  UNL     1      22.858   1.767  50.480  1.00  0.00     0.211 C 
HETATM   11  N3  UNL     1      23.727   1.824  51.575  1.00  0.00    -0.287 N 
HETATM   12  C16 UNL     1      24.148   1.055  52.679  1.00  0.00     0.144 C 
HETATM   13  C17 UNL     1      23.367   0.221  53.408  1.00  0.00     0.035 C 
HETATM   14  C18 UNL     1      21.989   0.266  52.824  1.00  0.00     0.057 C 
HETATM   15  C19 UNL     1      21.053  -0.506  53.435  1.00  0.00     0.010 C 
ENDROOT
BRANCH  11  16
HETATM   16  C10 UNL     1      24.148   3.128  51.233  1.00  0.00     0.044 A 
HETATM   17  C11 UNL     1      23.555   4.294  51.685  1.00  0.00     0.030 A 
HETATM   18  C12 UNL     1      24.035   5.553  51.273  1.00  0.00     0.004 A 
HETATM   19  C13 UNL     1      25.118   5.664  50.402  1.00  0.00     0.024 A 
HETATM   20  C14 UNL     1      25.754   4.530  49.916  1.00  0.00     0.036 A 
HETATM   21 CL1  UNL     1      27.106   4.455  48.833  1.00  0.00    -0.084 Cl
HETATM   22  C15 UNL     1      25.233   3.308  50.359  1.00  0.00     0.054 A 
ENDBRANCH  11  16
BRANCH  12  23
HETATM   23  O2  UNL     1      25.505   1.400  52.766  1.00  0.00    -0.346 OA
HETATM   24  H15 UNL     1      25.714   2.212  53.353  1.00  0.00     0.219 HD
ENDBRANCH  12  23
BRANCH   1  25
HETATM   25  C2  UNL     1      17.711  -1.530  53.396  1.00  0.00    -0.030 C 
HETATM   26  C1  UNL     1      17.818  -2.792  53.723  1.00  0.00     0.030 C 
ENDBRANCH   1  25
TORSDOF 3
ENDMDL
MODEL 4
REMARK VINA RESULT:      -7.8      2.501      4.254
REMARK  3 active torsions:
REMARK  status: ('A' for Active; 'I' for Inactive)
REMARK    1  A    between atoms: C2_2  and  O1_3 
REMARK    2  A    between atoms: N3_13  and  C10_14 
REMARK    3  A    between atoms: C16_21  and  O2_22 
ROOT
HETATM    1  O1  UNL     1      26.643   4.700  49.127  1.00  0.00     0.000 OA
HETATM    2  C3  UNL     1      26.401   3.638  49.964  1.00  0.00    -0.067 A 
HETATM    3  C4  UNL     1      25.309   4.336  49.952  1.00  0.00     0.050 A 
HETATM    4  C5  UNL     1      24.543   5.460  49.504  1.00  0.00     0.002 C 
HETATM    5  C6  UNL     1      23.402   6.052  49.590  1.00  0.00     0.112 C 
HETATM    6  N1  UNL     1      22.105   6.103  50.124  1.00  0.00    -0.276 NA
HETATM    7  C7  UNL     1      21.859   5.644  51.283  1.00  0.00     0.111 C 
HETATM    8  C8  UNL     1      22.415   4.972  52.516  1.00  0.00     0.197 C 
HETATM    9  N2  UNL     1      22.288   3.563  52.381  1.00  0.00    -0.279 NA
HETATM   10  C9  UNL     1      23.033   2.629  52.656  1.00  0.00     0.211 C 
HETATM   11  N3  UNL     1      23.440   1.295  52.759  1.00  0.00    -0.287 N 
HETATM   12  C16 UNL     1      24.610   0.511  52.836  1.00  0.00     0.144 C 
HETATM   13  C17 UNL     1      25.777   0.764  52.195  1.00  0.00     0.035 C 
HETATM   14  C18 UNL     1      25.595   2.022  51.404  1.00  0.00     0.057 C 
HETATM   15  C19 UNL     1      26.667   2.434  50.678  1.00  0.00     0.010 C 
ENDROOT
BRANCH  11  16
HETATM   16  C10 UNL     1      22.106   0.837  52.744  1.00  0.00     0.044 A 
HETATM   17  C11 UNL     1      21.445   0.287  53.830  1.00  0.00     0.030 A 
HETATM   18  C12 UNL     1      20.115  -0.160  53.714  1.00  0.00     0.004 A 
HETATM   19  C13 UNL     1      19.423  -0.064  52.507  1.00  0.00     0.024 A 
HETATM   20  C14 UNL     1      20.031   0.478  51.384  1.00  0.00     0.036 A 
HETATM   21 CL1  UNL     1      19.347   0.684  49.804  1.00  0.00    -0.084 Cl
HETATM   22  C15 UNL     1      21.353   0.905  51.559  1.00  0.00     0.054 A 
ENDBRANCH  11  16
BRANCH  12  23
HETATM   23  O2  UNL     1      24.210  -0.514  53.705  1.00  0.00    -0.346 OA
HETATM   24  H15 UNL     1      23.614  -1.235  53.289  1.00  0.00     0.219 HD
ENDBRANCH  12  23
BRANCH   1  25
HETATM   25  C2  UNL     1      27.890   4.894  48.516  1.00  0.00    -0.030 C 
HETATM   26  C1  UNL     1      28.613   5.930  48.177  1.00  0.00     0.030 C 
ENDBRANCH   1  25
TORSDOF 3
ENDMDL
MODEL 5
REMARK VINA RESULT:      -7.7      3.675      7.222
REMARK  3 active torsions:
REMARK  status: ('A' for Active; 'I' for Inactive)
REMARK    1  A    between atoms: C2_2  and  O1_3 
REMARK    2  A    between atoms: N3_13  and  C10_14 
REMARK    3  A    between atoms: C16_21  and  O2_22 
ROOT
HETATM    1  O1  UNL     1      22.047   5.612  50.444  1.00  0.00     0.000 OA
HETATM    2  C3  UNL     1      22.339   4.463  51.136  1.00  0.00    -0.067 A 
HETATM    3  C4  UNL     1      23.450   4.832  50.578  1.00  0.00     0.050 A 
HETATM    4  C5  UNL     1      24.203   5.736  49.762  1.00  0.00     0.002 C 
HETATM    5  C6  UNL     1      25.368   5.980  49.269  1.00  0.00     0.112 C 
HETATM    6  N1  UNL     1      26.718   5.622  49.124  1.00  0.00    -0.276 NA
HETATM    7  C7  UNL     1      27.072   4.402  49.140  1.00  0.00     0.111 C 
HETATM    8  C8  UNL     1      26.631   2.962  49.264  1.00  0.00     0.197 C 
HETATM    9  N2  UNL     1      26.689   2.569  50.628  1.00  0.00    -0.279 NA
HETATM   10  C9  UNL     1      25.944   1.898  51.334  1.00  0.00     0.211 C 
HETATM   11  N3  UNL     1      25.500   1.267  52.500  1.00  0.00    -0.287 N 
HETATM   12  C16 UNL     1      24.317   0.798  53.108  1.00  0.00     0.144 C 
HETATM   13  C17 UNL     1      23.097   1.381  53.021  1.00  0.00     0.035 C 
HETATM   14  C18 UNL     1      23.238   2.599  52.163  1.00  0.00     0.057 C 
HETATM   15  C19 UNL     1      22.109   3.329  51.967  1.00  0.00     0.010 C 
ENDROOT
BRANCH  11  16
HETATM   16  C10 UNL     1      26.807   1.226  53.032  1.00  0.00     0.044 A 
HETATM   17  C11 UNL     1      27.470   2.309  53.584  1.00  0.00     0.030 A 
HETATM   18  C12 UNL     1      28.784   2.176  54.075  1.00  0.00     0.004 A 
HETATM   19  C13 UNL     1      29.455   0.956  54.021  1.00  0.00     0.024 A 
HETATM   20  C14 UNL     1      28.843  -0.166  53.480  1.00  0.00     0.036 A 
HETATM   21 CL1  UNL     1      29.502  -1.762  53.322  1.00  0.00    -0.084 Cl
HETATM   22  C15 UNL     1      27.538   0.026  53.008  1.00  0.00     0.054 A 
ENDBRANCH  11  16
BRANCH  12  23
HETATM   23  O2  UNL     1      24.772  -0.354  53.767  1.00  0.00    -0.346 OA
HETATM   24  H15 UNL     1      24.291  -0.579  54.641  1.00  0.00     0.219 HD
ENDBRANCH  12  23
BRANCH   1  25
HETATM   25  C2  UNL     1      20.748   6.139  50.394  1.00  0.00    -0.030 C 
HETATM   26  C1  UNL     1      19.665   5.892  49.703  1.00  0.00     0.030 C 
ENDBRANCH   1  25
TORSDOF 3
ENDMDL
MODEL 6
REMARK VINA RESULT:      -7.6      3.163      6.288
REMARK  3 active torsions:
REMARK  status: ('A' for Active; 'I' for Inactive)
REMARK    1  A    between atoms: C2_2  and  O1_3 
REMARK    2  A    between atoms: N3_13  and  C10_14 
REMARK    3  A    between atoms: C16_21  and  O2_22 
ROOT
HETATM    1  O1  UNL     1      22.382   0.130  53.556  1.00  0.00     0.000 OA
HETATM    2  C3  UNL     1      23.435   0.724  52.907  1.00  0.00    -0.067 A 
HETATM    3  C4  UNL     1      22.386   1.413  52.582  1.00  0.00     0.050 A 
HETATM    4  C5  UNL     1      20.978   1.664  52.659  1.00  0.00     0.002 C 
HETATM    5  C6  UNL     1      20.028   2.432  52.252  1.00  0.00     0.112 C 
HETATM    6  N1  UNL     1      19.606   3.531  51.486  1.00  0.00    -0.276 NA
HETATM    7  C7  UNL     1      20.206   3.844  50.411  1.00  0.00     0.111 C 
HETATM    8  C8  UNL     1      21.328   3.518  49.453  1.00  0.00     0.197 C 
HETATM    9  N2  UNL     1      22.491   4.244  49.828  1.00  0.00    -0.279 NA
HETATM   10  C9  UNL     1      23.679   3.946  49.878  1.00  0.00     0.211 C 
HETATM   11  N3  UNL     1      25.045   4.137  50.108  1.00  0.00    -0.287 N 
HETATM   12  C16 UNL     1      26.218   3.410  50.401  1.00  0.00     0.144 C 
HETATM   13  C17 UNL     1      26.292   2.309  51.187  1.00  0.00     0.035 C 
HETATM   14  C18 UNL     1      24.909   2.008  51.676  1.00  0.00     0.057 C 
HETATM   15  C19 UNL     1      24.784   0.933  52.497  1.00  0.00     0.010 C 
ENDROOT
BRANCH  11  16
HETATM   16  C10 UNL     1      24.922   5.535  49.962  1.00  0.00     0.044 A 
HETATM   17  C11 UNL     1      24.695   6.422  51.000  1.00  0.00     0.030 A 
HETATM   18  C12 UNL     1      24.568   7.803  50.753  1.00  0.00     0.004 A 
HETATM   19  C13 UNL     1      24.667   8.319  49.462  1.00  0.00     0.024 A 
HETATM   20  C14 UNL     1      24.895   7.480  48.380  1.00  0.00     0.036 A 
HETATM   21 CL1  UNL     1      25.048   7.920  46.710  1.00  0.00    -0.084 Cl
HETATM   22  C15 UNL     1      25.012   6.118  48.686  1.00  0.00     0.054 A 
ENDBRANCH  11  16
BRANCH  12  23
HETATM   23  O2  UNL     1      27.185   4.129  49.683  1.00  0.00    -0.346 OA
HETATM   24  H15 UNL     1      27.345   5.088  50.001  1.00  0.00     0.219 HD
ENDBRANCH  12  23
BRANCH   1  25
HETATM   25  C2  UNL     1      22.547  -1.021  54.341  1.00  0.00    -0.030 C 
HETATM   26  C1  UNL     1      23.121  -1.299  55.483  1.00  0.00     0.030 C 
ENDBRANCH   1  25
TORSDOF 3
ENDMDL
MODEL 7
REMARK VINA RESULT:      -7.5      3.414      5.622
REMARK  3 active torsions:
REMARK  status: ('A' for Active; 'I' for Inactive)
REMARK    1  A    between atoms: C2_2  and  O1_3 
REMARK    2  A    between atoms: N3_13  and  C10_14 
REMARK    3  A    between atoms: C16_21  and  O2_22 
ROOT
HETATM    1  O1  UNL     1      26.362   6.795  48.102  1.00  0.00     0.000 OA
HETATM    2  C3  UNL     1      26.416   5.630  48.827  1.00  0.00    -0.067 A 
HETATM    3  C4  UNL     1      25.201   6.067  48.948  1.00  0.00     0.050 A 
HETATM    4  C5  UNL     1      24.181   7.032  48.665  1.00  0.00     0.002 C 
HETATM    5  C6  UNL     1      22.950   7.346  48.874  1.00  0.00     0.112 C 
HETATM    6  N1  UNL     1      21.714   7.057  49.476  1.00  0.00    -0.276 NA
HETATM    7  C7  UNL     1      21.659   6.445  50.587  1.00  0.00     0.111 C 
HETATM    8  C8  UNL     1      22.435   5.796  51.709  1.00  0.00     0.197 C 
HETATM    9  N2  UNL     1      22.604   4.414  51.425  1.00  0.00    -0.279 NA
HETATM   10  C9  UNL     1      23.549   3.646  51.558  1.00  0.00     0.211 C 
HETATM   11  N3  UNL     1      24.240   2.431  51.491  1.00  0.00    -0.287 N 
HETATM   12  C16 UNL     1      25.552   1.921  51.422  1.00  0.00     0.144 C 
HETATM   13  C17 UNL     1      26.587   2.486  50.755  1.00  0.00     0.035 C 
HETATM   14  C18 UNL     1      26.083   3.744  50.118  1.00  0.00     0.057 C 
HETATM   15  C19 UNL     1      26.985   4.451  49.389  1.00  0.00     0.010 C 
ENDROOT
BRANCH  11  16
HETATM   16  C10 UNL     1      23.036   1.693  51.494  1.00  0.00     0.044 A 
HETATM   17  C11 UNL     1      22.356   1.286  50.358  1.00  0.00     0.030 A 
HETATM   18  C12 UNL     1      21.149   0.567  50.461  1.00  0.00     0.004 A 
HETATM   19  C13 UNL     1      20.604   0.243  51.702  1.00  0.00     0.024 A 
HETATM   20  C14 UNL     1      21.240   0.622  52.876  1.00  0.00     0.036 A 
HETATM   21 CL1  UNL     1      20.729   0.319  54.505  1.00  0.00    -0.084 Cl
HETATM   22  C15 UNL     1      22.435   1.334  52.712  1.00  0.00     0.054 A 
ENDBRANCH  11  16
BRANCH  12  23
HETATM   23  O2  UNL     1      25.446   0.753  52.192  1.00  0.00    -0.346 OA
HETATM   24  H15 UNL     1      24.555   0.255  52.113  1.00  0.00     0.219 HD
ENDBRANCH  12  23
BRANCH   1  25
HETATM   25  C2  UNL     1      27.490   7.318  47.453  1.00  0.00    -0.030 C 
HETATM   26  C1  UNL     1      28.591   7.916  47.829  1.00  0.00     0.030 C 
ENDBRANCH   1  25
TORSDOF 3
ENDMDL
MODEL 8
REMARK VINA RESULT:      -7.3      2.812      4.969
REMARK  3 active torsions:
REMARK  status: ('A' for Active; 'I' for Inactive)
REMARK    1  A    between atoms: C2_2  and  O1_3 
REMARK    2  A    between atoms: N3_13  and  C10_14 
REMARK    3  A    between atoms: C16_21  and  O2_22 
ROOT
HETATM    1  O1  UNL     1      26.159  -0.024  53.196  1.00  0.00     0.000 OA
HETATM    2  C3  UNL     1      26.222   1.027  52.315  1.00  0.00    -0.067 A 
HETATM    3  C4  UNL     1      24.960   0.782  52.484  1.00  0.00     0.050 A 
HETATM    4  C5  UNL     1      23.897   0.033  53.084  1.00  0.00     0.002 C 
HETATM    5  C6  UNL     1      22.618  -0.099  53.154  1.00  0.00     0.112 C 
HETATM    6  N1  UNL     1      21.337   0.317  52.756  1.00  0.00    -0.276 NA
HETATM    7  C7  UNL     1      21.140   0.801  51.598  1.00  0.00     0.111 C 
HETATM    8  C8  UNL     1      21.752   1.185  50.272  1.00  0.00     0.197 C 
HETATM    9  N2  UNL     1      22.162   2.545  50.320  1.00  0.00    -0.279 NA
HETATM   10  C9  UNL     1      23.157   3.130  49.907  1.00  0.00     0.211 C 
HETATM   11  N3  UNL     1      24.006   4.216  49.671  1.00  0.00    -0.287 N 
HETATM   12  C16 UNL     1      25.363   4.512  49.424  1.00  0.00     0.144 C 
HETATM   13  C17 UNL     1      26.425   3.864  49.962  1.00  0.00     0.035 C 
HETATM   14  C18 UNL     1      25.894   2.785  50.853  1.00  0.00     0.057 C 
HETATM   15  C19 UNL     1      26.820   2.027  51.496  1.00  0.00     0.010 C 
ENDROOT
BRANCH  11  16
HETATM   16  C10 UNL     1      22.941   5.135  49.787  1.00  0.00     0.044 A 
HETATM   17  C11 UNL     1      22.710   5.946  50.885  1.00  0.00     0.030 A 
HETATM   18  C12 UNL     1      21.606   6.820  50.917  1.00  0.00     0.004 A 
HETATM   19  C13 UNL     1      20.715   6.897  49.848  1.00  0.00     0.024 A 
HETATM   20  C14 UNL     1      20.893   6.110  48.719  1.00  0.00     0.036 A 
HETATM   21 CL1  UNL     1      19.904   6.058  47.295  1.00  0.00    -0.084 Cl
HETATM   22  C15 UNL     1      22.006   5.261  48.744  1.00  0.00     0.054 A 
ENDBRANCH  11  16
BRANCH  12  23
HETATM   23  O2  UNL     1      25.262   5.587  48.529  1.00  0.00    -0.346 OA
HETATM   24  H15 UNL     1      24.417   5.600  47.952  1.00  0.00     0.219 HD
ENDBRANCH  12  23
BRANCH   1  25
HETATM   25  C2  UNL     1      27.313  -0.647  53.693  1.00  0.00    -0.030 C 
HETATM   26  C1  UNL     1      28.556  -0.761  53.301  1.00  0.00     0.030 C 
ENDBRANCH   1  25
TORSDOF 3
ENDMDL
MODEL 9
REMARK VINA RESULT:      -7.3      2.744      3.510
REMARK  3 active torsions:
REMARK  status: ('A' for Active; 'I' for Inactive)
REMARK    1  A    between atoms: C2_2  and  O1_3 
REMARK    2  A    between atoms: N3_13  and  C10_14 
REMARK    3  A    between atoms: C16_21  and  O2_22 
ROOT
HETATM    1  O1  UNL     1      26.289   1.017  51.717  1.00  0.00     0.000 OA
HETATM    2  C3  UNL     1      24.968   1.304  51.955  1.00  0.00    -0.067 A 
HETATM    3  C4  UNL     1      25.400   2.245  51.175  1.00  0.00     0.050 A 
HETATM    4  C5  UNL     1      26.444   2.861  50.412  1.00  0.00     0.002 C 
HETATM    5  C6  UNL     1      26.735   3.855  49.646  1.00  0.00     0.112 C 
HETATM    6  N1  UNL     1      26.338   5.031  48.989  1.00  0.00    -0.276 NA
HETATM    7  C7  UNL     1      25.444   5.784  49.486  1.00  0.00     0.111 C 
HETATM    8  C8  UNL     1      24.480   6.013  50.627  1.00  0.00     0.197 C 
HETATM    9  N2  UNL     1      23.226   5.428  50.306  1.00  0.00    -0.279 NA
HETATM   10  C9  UNL     1      22.415   4.784  50.962  1.00  0.00     0.211 C 
HETATM   11  N3  UNL     1      21.241   4.065  51.210  1.00  0.00    -0.287 N 
HETATM   12  C16 UNL     1      20.720   3.087  52.082  1.00  0.00     0.144 C 
HETATM   13  C17 UNL     1      21.409   2.042  52.601  1.00  0.00     0.035 C 
HETATM   14  C18 UNL     1      22.812   2.123  52.085  1.00  0.00     0.057 C 
HETATM   15  C19 UNL     1      23.659   1.141  52.493  1.00  0.00     0.010 C 
ENDROOT
BRANCH  11  16
HETATM   16  C10 UNL     1      20.578   4.684  50.128  1.00  0.00     0.044 A 
HETATM   17  C11 UNL     1      20.138   5.996  50.116  1.00  0.00     0.030 A 
HETATM   18  C12 UNL     1      19.467   6.521  48.994  1.00  0.00     0.004 A 
HETATM   19  C13 UNL     1      19.227   5.740  47.865  1.00  0.00     0.024 A 
HETATM   20  C14 UNL     1      19.644   4.417  47.817  1.00  0.00     0.036 A 
HETATM   21 CL1  UNL     1      19.443   3.288  46.517  1.00  0.00    -0.084 Cl
HETATM   22  C15 UNL     1      20.305   3.950  48.961  1.00  0.00     0.054 A 
ENDBRANCH  11  16
BRANCH  12  23
HETATM   23  O2  UNL     1      19.390   3.509  52.223  1.00  0.00    -0.346 OA
HETATM   24  H15 UNL     1      18.682   2.844  51.900  1.00  0.00     0.219 HD
ENDBRANCH  12  23
BRANCH   1  25
HETATM   25  C2  UNL     1      26.929  -0.082  52.310  1.00  0.00    -0.030 C 
HETATM   26  C1  UNL     1      26.587  -1.306  52.622  1.00  0.00     0.030 C 
ENDBRANCH   1  25
TORSDOF 3
ENDMDL
