MODEL 1
REMARK VINA RESULT:      -7.2      0.000      0.000
REMARK  7 active torsions:
REMARK  status: ('A' for Active; 'I' for Inactive)
REMARK    1  A    between atoms: C2_2  and  C4_4 
REMARK    2  A    between atoms: C4_4  and  C5_5 
REMARK    3  A    between atoms: C5_5  and  N1_6 
REMARK    4  A    between atoms: C7_8  and  O1_9 
REMARK    5  A    between atoms: O1_9  and  C8_10 
REMARK    6  A    between atoms: C8_10  and  C9_11 
REMARK    7  A    between atoms: C15_17  and  O2_18 
ROOT
HETATM    1  C5  UNL     1      21.926   0.616  52.684  1.00  0.00     0.179 A 
HETATM    2  C6  UNL     1      23.245   0.012  53.007  1.00  0.00     0.053 A 
HETATM    3  C7  UNL     1      23.848  -0.752  53.934  1.00  0.00     0.100 A 
HETATM    4  C15 UNL     1      22.864  -1.107  54.982  1.00  0.00     0.095 A 
HETATM    5  C16 UNL     1      21.665  -0.604  54.761  1.00  0.00     0.015 A 
HETATM    6  C17 UNL     1      20.979   0.233  53.754  1.00  0.00     0.075 A 
ENDROOT
BRANCH   3   7
HETATM    7  O1  UNL     1      25.130  -1.216  54.052  1.00  0.00    -0.344 OA
BRANCH   7   8
HETATM    8  C8  UNL     1      26.075  -1.054  52.992  1.00  0.00     0.214 C 
BRANCH   8   9
HETATM    9  C9  UNL     1      27.032   0.044  53.266  1.00  0.00    -0.034 A 
HETATM   10  C10 UNL     1      28.080   0.011  54.165  1.00  0.00     0.009 A 
HETATM   11  C11 UNL     1      28.906   1.112  54.328  1.00  0.00     0.001 A 
HETATM   12  C12 UNL     1      28.730   2.276  53.619  1.00  0.00     0.000 A 
HETATM   13  C13 UNL     1      27.682   2.345  52.704  1.00  0.00     0.001 A 
HETATM   14  C14 UNL     1      26.870   1.237  52.555  1.00  0.00     0.009 A 
ENDBRANCH   8   9
ENDBRANCH   7   8
ENDBRANCH   3   7
BRANCH   4  15
HETATM   15  O2  UNL     1      23.144  -1.886  56.092  1.00  0.00    -0.358 OA
HETATM   16  H20 UNL     1      24.055  -2.370  56.066  1.00  0.00     0.217 HD
ENDBRANCH   4  15
BRANCH   1  17
HETATM   17  C4  UNL     1      22.133   2.083  52.513  1.00  0.00     0.049 C 
BRANCH  17  18
HETATM   18  C2  UNL     1      23.497   2.542  52.231  1.00  0.00    -0.020 C 
HETATM   19  C1  UNL     1      24.024   3.656  53.054  1.00  0.00     0.009 C 
HETATM   20  C3  UNL     1      23.527   3.013  50.780  1.00  0.00     0.009 C 
ENDBRANCH  17  18
ENDBRANCH   1  17
BRANCH   1  21
HETATM   21  N1  UNL     1      21.561   0.033  51.381  1.00  0.00     0.092 N 
HETATM   22  H10 UNL     1      21.589  -0.992  51.370  1.00  0.00     0.314 HD
HETATM   23  H11 UNL     1      22.203   0.378  50.634  1.00  0.00     0.314 HD
ENDBRANCH   1  21
TORSDOF 7
ENDMDL
MODEL 2
REMARK VINA RESULT:      -7.1      2.644      4.729
REMARK  7 active torsions:
REMARK  status: ('A' for Active; 'I' for Inactive)
REMARK    1  A    between atoms: C2_2  and  C4_4 
REMARK    2  A    between atoms: C4_4  and  C5_5 
REMARK    3  A    between atoms: C5_5  and  N1_6 
REMARK    4  A    between atoms: C7_8  and  O1_9 
REMARK    5  A    between atoms: O1_9  and  C8_10 
REMARK    6  A    between atoms: C8_10  and  C9_11 
REMARK    7  A    between atoms: C15_17  and  O2_18 
ROOT
HETATM    1  C5  UNL     1      23.756   2.691  51.252  1.00  0.00     0.179 A 
HETATM    2  C6  UNL     1      25.167   2.541  51.692  1.00  0.00     0.053 A 
HETATM    3  C7  UNL     1      26.420   2.857  51.320  1.00  0.00     0.100 A 
HETATM    4  C15 UNL     1      26.370   3.605  50.043  1.00  0.00     0.095 A 
HETATM    5  C16 UNL     1      25.144   3.778  49.589  1.00  0.00     0.015 A 
HETATM    6  C17 UNL     1      23.757   3.444  49.977  1.00  0.00     0.075 A 
ENDROOT
BRANCH   3   7
HETATM    7  O1  UNL     1      27.639   2.614  51.892  1.00  0.00    -0.344 OA
BRANCH   7   8
HETATM    8  C8  UNL     1      27.741   2.081  53.215  1.00  0.00     0.214 C 
BRANCH   8   9
HETATM    9  C9  UNL     1      28.133   0.652  53.206  1.00  0.00    -0.034 A 
HETATM   10  C10 UNL     1      27.335  -0.414  52.838  1.00  0.00     0.009 A 
HETATM   11  C11 UNL     1      27.825  -1.710  52.876  1.00  0.00     0.001 A 
HETATM   12  C12 UNL     1      29.108  -2.001  53.274  1.00  0.00     0.000 A 
HETATM   13  C13 UNL     1      29.941  -0.950  53.652  1.00  0.00     0.001 A 
HETATM   14  C14 UNL     1      29.434   0.335  53.608  1.00  0.00     0.009 A 
ENDBRANCH   8   9
ENDBRANCH   7   8
ENDBRANCH   3   7
BRANCH   4  15
HETATM   15  O2  UNL     1      27.480   4.086  49.369  1.00  0.00    -0.358 OA
HETATM   16  H20 UNL     1      27.890   4.947  49.765  1.00  0.00     0.217 HD
ENDBRANCH   4  15
BRANCH   1  17
HETATM   17  C4  UNL     1      23.159   1.327  51.183  1.00  0.00     0.049 C 
BRANCH  17  18
HETATM   18  C2  UNL     1      22.552   0.794  52.407  1.00  0.00    -0.020 C 
HETATM   19  C1  UNL     1      23.315  -0.234  53.153  1.00  0.00     0.009 C 
HETATM   20  C3  UNL     1      21.220   0.161  52.017  1.00  0.00     0.009 C 
ENDBRANCH  17  18
ENDBRANCH   1  17
BRANCH   1  21
HETATM   21  N1  UNL     1      23.106   3.441  52.341  1.00  0.00     0.092 N 
HETATM   22  H10 UNL     1      22.095   3.550  52.216  1.00  0.00     0.314 HD
HETATM   23  H11 UNL     1      23.523   4.393  52.428  1.00  0.00     0.314 HD
ENDBRANCH   1  21
TORSDOF 7
ENDMDL
MODEL 3
REMARK VINA RESULT:      -7.0      3.143      5.557
REMARK  7 active torsions:
REMARK  status: ('A' for Active; 'I' for Inactive)
REMARK    1  A    between atoms: C2_2  and  C4_4 
REMARK    2  A    between atoms: C4_4  and  C5_5 
REMARK    3  A    between atoms: C5_5  and  N1_6 
REMARK    4  A    between atoms: C7_8  and  O1_9 
REMARK    5  A    between atoms: O1_9  and  C8_10 
REMARK    6  A    between atoms: C8_10  and  C9_11 
REMARK    7  A    between atoms: C15_17  and  O2_18 
ROOT
HETATM    1  C5  UNL     1      26.578   0.300  53.680  1.00  0.00     0.179 A 
HETATM    2  C6  UNL     1      26.005   1.440  52.918  1.00  0.00     0.053 A 
HETATM    3  C7  UNL     1      24.846   1.871  52.391  1.00  0.00     0.100 A 
HETATM    4  C15 UNL     1      23.790   0.868  52.662  1.00  0.00     0.095 A 
HETATM    5  C16 UNL     1      24.227  -0.177  53.338  1.00  0.00     0.015 A 
HETATM    6  C17 UNL     1      25.489  -0.671  53.928  1.00  0.00     0.075 A 
ENDROOT
BRANCH   3   7
HETATM    7  O1  UNL     1      24.515   3.002  51.695  1.00  0.00    -0.344 OA
BRANCH   7   8
HETATM    8  C8  UNL     1      24.441   2.997  50.268  1.00  0.00     0.214 C 
BRANCH   8   9
HETATM    9  C9  UNL     1      25.394   3.955  49.661  1.00  0.00    -0.034 A 
HETATM   10  C10 UNL     1      26.722   3.713  49.368  1.00  0.00     0.009 A 
HETATM   11  C11 UNL     1      27.511   4.701  48.798  1.00  0.00     0.001 A 
HETATM   12  C12 UNL     1      27.025   5.950  48.499  1.00  0.00     0.000 A 
HETATM   13  C13 UNL     1      25.690   6.229  48.782  1.00  0.00     0.001 A 
HETATM   14  C14 UNL     1      24.919   5.233  49.350  1.00  0.00     0.009 A 
ENDBRANCH   8   9
ENDBRANCH   7   8
ENDBRANCH   3   7
BRANCH   4  15
HETATM   15  O2  UNL     1      22.471   0.987  52.260  1.00  0.00    -0.358 OA
HETATM   16  H20 UNL     1      21.827   1.349  52.981  1.00  0.00     0.217 HD
ENDBRANCH   4  15
BRANCH   1  17
HETATM   17  C4  UNL     1      27.734  -0.227  52.899  1.00  0.00     0.049 C 
BRANCH  17  18
HETATM   18  C2  UNL     1      28.809  -0.885  53.647  1.00  0.00    -0.020 C 
HETATM   19  C1  UNL     1      30.167  -0.301  53.543  1.00  0.00     0.009 C 
HETATM   20  C3  UNL     1      28.905  -2.321  53.139  1.00  0.00     0.009 C 
ENDBRANCH  17  18
ENDBRANCH   1  17
BRANCH   1  21
HETATM   21  N1  UNL     1      27.082   0.904  54.926  1.00  0.00     0.092 N 
HETATM   22  H10 UNL     1      27.997   1.355  54.821  1.00  0.00     0.314 HD
HETATM   23  H11 UNL     1      27.166   0.180  55.674  1.00  0.00     0.314 HD
ENDBRANCH   1  21
TORSDOF 7
ENDMDL
MODEL 4
REMARK VINA RESULT:      -6.8      2.188      5.453
REMARK  7 active torsions:
REMARK  status: ('A' for Active; 'I' for Inactive)
REMARK    1  A    between atoms: C2_2  and  C4_4 
REMARK    2  A    between atoms: C4_4  and  C5_5 
REMARK    3  A    between atoms: C5_5  and  N1_6 
REMARK    4  A    between atoms: C7_8  and  O1_9 
REMARK    5  A    between atoms: O1_9  and  C8_10 
REMARK    6  A    between atoms: C8_10  and  C9_11 
REMARK    7  A    between atoms: C15_17  and  O2_18 
ROOT
HETATM    1  C5  UNL     1      26.316   0.508  54.076  1.00  0.00     0.179 A 
HETATM    2  C6  UNL     1      24.991   0.187  53.484  1.00  0.00     0.053 A 
HETATM    3  C7  UNL     1      23.852  -0.473  53.759  1.00  0.00     0.100 A 
HETATM    4  C15 UNL     1      23.962  -1.083  55.104  1.00  0.00     0.095 A 
HETATM    5  C16 UNL     1      25.116  -0.840  55.694  1.00  0.00     0.015 A 
HETATM    6  C17 UNL     1      26.377  -0.120  55.415  1.00  0.00     0.075 A 
ENDROOT
BRANCH   3   7
HETATM    7  O1  UNL     1      22.699  -0.656  53.046  1.00  0.00    -0.344 OA
BRANCH   7   8
HETATM    8  C8  UNL     1      21.808   0.433  52.791  1.00  0.00     0.214 C 
BRANCH   8   9
HETATM    9  C9  UNL     1      21.908   0.913  51.392  1.00  0.00    -0.034 A 
HETATM   10  C10 UNL     1      21.163   0.464  50.318  1.00  0.00     0.009 A 
HETATM   11  C11 UNL     1      21.356   0.999  49.054  1.00  0.00     0.001 A 
HETATM   12  C12 UNL     1      22.279   1.984  48.803  1.00  0.00     0.000 A 
HETATM   13  C13 UNL     1      23.048   2.460  49.863  1.00  0.00     0.001 A 
HETATM   14  C14 UNL     1      22.843   1.915  51.116  1.00  0.00     0.009 A 
ENDBRANCH   8   9
ENDBRANCH   7   8
ENDBRANCH   3   7
BRANCH   4  15
HETATM   15  O2  UNL     1      22.971  -1.839  55.708  1.00  0.00    -0.358 OA
HETATM   16  H20 UNL     1      22.896  -1.721  56.731  1.00  0.00     0.217 HD
ENDBRANCH   4  15
BRANCH   1  17
HETATM   17  C4  UNL     1      27.360   0.054  53.113  1.00  0.00     0.049 C 
BRANCH  17  18
HETATM   18  C2  UNL     1      28.150  -1.125  53.482  1.00  0.00    -0.020 C 
HETATM   19  C1  UNL     1      29.618  -1.046  53.298  1.00  0.00     0.009 C 
HETATM   20  C3  UNL     1      27.658  -2.288  52.625  1.00  0.00     0.009 C 
ENDBRANCH  17  18
ENDBRANCH   1  17
BRANCH   1  21
HETATM   21  N1  UNL     1      26.343   1.979  54.147  1.00  0.00     0.092 N 
HETATM   22  H10 UNL     1      26.136   2.347  55.082  1.00  0.00     0.314 HD
HETATM   23  H11 UNL     1      25.651   2.389  53.482  1.00  0.00     0.314 HD
ENDBRANCH   1  21
TORSDOF 7
ENDMDL
MODEL 5
REMARK VINA RESULT:      -6.7      3.976      6.056
REMARK  7 active torsions:
REMARK  status: ('A' for Active; 'I' for Inactive)
REMARK    1  A    between atoms: C2_2  and  C4_4 
REMARK    2  A    between atoms: C4_4  and  C5_5 
REMARK    3  A    between atoms: C5_5  and  N1_6 
REMARK    4  A    between atoms: C7_8  and  O1_9 
REMARK    5  A    between atoms: O1_9  and  C8_10 
REMARK    6  A    between atoms: C8_10  and  C9_11 
REMARK    7  A    between atoms: C15_17  and  O2_18 
ROOT
HETATM    1  C5  UNL     1      26.131   1.554  52.659  1.00  0.00     0.179 A 
HETATM    2  C6  UNL     1      25.890   2.366  51.437  1.00  0.00     0.053 A 
HETATM    3  C7  UNL     1      24.896   2.776  50.631  1.00  0.00     0.100 A 
HETATM    4  C15 UNL     1      23.613   2.236  51.134  1.00  0.00     0.095 A 
HETATM    5  C16 UNL     1      23.748   1.502  52.222  1.00  0.00     0.015 A 
HETATM    6  C17 UNL     1      24.823   1.039  53.124  1.00  0.00     0.075 A 
ENDROOT
BRANCH   3   7
HETATM    7  O1  UNL     1      24.886   3.555  49.505  1.00  0.00    -0.344 OA
BRANCH   7   8
HETATM    8  C8  UNL     1      25.008   4.977  49.590  1.00  0.00     0.214 C 
BRANCH   8   9
HETATM    9  C9  UNL     1      26.271   5.461  48.984  1.00  0.00    -0.034 A 
HETATM   10  C10 UNL     1      27.452   4.752  48.881  1.00  0.00     0.009 A 
HETATM   11  C11 UNL     1      28.568   5.324  48.290  1.00  0.00     0.001 A 
HETATM   12  C12 UNL     1      28.562   6.601  47.785  1.00  0.00     0.000 A 
HETATM   13  C13 UNL     1      27.387   7.345  47.873  1.00  0.00     0.001 A 
HETATM   14  C14 UNL     1      26.285   6.759  48.465  1.00  0.00     0.009 A 
ENDBRANCH   8   9
ENDBRANCH   7   8
ENDBRANCH   3   7
BRANCH   4  15
HETATM   15  O2  UNL     1      22.380   2.459  50.544  1.00  0.00    -0.358 OA
HETATM   16  H20 UNL     1      22.209   1.924  49.678  1.00  0.00     0.217 HD
ENDBRANCH   4  15
BRANCH   1  17
HETATM   17  C4  UNL     1      27.139   0.511  52.315  1.00  0.00     0.049 C 
BRANCH  17  18
HETATM   18  C2  UNL     1      27.409  -0.522  53.319  1.00  0.00    -0.020 C 
HETATM   19  C1  UNL     1      28.794  -0.622  53.837  1.00  0.00     0.009 C 
HETATM   20  C3  UNL     1      27.075  -1.870  52.686  1.00  0.00     0.009 C 
ENDBRANCH  17  18
ENDBRANCH   1  17
BRANCH   1  21
HETATM   21  N1  UNL     1      26.731   2.498  53.618  1.00  0.00     0.092 N 
HETATM   22  H10 UNL     1      27.494   3.056  53.220  1.00  0.00     0.314 HD
HETATM   23  H11 UNL     1      27.107   1.987  54.446  1.00  0.00     0.314 HD
ENDBRANCH   1  21
TORSDOF 7
ENDMDL
MODEL 6
REMARK VINA RESULT:      -6.5      2.376      6.580
REMARK  7 active torsions:
REMARK  status: ('A' for Active; 'I' for Inactive)
REMARK    1  A    between atoms: C2_2  and  C4_4 
REMARK    2  A    between atoms: C4_4  and  C5_5 
REMARK    3  A    between atoms: C5_5  and  N1_6 
REMARK    4  A    between atoms: C7_8  and  O1_9 
REMARK    5  A    between atoms: O1_9  and  C8_10 
REMARK    6  A    between atoms: C8_10  and  C9_11 
REMARK    7  A    between atoms: C15_17  and  O2_18 
ROOT
HETATM    1  C5  UNL     1      26.472  -0.293  52.802  1.00  0.00     0.179 A 
HETATM    2  C6  UNL     1      25.098  -0.156  53.354  1.00  0.00     0.053 A 
HETATM    3  C7  UNL     1      23.969   0.555  53.190  1.00  0.00     0.100 A 
HETATM    4  C15 UNL     1      24.166   1.525  52.090  1.00  0.00     0.095 A 
HETATM    5  C16 UNL     1      25.367   1.462  51.548  1.00  0.00     0.015 A 
HETATM    6  C17 UNL     1      26.619   0.693  51.708  1.00  0.00     0.075 A 
ENDROOT
BRANCH   3   7
HETATM    7  O1  UNL     1      22.761   0.524  53.832  1.00  0.00    -0.344 OA
BRANCH   7   8
HETATM    8  C8  UNL     1      21.982  -0.674  53.884  1.00  0.00     0.214 C 
BRANCH   8   9
HETATM    9  C9  UNL     1      20.692  -0.526  53.169  1.00  0.00    -0.034 A 
HETATM   10  C10 UNL     1      20.468   0.227  52.033  1.00  0.00     0.009 A 
HETATM   11  C11 UNL     1      19.207   0.282  51.460  1.00  0.00     0.001 A 
HETATM   12  C12 UNL     1      18.131  -0.396  51.980  1.00  0.00     0.000 A 
HETATM   13  C13 UNL     1      18.322  -1.166  53.126  1.00  0.00     0.001 A 
HETATM   14  C14 UNL     1      19.585  -1.208  53.683  1.00  0.00     0.009 A 
ENDBRANCH   8   9
ENDBRANCH   7   8
ENDBRANCH   3   7
BRANCH   4  15
HETATM   15  O2  UNL     1      23.206   2.422  51.651  1.00  0.00    -0.358 OA
HETATM   16  H20 UNL     1      22.557   2.051  50.939  1.00  0.00     0.217 HD
ENDBRANCH   4  15
BRANCH   1  17
HETATM   17  C4  UNL     1      27.429  -0.134  53.934  1.00  0.00     0.049 C 
BRANCH  17  18
HETATM   18  C2  UNL     1      28.822   0.178  53.599  1.00  0.00    -0.020 C 
HETATM   19  C1  UNL     1      29.823  -0.901  53.776  1.00  0.00     0.009 C 
HETATM   20  C3  UNL     1      29.257   1.335  54.494  1.00  0.00     0.009 C 
ENDBRANCH  17  18
ENDBRANCH   1  17
BRANCH   1  21
HETATM   21  N1  UNL     1      26.538  -1.682  52.314  1.00  0.00     0.092 N 
HETATM   22  H10 UNL     1      25.959  -1.852  51.486  1.00  0.00     0.314 HD
HETATM   23  H11 UNL     1      26.233  -2.345  53.060  1.00  0.00     0.314 HD
ENDBRANCH   1  21
TORSDOF 7
ENDMDL
MODEL 7
REMARK VINA RESULT:      -6.4      1.617      2.374
REMARK  7 active torsions:
REMARK  status: ('A' for Active; 'I' for Inactive)
REMARK    1  A    between atoms: C2_2  and  C4_4 
REMARK    2  A    between atoms: C4_4  and  C5_5 
REMARK    3  A    between atoms: C5_5  and  N1_6 
REMARK    4  A    between atoms: C7_8  and  O1_9 
REMARK    5  A    between atoms: O1_9  and  C8_10 
REMARK    6  A    between atoms: C8_10  and  C9_11 
REMARK    7  A    between atoms: C15_17  and  O2_18 
ROOT
HETATM    1  C5  UNL     1      21.477   1.691  50.735  1.00  0.00     0.179 A 
HETATM    2  C6  UNL     1      22.185   0.636  51.506  1.00  0.00     0.053 A 
HETATM    3  C7  UNL     1      22.170   0.024  52.703  1.00  0.00     0.100 A 
HETATM    4  C15 UNL     1      21.079   0.598  53.524  1.00  0.00     0.095 A 
HETATM    5  C16 UNL     1      20.403   1.545  52.902  1.00  0.00     0.015 A 
HETATM    6  C17 UNL     1      20.399   2.231  51.594  1.00  0.00     0.075 A 
ENDROOT
BRANCH   3   7
HETATM    7  O1  UNL     1      22.944  -0.969  53.239  1.00  0.00    -0.344 OA
BRANCH   7   8
HETATM    8  C8  UNL     1      23.939  -0.679  54.223  1.00  0.00     0.214 C 
BRANCH   8   9
HETATM    9  C9  UNL     1      25.066   0.100  53.658  1.00  0.00    -0.034 A 
HETATM   10  C10 UNL     1      25.495   1.343  54.081  1.00  0.00     0.009 A 
HETATM   11  C11 UNL     1      26.568   1.967  53.463  1.00  0.00     0.001 A 
HETATM   12  C12 UNL     1      27.250   1.396  52.416  1.00  0.00     0.000 A 
HETATM   13  C13 UNL     1      26.843   0.143  51.964  1.00  0.00     0.001 A 
HETATM   14  C14 UNL     1      25.773  -0.464  52.591  1.00  0.00     0.009 A 
ENDBRANCH   8   9
ENDBRANCH   7   8
ENDBRANCH   3   7
BRANCH   4  15
HETATM   15  O2  UNL     1      20.776   0.204  54.817  1.00  0.00    -0.358 OA
HETATM   16  H20 UNL     1      21.127  -0.731  55.079  1.00  0.00     0.217 HD
ENDBRANCH   4  15
BRANCH   1  17
HETATM   17  C4  UNL     1      22.496   2.685  50.293  1.00  0.00     0.049 C 
BRANCH  17  18
HETATM   18  C2  UNL     1      23.693   2.838  51.126  1.00  0.00    -0.020 C 
HETATM   19  C1  UNL     1      23.696   3.941  52.116  1.00  0.00     0.009 C 
HETATM   20  C3  UNL     1      24.872   3.083  50.187  1.00  0.00     0.009 C 
ENDBRANCH  17  18
ENDBRANCH   1  17
BRANCH   1  21
HETATM   21  N1  UNL     1      20.949   0.992  49.551  1.00  0.00     0.092 N 
HETATM   22  H10 UNL     1      21.678   0.584  48.958  1.00  0.00     0.314 HD
HETATM   23  H11 UNL     1      20.386   1.645  48.962  1.00  0.00     0.314 HD
ENDBRANCH   1  21
TORSDOF 7
ENDMDL
MODEL 8
REMARK VINA RESULT:      -6.3      7.856     11.115
REMARK  7 active torsions:
REMARK  status: ('A' for Active; 'I' for Inactive)
REMARK    1  A    between atoms: C2_2  and  C4_4 
REMARK    2  A    between atoms: C4_4  and  C5_5 
REMARK    3  A    between atoms: C5_5  and  N1_6 
REMARK    4  A    between atoms: C7_8  and  O1_9 
REMARK    5  A    between atoms: O1_9  and  C8_10 
REMARK    6  A    between atoms: C8_10  and  C9_11 
REMARK    7  A    between atoms: C15_17  and  O2_18 
ROOT
HETATM    1  C5  UNL     1      32.924   6.504  46.747  1.00  0.00     0.179 A 
HETATM    2  C6  UNL     1      31.594   6.012  47.192  1.00  0.00     0.053 A 
HETATM    3  C7  UNL     1      30.929   5.649  48.302  1.00  0.00     0.100 A 
HETATM    4  C15 UNL     1      31.828   5.789  49.470  1.00  0.00     0.095 A 
HETATM    5  C16 UNL     1      33.032   6.225  49.151  1.00  0.00     0.015 A 
HETATM    6  C17 UNL     1      33.784   6.630  47.945  1.00  0.00     0.075 A 
ENDROOT
BRANCH   3   7
HETATM    7  O1  UNL     1      29.651   5.205  48.505  1.00  0.00    -0.344 OA
BRANCH   7   8
HETATM    8  C8  UNL     1      28.529   6.073  48.322  1.00  0.00     0.214 C 
BRANCH   8   9
HETATM    9  C9  UNL     1      27.254   5.415  48.694  1.00  0.00    -0.034 A 
HETATM   10  C10 UNL     1      27.105   4.122  49.156  1.00  0.00     0.009 A 
HETATM   11  C11 UNL     1      25.850   3.624  49.470  1.00  0.00     0.001 A 
HETATM   12  C12 UNL     1      24.707   4.375  49.340  1.00  0.00     0.000 A 
HETATM   13  C13 UNL     1      24.820   5.684  48.876  1.00  0.00     0.001 A 
HETATM   14  C14 UNL     1      26.079   6.162  48.569  1.00  0.00     0.009 A 
ENDBRANCH   8   9
ENDBRANCH   7   8
ENDBRANCH   3   7
BRANCH   4  15
HETATM   15  O2  UNL     1      31.471   5.500  50.777  1.00  0.00    -0.358 OA
HETATM   16  H20 UNL     1      31.978   6.040  51.495  1.00  0.00     0.217 HD
ENDBRANCH   4  15
BRANCH   1  17
HETATM   17  C4  UNL     1      33.424   5.566  45.701  1.00  0.00     0.049 C 
BRANCH  17  18
HETATM   18  C2  UNL     1      34.098   4.346  46.157  1.00  0.00    -0.020 C 
HETATM   19  C1  UNL     1      35.172   3.799  45.296  1.00  0.00     0.009 C 
HETATM   20  C3  UNL     1      33.034   3.259  46.282  1.00  0.00     0.009 C 
ENDBRANCH  17  18
ENDBRANCH   1  17
BRANCH   1  21
HETATM   21  N1  UNL     1      32.646   7.809  46.121  1.00  0.00     0.092 N 
HETATM   22  H10 UNL     1      33.139   8.589  46.566  1.00  0.00     0.314 HD
HETATM   23  H11 UNL     1      31.624   8.017  46.152  1.00  0.00     0.314 HD
ENDBRANCH   1  21
TORSDOF 7
ENDMDL
MODEL 9
REMARK VINA RESULT:      -6.3      2.731      5.423
REMARK  7 active torsions:
REMARK  status: ('A' for Active; 'I' for Inactive)
REMARK    1  A    between atoms: C2_2  and  C4_4 
REMARK    2  A    between atoms: C4_4  and  C5_5 
REMARK    3  A    between atoms: C5_5  and  N1_6 
REMARK    4  A    between atoms: C7_8  and  O1_9 
REMARK    5  A    between atoms: O1_9  and  C8_10 
REMARK    6  A    between atoms: C8_10  and  C9_11 
REMARK    7  A    between atoms: C15_17  and  O2_18 
ROOT
HETATM    1  C5  UNL     1      23.029   4.240  50.224  1.00  0.00     0.179 A 
HETATM    2  C6  UNL     1      23.560   3.366  51.303  1.00  0.00     0.053 A 
HETATM    3  C7  UNL     1      24.718   2.882  51.785  1.00  0.00     0.100 A 
HETATM    4  C15 UNL     1      25.836   3.396  50.961  1.00  0.00     0.095 A 
HETATM    5  C16 UNL     1      25.439   4.183  49.979  1.00  0.00     0.015 A 
HETATM    6  C17 UNL     1      24.180   4.728  49.431  1.00  0.00     0.075 A 
ENDROOT
BRANCH   3   7
HETATM    7  O1  UNL     1      25.003   2.054  52.836  1.00  0.00    -0.344 OA
BRANCH   7   8
HETATM    8  C8  UNL     1      25.019   0.634  52.675  1.00  0.00     0.214 C 
BRANCH   8   9
HETATM    9  C9  UNL     1      23.896  -0.017  53.391  1.00  0.00    -0.034 A 
HETATM   10  C10 UNL     1      23.988  -0.762  54.550  1.00  0.00     0.009 A 
HETATM   11  C11 UNL     1      22.855  -1.321  55.121  1.00  0.00     0.001 A 
HETATM   12  C12 UNL     1      21.603  -1.168  54.576  1.00  0.00     0.000 A 
HETATM   13  C13 UNL     1      21.475  -0.422  53.406  1.00  0.00     0.001 A 
HETATM   14  C14 UNL     1      22.614   0.127  52.852  1.00  0.00     0.009 A 
ENDBRANCH   8   9
ENDBRANCH   7   8
ENDBRANCH   3   7
BRANCH   4  15
HETATM   15  O2  UNL     1      27.171   3.098  51.173  1.00  0.00    -0.358 OA
HETATM   16  H20 UNL     1      27.345   2.223  51.692  1.00  0.00     0.217 HD
ENDBRANCH   4  15
BRANCH   1  17
HETATM   17  C4  UNL     1      22.021   3.450  49.461  1.00  0.00     0.049 C 
BRANCH  17  18
HETATM   18  C2  UNL     1      22.454   2.166  48.902  1.00  0.00    -0.020 C 
HETATM   19  C1  UNL     1      22.549   2.063  47.426  1.00  0.00     0.009 C 
HETATM   20  C3  UNL     1      21.450   1.110  49.355  1.00  0.00     0.009 C 
ENDBRANCH  17  18
ENDBRANCH   1  17
BRANCH   1  21
HETATM   21  N1  UNL     1      22.340   5.330  50.936  1.00  0.00     0.092 N 
HETATM   22  H10 UNL     1      22.974   5.946  51.454  1.00  0.00     0.314 HD
HETATM   23  H11 UNL     1      21.647   4.942  51.613  1.00  0.00     0.314 HD
ENDBRANCH   1  21
TORSDOF 7
ENDMDL
