MODEL 1
REMARK VINA RESULT:      -7.2      0.000      0.000
REMARK  8 active torsions:
REMARK  status: ('A' for Active; 'I' for Inactive)
REMARK    1  A    between atoms: N1_2  and  C2_3 
REMARK    2  A    between atoms: C2_3  and  C3_4 
REMARK    3  A    between atoms: C3_4  and  N2_5 
REMARK    4  A    between atoms: N2_5  and  C4_6 
REMARK    5  A    between atoms: C7_9  and  N3_10 
REMARK    6  A    between atoms: N3_10  and  C8_11 
REMARK    7  A    between atoms: C11_16  and  C12_17 
REMARK    8  A    between atoms: C13_21  and  O1_22 
ROOT
HETATM    1  C4  UNL     1      25.187   5.472  49.386  1.00  0.00     0.030 A 
HETATM    2  C5  UNL     1      26.397   4.911  49.054  1.00  0.00     0.031 A 
HETATM    3  C6  UNL     1      26.922   3.747  49.567  1.00  0.00     0.035 A 
HETATM    4  C7  UNL     1      26.182   3.059  50.507  1.00  0.00     0.067 A 
HETATM    5  C13 UNL     1      24.958   3.574  50.881  1.00  0.00     0.097 A 
HETATM    6  C15 UNL     1      24.495   4.743  50.328  1.00  0.00     0.068 A 
ENDROOT
BRANCH   4   7
HETATM    7  N3  UNL     1      26.610   1.854  51.109  1.00  0.00    -0.338 N 
HETATM    8  H12 UNL     1      26.318   1.097  50.442  1.00  0.00     0.167 HD
BRANCH   7   9
HETATM    9  C8  UNL     1      27.287   1.598  52.330  1.00  0.00     0.146 A 
HETATM   10  N4  UNL     1      28.214   2.520  52.715  1.00  0.00    -0.224 NA
HETATM   11  C9  UNL     1      28.911   2.375  53.853  1.00  0.00     0.234 A 
HETATM   12  N5  UNL     1      28.729   1.320  54.661  1.00  0.00    -0.253 NA
HETATM   13  C10 UNL     1      27.837   0.389  54.336  1.00  0.00     0.138 A 
HETATM   14  C11 UNL     1      27.104   0.518  53.163  1.00  0.00     0.111 A 
BRANCH  14  15
HETATM   15  C12 UNL     1      26.107  -0.477  52.752  1.00  0.00     0.422 C 
HETATM   16  F1  UNL     1      25.932  -1.373  53.814  1.00  0.00    -0.166 F 
HETATM   17  F2  UNL     1      26.578  -1.192  51.677  1.00  0.00    -0.166 F 
HETATM   18  F3  UNL     1      24.862   0.075  52.531  1.00  0.00    -0.166 F 
ENDBRANCH  14  15
ENDBRANCH   7   9
ENDBRANCH   4   7
BRANCH   5  19
HETATM   19  O1  UNL     1      24.200   2.897  51.826  1.00  0.00    -0.354 OA
HETATM   20  C14 UNL     1      24.116   3.396  53.147  1.00  0.00     0.210 C 
ENDBRANCH   5  19
BRANCH   1  21
HETATM   21  N2  UNL     1      24.663   6.666  48.835  1.00  0.00    -0.388 N 
HETATM   22  H9  UNL     1      23.661   6.582  48.480  1.00  0.00     0.159 HD
BRANCH  21  23
HETATM   23  C3  UNL     1      25.337   7.937  48.713  1.00  0.00     0.150 C 
BRANCH  23  24
HETATM   24  C2  UNL     1      25.464   8.684  50.001  1.00  0.00     0.288 C 
BRANCH  24  25
HETATM   25  N1  UNL     1      26.802   8.412  50.543  1.00  0.00     0.080 N 
HETATM   26  C1  UNL     1      27.760   8.757  49.497  1.00  0.00     0.306 C 
HETATM   27  H4  UNL     1      26.903   7.423  50.844  1.00  0.00     0.315 HD
ENDBRANCH  24  25
ENDBRANCH  23  24
ENDBRANCH  21  23
ENDBRANCH   1  21
TORSDOF 8
ENDMDL
MODEL 2
REMARK VINA RESULT:      -7.1      4.360      6.993
REMARK  8 active torsions:
REMARK  status: ('A' for Active; 'I' for Inactive)
REMARK    1  A    between atoms: N1_2  and  C2_3 
REMARK    2  A    between atoms: C2_3  and  C3_4 
REMARK    3  A    between atoms: C3_4  and  N2_5 
REMARK    4  A    between atoms: N2_5  and  C4_6 
REMARK    5  A    between atoms: C7_9  and  N3_10 
REMARK    6  A    between atoms: N3_10  and  C8_11 
REMARK    7  A    between atoms: C11_16  and  C12_17 
REMARK    8  A    between atoms: C13_21  and  O1_22 
ROOT
HETATM    1  C4  UNL     1      22.067  -0.052  53.940  1.00  0.00     0.030 A 
HETATM    2  C5  UNL     1      23.103  -0.839  54.384  1.00  0.00     0.031 A 
HETATM    3  C6  UNL     1      24.400  -0.811  53.924  1.00  0.00     0.035 A 
HETATM    4  C7  UNL     1      24.715   0.083  52.921  1.00  0.00     0.067 A 
HETATM    5  C13 UNL     1      23.716   0.899  52.434  1.00  0.00     0.097 A 
HETATM    6  C15 UNL     1      22.441   0.819  52.940  1.00  0.00     0.068 A 
ENDROOT
BRANCH   4   7
HETATM    7  N3  UNL     1      26.009   0.208  52.364  1.00  0.00    -0.338 N 
HETATM    8  H12 UNL     1      25.856   0.607  51.405  1.00  0.00     0.167 HD
BRANCH   7   9
HETATM    9  C8  UNL     1      27.293  -0.101  52.884  1.00  0.00     0.146 A 
HETATM   10  N4  UNL     1      27.641  -1.419  52.899  1.00  0.00    -0.224 NA
HETATM   11  C9  UNL     1      28.833  -1.819  53.370  1.00  0.00     0.234 A 
HETATM   12  N5  UNL     1      29.733  -0.946  53.847  1.00  0.00    -0.253 NA
HETATM   13  C10 UNL     1      29.446   0.353  53.856  1.00  0.00     0.138 A 
HETATM   14  C11 UNL     1      28.219   0.791  53.374  1.00  0.00     0.111 A 
BRANCH  14  15
HETATM   15  C12 UNL     1      27.848   2.210  53.361  1.00  0.00     0.422 C 
HETATM   16  F1  UNL     1      27.519   2.556  52.044  1.00  0.00    -0.166 F 
HETATM   17  F2  UNL     1      28.925   2.978  53.736  1.00  0.00    -0.166 F 
HETATM   18  F3  UNL     1      26.713   2.472  54.101  1.00  0.00    -0.166 F 
ENDBRANCH  14  15
ENDBRANCH   7   9
ENDBRANCH   4   7
BRANCH   5  19
HETATM   19  O1  UNL     1      24.014   1.804  51.425  1.00  0.00    -0.354 OA
HETATM   20  C14 UNL     1      23.095   2.004  50.368  1.00  0.00     0.210 C 
ENDBRANCH   5  19
BRANCH   1  21
HETATM   21  N2  UNL     1      20.743  -0.091  54.437  1.00  0.00    -0.388 N 
HETATM   22  H9  UNL     1      20.667   0.044  55.492  1.00  0.00     0.159 HD
BRANCH  21  23
HETATM   23  C3  UNL     1      19.533  -0.291  53.676  1.00  0.00     0.150 C 
BRANCH  23  24
HETATM   24  C2  UNL     1      19.066  -1.710  53.638  1.00  0.00     0.288 C 
BRANCH  24  25
HETATM   25  N1  UNL     1      17.632  -1.716  53.952  1.00  0.00     0.080 N 
HETATM   26  C1  UNL     1      16.944  -1.143  52.799  1.00  0.00     0.306 C 
HETATM   27  H4  UNL     1      17.424  -1.189  54.822  1.00  0.00     0.315 HD
ENDBRANCH  24  25
ENDBRANCH  23  24
ENDBRANCH  21  23
ENDBRANCH   1  21
TORSDOF 8
ENDMDL
MODEL 3
REMARK VINA RESULT:      -6.8      3.775      7.039
REMARK  8 active torsions:
REMARK  status: ('A' for Active; 'I' for Inactive)
REMARK    1  A    between atoms: N1_2  and  C2_3 
REMARK    2  A    between atoms: C2_3  and  C3_4 
REMARK    3  A    between atoms: C3_4  and  N2_5 
REMARK    4  A    between atoms: N2_5  and  C4_6 
REMARK    5  A    between atoms: C7_9  and  N3_10 
REMARK    6  A    between atoms: N3_10  and  C8_11 
REMARK    7  A    between atoms: C11_16  and  C12_17 
REMARK    8  A    between atoms: C13_21  and  O1_22 
ROOT
HETATM    1  C4  UNL     1      26.593  -0.728  53.079  1.00  0.00     0.030 A 
HETATM    2  C5  UNL     1      25.518  -1.011  53.886  1.00  0.00     0.031 A 
HETATM    3  C6  UNL     1      24.294  -0.382  53.860  1.00  0.00     0.035 A 
HETATM    4  C7  UNL     1      24.104   0.633  52.945  1.00  0.00     0.067 A 
HETATM    5  C13 UNL     1      25.149   0.963  52.107  1.00  0.00     0.097 A 
HETATM    6  C15 UNL     1      26.346   0.293  52.188  1.00  0.00     0.068 A 
ENDROOT
BRANCH   4   7
HETATM    7  N3  UNL     1      22.895   1.355  52.819  1.00  0.00    -0.338 N 
HETATM    8  H12 UNL     1      22.961   2.126  53.529  1.00  0.00     0.167 HD
BRANCH   7   9
HETATM    9  C8  UNL     1      21.775   1.176  51.965  1.00  0.00     0.146 A 
HETATM   10  N4  UNL     1      21.824   1.807  50.758  1.00  0.00    -0.224 NA
HETATM   11  C9  UNL     1      20.817   1.703  49.876  1.00  0.00     0.234 A 
HETATM   12  N5  UNL     1      19.721   0.977  50.140  1.00  0.00    -0.253 NA
HETATM   13  C10 UNL     1      19.619   0.340  51.303  1.00  0.00     0.138 A 
HETATM   14  C11 UNL     1      20.648   0.433  52.231  1.00  0.00     0.111 A 
BRANCH  14  15
HETATM   15  C12 UNL     1      20.591  -0.248  53.530  1.00  0.00     0.422 C 
HETATM   16  F1  UNL     1      19.284  -0.716  53.713  1.00  0.00    -0.166 F 
HETATM   17  F2  UNL     1      20.857   0.649  54.538  1.00  0.00    -0.166 F 
HETATM   18  F3  UNL     1      21.392  -1.371  53.580  1.00  0.00    -0.166 F 
ENDBRANCH  14  15
ENDBRANCH   7   9
ENDBRANCH   4   7
BRANCH   5  19
HETATM   19  O1  UNL     1      24.977   1.981  51.181  1.00  0.00    -0.354 OA
HETATM   20  C14 UNL     1      26.034   2.887  50.930  1.00  0.00     0.210 C 
ENDBRANCH   5  19
BRANCH   1  21
HETATM   21  N2  UNL     1      27.840  -1.397  53.117  1.00  0.00    -0.388 N 
HETATM   22  H9  UNL     1      27.842  -2.347  52.634  1.00  0.00     0.159 HD
BRANCH  21  23
HETATM   23  C3  UNL     1      29.061  -0.929  53.730  1.00  0.00     0.150 C 
BRANCH  23  24
HETATM   24  C2  UNL     1      28.892   0.302  54.560  1.00  0.00     0.288 C 
BRANCH  24  25
HETATM   25  N1  UNL     1      29.643   1.383  53.909  1.00  0.00     0.080 N 
HETATM   26  C1  UNL     1      28.706   2.480  53.693  1.00  0.00     0.306 C 
HETATM   27  H4  UNL     1      30.080   1.071  53.020  1.00  0.00     0.315 HD
ENDBRANCH  24  25
ENDBRANCH  23  24
ENDBRANCH  21  23
ENDBRANCH   1  21
TORSDOF 8
ENDMDL
MODEL 4
REMARK VINA RESULT:      -6.7      1.788      2.122
REMARK  8 active torsions:
REMARK  status: ('A' for Active; 'I' for Inactive)
REMARK    1  A    between atoms: N1_2  and  C2_3 
REMARK    2  A    between atoms: C2_3  and  C3_4 
REMARK    3  A    between atoms: C3_4  and  N2_5 
REMARK    4  A    between atoms: N2_5  and  C4_6 
REMARK    5  A    between atoms: C7_9  and  N3_10 
REMARK    6  A    between atoms: N3_10  and  C8_11 
REMARK    7  A    between atoms: C11_16  and  C12_17 
REMARK    8  A    between atoms: C13_21  and  O1_22 
ROOT
HETATM    1  C4  UNL     1      26.555   6.427  48.711  1.00  0.00     0.030 A 
HETATM    2  C5  UNL     1      27.328   5.302  48.547  1.00  0.00     0.031 A 
HETATM    3  C6  UNL     1      27.148   4.093  49.181  1.00  0.00     0.035 A 
HETATM    4  C7  UNL     1      26.099   3.975  50.069  1.00  0.00     0.067 A 
HETATM    5  C13 UNL     1      25.289   5.072  50.275  1.00  0.00     0.097 A 
HETATM    6  C15 UNL     1      25.526   6.250  49.608  1.00  0.00     0.068 A 
ENDROOT
BRANCH   4   7
HETATM    7  N3  UNL     1      25.808   2.789  50.782  1.00  0.00    -0.338 N 
HETATM    8  H12 UNL     1      25.079   2.297  50.208  1.00  0.00     0.167 HD
BRANCH   7   9
HETATM    9  C8  UNL     1      26.318   2.274  52.002  1.00  0.00     0.146 A 
HETATM   10  N4  UNL     1      27.657   2.419  52.210  1.00  0.00    -0.224 NA
HETATM   11  C9  UNL     1      28.242   1.968  53.332  1.00  0.00     0.234 A 
HETATM   12  N5  UNL     1      27.539   1.354  54.295  1.00  0.00    -0.253 NA
HETATM   13  C10 UNL     1      26.228   1.184  54.145  1.00  0.00     0.138 A 
HETATM   14  C11 UNL     1      25.602   1.643  52.993  1.00  0.00     0.111 A 
BRANCH  14  15
HETATM   15  C12 UNL     1      24.160   1.484  52.773  1.00  0.00     0.422 C 
HETATM   16  F1  UNL     1      23.680   0.566  53.715  1.00  0.00    -0.166 F 
HETATM   17  F2  UNL     1      23.935   0.954  51.524  1.00  0.00    -0.166 F 
HETATM   18  F3  UNL     1      23.453   2.646  53.002  1.00  0.00    -0.166 F 
ENDBRANCH  14  15
ENDBRANCH   7   9
ENDBRANCH   4   7
BRANCH   5  19
HETATM   19  O1  UNL     1      24.229   4.972  51.165  1.00  0.00    -0.354 OA
HETATM   20  C14 UNL     1      22.900   5.001  50.680  1.00  0.00     0.210 C 
ENDBRANCH   5  19
BRANCH   1  21
HETATM   21  N2  UNL     1      26.755   7.656  48.038  1.00  0.00    -0.388 N 
HETATM   22  H9  UNL     1      26.041   7.858  47.273  1.00  0.00     0.159 HD
BRANCH  21  23
HETATM   23  C3  UNL     1      27.798   8.624  48.284  1.00  0.00     0.150 C 
BRANCH  23  24
HETATM   24  C2  UNL     1      27.798   9.178  49.672  1.00  0.00     0.288 C 
BRANCH  24  25
HETATM   25  N1  UNL     1      29.193   9.450  50.042  1.00  0.00     0.080 N 
HETATM   26  C1  UNL     1      30.031   8.767  49.061  1.00  0.00     0.306 C 
HETATM   27  H4  UNL     1      29.405   9.139  51.010  1.00  0.00     0.315 HD
ENDBRANCH  24  25
ENDBRANCH  23  24
ENDBRANCH  21  23
ENDBRANCH   1  21
TORSDOF 8
ENDMDL
MODEL 5
REMARK VINA RESULT:      -6.7      3.670      7.155
REMARK  8 active torsions:
REMARK  status: ('A' for Active; 'I' for Inactive)
REMARK    1  A    between atoms: N1_2  and  C2_3 
REMARK    2  A    between atoms: C2_3  and  C3_4 
REMARK    3  A    between atoms: C3_4  and  N2_5 
REMARK    4  A    between atoms: N2_5  and  C4_6 
REMARK    5  A    between atoms: C7_9  and  N3_10 
REMARK    6  A    between atoms: N3_10  and  C8_11 
REMARK    7  A    between atoms: C11_16  and  C12_17 
REMARK    8  A    between atoms: C13_21  and  O1_22 
ROOT
HETATM    1  C4  UNL     1      26.516  -0.393  53.048  1.00  0.00     0.030 A 
HETATM    2  C5  UNL     1      26.801   0.600  52.142  1.00  0.00     0.031 A 
HETATM    3  C6  UNL     1      25.895   1.469  51.577  1.00  0.00     0.035 A 
HETATM    4  C7  UNL     1      24.569   1.351  51.939  1.00  0.00     0.067 A 
HETATM    5  C13 UNL     1      24.222   0.371  52.845  1.00  0.00     0.097 A 
HETATM    6  C15 UNL     1      25.179  -0.463  53.371  1.00  0.00     0.068 A 
ENDROOT
BRANCH   4   7
HETATM    7  N3  UNL     1      23.543   2.181  51.430  1.00  0.00    -0.338 N 
HETATM    8  H12 UNL     1      23.339   2.866  52.200  1.00  0.00     0.167 HD
BRANCH   7   9
HETATM    9  C8  UNL     1      22.866   2.185  50.183  1.00  0.00     0.146 A 
HETATM   10  N4  UNL     1      21.908   1.231  50.009  1.00  0.00    -0.224 NA
HETATM   11  C9  UNL     1      21.208   1.147  48.866  1.00  0.00     0.234 A 
HETATM   12  N5  UNL     1      21.417   1.994  47.847  1.00  0.00    -0.253 NA
HETATM   13  C10 UNL     1      22.339   2.945  47.962  1.00  0.00     0.138 A 
HETATM   14  C11 UNL     1      23.076   3.052  49.135  1.00  0.00     0.111 A 
BRANCH  14  15
HETATM   15  C12 UNL     1      24.106   4.080  49.318  1.00  0.00     0.422 C 
HETATM   16  F1  UNL     1      23.966   5.017  48.287  1.00  0.00    -0.166 F 
HETATM   17  F2  UNL     1      25.355   3.516  49.201  1.00  0.00    -0.166 F 
HETATM   18  F3  UNL     1      23.944   4.795  50.487  1.00  0.00    -0.166 F 
ENDBRANCH  14  15
ENDBRANCH   7   9
ENDBRANCH   4   7
BRANCH   5  19
HETATM   19  O1  UNL     1      22.893   0.237  53.221  1.00  0.00    -0.354 OA
HETATM   20  C14 UNL     1      22.434  -0.992  53.749  1.00  0.00     0.210 C 
ENDBRANCH   5  19
BRANCH   1  21
HETATM   21  N2  UNL     1      27.468  -1.268  53.625  1.00  0.00    -0.388 N 
HETATM   22  H9  UNL     1      27.092  -1.857  54.429  1.00  0.00     0.159 HD
BRANCH  21  23
HETATM   23  C3  UNL     1      28.850  -1.427  53.238  1.00  0.00     0.150 C 
BRANCH  23  24
HETATM   24  C2  UNL     1      29.813  -0.676  54.098  1.00  0.00     0.288 C 
BRANCH  24  25
HETATM   25  N1  UNL     1      30.034   0.636  53.477  1.00  0.00     0.080 N 
HETATM   26  C1  UNL     1      29.429   1.629  54.358  1.00  0.00     0.306 C 
HETATM   27  H4  UNL     1      29.638   0.682  52.518  1.00  0.00     0.315 HD
ENDBRANCH  24  25
ENDBRANCH  23  24
ENDBRANCH  21  23
ENDBRANCH   1  21
TORSDOF 8
ENDMDL
MODEL 6
REMARK VINA RESULT:      -6.7      4.041      7.069
REMARK  8 active torsions:
REMARK  status: ('A' for Active; 'I' for Inactive)
REMARK    1  A    between atoms: N1_2  and  C2_3 
REMARK    2  A    between atoms: C2_3  and  C3_4 
REMARK    3  A    between atoms: C3_4  and  N2_5 
REMARK    4  A    between atoms: N2_5  and  C4_6 
REMARK    5  A    between atoms: C7_9  and  N3_10 
REMARK    6  A    between atoms: N3_10  and  C8_11 
REMARK    7  A    between atoms: C11_16  and  C12_17 
REMARK    8  A    between atoms: C13_21  and  O1_22 
ROOT
HETATM    1  C4  UNL     1      26.496  -0.600  53.137  1.00  0.00     0.030 A 
HETATM    2  C5  UNL     1      26.619   0.295  52.101  1.00  0.00     0.031 A 
HETATM    3  C6  UNL     1      25.625   1.109  51.608  1.00  0.00     0.035 A 
HETATM    4  C7  UNL     1      24.377   1.037  52.192  1.00  0.00     0.067 A 
HETATM    5  C13 UNL     1      24.193   0.156  53.237  1.00  0.00     0.097 A 
HETATM    6  C15 UNL     1      25.231  -0.628  53.679  1.00  0.00     0.068 A 
ENDROOT
BRANCH   4   7
HETATM    7  N3  UNL     1      23.274   1.820  51.778  1.00  0.00    -0.338 N 
HETATM    8  H12 UNL     1      22.991   2.366  52.629  1.00  0.00     0.167 HD
BRANCH   7   9
HETATM    9  C8  UNL     1      22.612   1.927  50.527  1.00  0.00     0.146 A 
HETATM   10  N4  UNL     1      23.241   2.664  49.568  1.00  0.00    -0.224 NA
HETATM   11  C9  UNL     1      22.701   2.829  48.350  1.00  0.00     0.234 A 
HETATM   12  N5  UNL     1      21.523   2.279  48.020  1.00  0.00    -0.253 NA
HETATM   13  C10 UNL     1      20.865   1.549  48.917  1.00  0.00     0.138 A 
HETATM   14  C11 UNL     1      21.404   1.365  50.184  1.00  0.00     0.111 A 
BRANCH  14  15
HETATM   15  C12 UNL     1      20.724   0.571  51.213  1.00  0.00     0.422 C 
HETATM   16  F1  UNL     1      19.478   0.186  50.704  1.00  0.00    -0.166 F 
HETATM   17  F2  UNL     1      20.498   1.346  52.326  1.00  0.00    -0.166 F 
HETATM   18  F3  UNL     1      21.382  -0.608  51.499  1.00  0.00    -0.166 F 
ENDBRANCH  14  15
ENDBRANCH   7   9
ENDBRANCH   4   7
BRANCH   5  19
HETATM   19  O1  UNL     1      22.945   0.070  53.837  1.00  0.00    -0.354 OA
HETATM   20  C14 UNL     1      22.643  -1.030  54.674  1.00  0.00     0.210 C 
ENDBRANCH   5  19
BRANCH   1  21
HETATM   21  N2  UNL     1      27.538  -1.419  53.634  1.00  0.00    -0.388 N 
HETATM   22  H9  UNL     1      27.241  -2.080  54.416  1.00  0.00     0.159 HD
BRANCH  21  23
HETATM   23  C3  UNL     1      28.915  -1.437  53.198  1.00  0.00     0.150 C 
BRANCH  23  24
HETATM   24  C2  UNL     1      29.836  -0.632  54.056  1.00  0.00     0.288 C 
BRANCH  24  25
HETATM   25  N1  UNL     1      29.952   0.702  53.454  1.00  0.00     0.080 N 
HETATM   26  C1  UNL     1      29.294   1.635  54.364  1.00  0.00     0.306 C 
HETATM   27  H4  UNL     1      29.535   0.735  52.504  1.00  0.00     0.315 HD
ENDBRANCH  24  25
ENDBRANCH  23  24
ENDBRANCH  21  23
ENDBRANCH   1  21
TORSDOF 8
ENDMDL
MODEL 7
REMARK VINA RESULT:      -6.6      3.077      4.177
REMARK  8 active torsions:
REMARK  status: ('A' for Active; 'I' for Inactive)
REMARK    1  A    between atoms: N1_2  and  C2_3 
REMARK    2  A    between atoms: C2_3  and  C3_4 
REMARK    3  A    between atoms: C3_4  and  N2_5 
REMARK    4  A    between atoms: N2_5  and  C4_6 
REMARK    5  A    between atoms: C7_9  and  N3_10 
REMARK    6  A    between atoms: N3_10  and  C8_11 
REMARK    7  A    between atoms: C11_16  and  C12_17 
REMARK    8  A    between atoms: C13_21  and  O1_22 
ROOT
HETATM    1  C4  UNL     1      22.964   5.084  51.546  1.00  0.00     0.030 A 
HETATM    2  C5  UNL     1      21.858   4.385  51.967  1.00  0.00     0.031 A 
HETATM    3  C6  UNL     1      21.773   3.021  52.130  1.00  0.00     0.035 A 
HETATM    4  C7  UNL     1      22.891   2.262  51.852  1.00  0.00     0.067 A 
HETATM    5  C13 UNL     1      24.032   2.909  51.425  1.00  0.00     0.097 A 
HETATM    6  C15 UNL     1      24.047   4.276  51.284  1.00  0.00     0.068 A 
ENDROOT
BRANCH   4   7
HETATM    7  N3  UNL     1      22.932   0.854  51.980  1.00  0.00    -0.338 N 
HETATM    8  H12 UNL     1      23.276   0.505  51.052  1.00  0.00     0.167 HD
BRANCH   7   9
HETATM    9  C8  UNL     1      22.607  -0.003  53.064  1.00  0.00     0.146 A 
HETATM   10  N4  UNL     1      21.292  -0.330  53.206  1.00  0.00    -0.224 NA
HETATM   11  C9  UNL     1      20.877  -1.135  54.198  1.00  0.00     0.234 A 
HETATM   12  N5  UNL     1      21.733  -1.652  55.092  1.00  0.00    -0.253 NA
HETATM   13  C10 UNL     1      23.029  -1.366  55.001  1.00  0.00     0.138 A 
HETATM   14  C11 UNL     1      23.482  -0.536  53.983  1.00  0.00     0.111 A 
BRANCH  14  15
HETATM   15  C12 UNL     1      24.898  -0.186  53.834  1.00  0.00     0.422 C 
HETATM   16  F1  UNL     1      25.616  -0.861  54.828  1.00  0.00    -0.166 F 
HETATM   17  F2  UNL     1      25.070   1.163  54.040  1.00  0.00    -0.166 F 
HETATM   18  F3  UNL     1      25.433  -0.622  52.638  1.00  0.00    -0.166 F 
ENDBRANCH  14  15
ENDBRANCH   7   9
ENDBRANCH   4   7
BRANCH   5  19
HETATM   19  O1  UNL     1      25.167   2.163  51.140  1.00  0.00    -0.354 OA
HETATM   20  C14 UNL     1      26.292   2.791  50.558  1.00  0.00     0.210 C 
ENDBRANCH   5  19
BRANCH   1  21
HETATM   21  N2  UNL     1      23.030   6.490  51.397  1.00  0.00    -0.388 N 
HETATM   22  H9  UNL     1      22.562   7.037  52.183  1.00  0.00     0.159 HD
BRANCH  21  23
HETATM   23  C3  UNL     1      23.647   7.222  50.316  1.00  0.00     0.150 C 
BRANCH  23  24
HETATM   24  C2  UNL     1      24.737   8.148  50.753  1.00  0.00     0.288 C 
BRANCH  24  25
HETATM   25  N1  UNL     1      25.985   7.376  50.794  1.00  0.00     0.080 N 
HETATM   26  C1  UNL     1      26.182   6.817  49.461  1.00  0.00     0.306 C 
HETATM   27  H4  UNL     1      25.958   6.635  51.521  1.00  0.00     0.315 HD
ENDBRANCH  24  25
ENDBRANCH  23  24
ENDBRANCH  21  23
ENDBRANCH   1  21
TORSDOF 8
ENDMDL
MODEL 8
REMARK VINA RESULT:      -6.6      2.498      3.196
REMARK  8 active torsions:
REMARK  status: ('A' for Active; 'I' for Inactive)
REMARK    1  A    between atoms: N1_2  and  C2_3 
REMARK    2  A    between atoms: C2_3  and  C3_4 
REMARK    3  A    between atoms: C3_4  and  N2_5 
REMARK    4  A    between atoms: N2_5  and  C4_6 
REMARK    5  A    between atoms: C7_9  and  N3_10 
REMARK    6  A    between atoms: N3_10  and  C8_11 
REMARK    7  A    between atoms: C11_16  and  C12_17 
REMARK    8  A    between atoms: C13_21  and  O1_22 
ROOT
HETATM    1  C4  UNL     1      23.139   5.542  51.323  1.00  0.00     0.030 A 
HETATM    2  C5  UNL     1      23.445   4.977  52.538  1.00  0.00     0.031 A 
HETATM    3  C6  UNL     1      23.637   3.637  52.787  1.00  0.00     0.035 A 
HETATM    4  C7  UNL     1      23.516   2.756  51.732  1.00  0.00     0.067 A 
HETATM    5  C13 UNL     1      23.209   3.265  50.487  1.00  0.00     0.097 A 
HETATM    6  C15 UNL     1      23.031   4.615  50.309  1.00  0.00     0.068 A 
ENDROOT
BRANCH   4   7
HETATM    7  N3  UNL     1      23.688   1.359  51.857  1.00  0.00    -0.338 N 
HETATM    8  H12 UNL     1      23.048   0.938  51.139  1.00  0.00     0.167 HD
BRANCH   7   9
HETATM    9  C8  UNL     1      24.509   0.584  52.718  1.00  0.00     0.146 A 
HETATM   10  N4  UNL     1      25.856   0.708  52.546  1.00  0.00    -0.224 NA
HETATM   11  C9  UNL     1      26.722   0.020  53.308  1.00  0.00     0.234 A 
HETATM   12  N5  UNL     1      26.304  -0.818  54.268  1.00  0.00    -0.253 NA
HETATM   13  C10 UNL     1      25.001  -0.978  54.480  1.00  0.00     0.138 A 
HETATM   14  C11 UNL     1      24.086  -0.277  53.704  1.00  0.00     0.111 A 
BRANCH  14  15
HETATM   15  C12 UNL     1      22.638  -0.413  53.891  1.00  0.00     0.422 C 
HETATM   16  F1  UNL     1      22.422  -1.088  55.099  1.00  0.00    -0.166 F 
HETATM   17  F2  UNL     1      22.108  -1.184  52.883  1.00  0.00    -0.166 F 
HETATM   18  F3  UNL     1      22.001   0.803  54.033  1.00  0.00    -0.166 F 
ENDBRANCH  14  15
ENDBRANCH   7   9
ENDBRANCH   4   7
BRANCH   5  19
HETATM   19  O1  UNL     1      23.083   2.394  49.413  1.00  0.00    -0.354 OA
HETATM   20  C14 UNL     1      22.292   2.764  48.300  1.00  0.00     0.210 C 
ENDBRANCH   5  19
BRANCH   1  21
HETATM   21  N2  UNL     1      22.958   6.926  51.090  1.00  0.00    -0.388 N 
HETATM   22  H9  UNL     1      21.956   7.265  51.222  1.00  0.00     0.159 HD
BRANCH  21  23
HETATM   23  C3  UNL     1      23.967   7.883  50.702  1.00  0.00     0.150 C 
BRANCH  23  24
HETATM   24  C2  UNL     1      25.219   7.264  50.170  1.00  0.00     0.288 C 
BRANCH  24  25
HETATM   25  N1  UNL     1      26.353   7.899  50.853  1.00  0.00     0.080 N 
HETATM   26  C1  UNL     1      26.668   9.116  50.111  1.00  0.00     0.306 C 
HETATM   27  H4  UNL     1      27.173   7.265  50.914  1.00  0.00     0.315 HD
ENDBRANCH  24  25
ENDBRANCH  23  24
ENDBRANCH  21  23
ENDBRANCH   1  21
TORSDOF 8
ENDMDL
MODEL 9
REMARK VINA RESULT:      -6.6      4.563      7.644
REMARK  8 active torsions:
REMARK  status: ('A' for Active; 'I' for Inactive)
REMARK    1  A    between atoms: N1_2  and  C2_3 
REMARK    2  A    between atoms: C2_3  and  C3_4 
REMARK    3  A    between atoms: C3_4  and  N2_5 
REMARK    4  A    between atoms: N2_5  and  C4_6 
REMARK    5  A    between atoms: C7_9  and  N3_10 
REMARK    6  A    between atoms: N3_10  and  C8_11 
REMARK    7  A    between atoms: C11_16  and  C12_17 
REMARK    8  A    between atoms: C13_21  and  O1_22 
ROOT
HETATM    1  C4  UNL     1      25.347  -0.435  53.705  1.00  0.00     0.030 A 
HETATM    2  C5  UNL     1      24.233  -0.923  54.345  1.00  0.00     0.031 A 
HETATM    3  C6  UNL     1      22.938  -0.491  54.166  1.00  0.00     0.035 A 
HETATM    4  C7  UNL     1      22.712   0.529  53.265  1.00  0.00     0.067 A 
HETATM    5  C13 UNL     1      23.793   1.060  52.592  1.00  0.00     0.097 A 
HETATM    6  C15 UNL     1      25.060   0.580  52.819  1.00  0.00     0.068 A 
ENDROOT
BRANCH   4   7
HETATM    7  N3  UNL     1      21.430   1.061  52.992  1.00  0.00    -0.338 N 
HETATM    8  H12 UNL     1      21.520   2.092  53.166  1.00  0.00     0.167 HD
BRANCH   7   9
HETATM    9  C8  UNL     1      20.224   0.442  52.572  1.00  0.00     0.146 A 
HETATM   10  N4  UNL     1      19.569  -0.307  53.504  1.00  0.00    -0.224 NA
HETATM   11  C9  UNL     1      18.419  -0.935  53.211  1.00  0.00     0.234 A 
HETATM   12  N5  UNL     1      17.862  -0.854  51.993  1.00  0.00    -0.253 NA
HETATM   13  C10 UNL     1      18.457  -0.136  51.045  1.00  0.00     0.138 A 
HETATM   14  C11 UNL     1      19.648   0.522  51.325  1.00  0.00     0.111 A 
BRANCH  14  15
HETATM   15  C12 UNL     1      20.350   1.327  50.319  1.00  0.00     0.422 C 
HETATM   16  F1  UNL     1      19.511   1.448  49.204  1.00  0.00    -0.166 F 
HETATM   17  F2  UNL     1      21.491   0.676  49.913  1.00  0.00    -0.166 F 
HETATM   18  F3  UNL     1      20.586   2.620  50.740  1.00  0.00    -0.166 F 
ENDBRANCH  14  15
ENDBRANCH   7   9
ENDBRANCH   4   7
BRANCH   5  19
HETATM   19  O1  UNL     1      23.585   2.086  51.681  1.00  0.00    -0.354 OA
HETATM   20  C14 UNL     1      24.355   3.269  51.770  1.00  0.00     0.210 C 
ENDBRANCH   5  19
BRANCH   1  21
HETATM   21  N2  UNL     1      26.668  -0.904  53.898  1.00  0.00    -0.388 N 
HETATM   22  H9  UNL     1      26.733  -1.824  54.432  1.00  0.00     0.159 HD
BRANCH  21  23
HETATM   23  C3  UNL     1      27.889  -0.273  53.455  1.00  0.00     0.150 C 
BRANCH  23  24
HETATM   24  C2  UNL     1      28.768   0.199  54.568  1.00  0.00     0.288 C 
BRANCH  24  25
HETATM   25  N1  UNL     1      29.515   1.365  54.081  1.00  0.00     0.080 N 
HETATM   26  C1  UNL     1      28.532   2.316  53.573  1.00  0.00     0.306 C 
HETATM   27  H4  UNL     1      30.208   1.104  53.353  1.00  0.00     0.315 HD
ENDBRANCH  24  25
ENDBRANCH  23  24
ENDBRANCH  21  23
ENDBRANCH   1  21
TORSDOF 8
ENDMDL
