MODEL 1
REMARK VINA RESULT:      -7.2      0.000      0.000
REMARK  8 active torsions:
REMARK  status: ('A' for Active; 'I' for Inactive)
REMARK    1  A    between atoms: C3_3  and  C4_4 
REMARK    2  A    between atoms: C4_4  and  N1_5 
REMARK    3  A    between atoms: C4_4  and  O3_21 
REMARK    4  A    between atoms: N1_5  and  C5_6 
REMARK    5  A    between atoms: C5_6  and  C6_7 
REMARK    6  A    between atoms: C8_9  and  O1_10 
REMARK    7  A    between atoms: O3_21  and  C16_22 
REMARK    8  A    between atoms: C16_22  and  O4_23 
ROOT
HETATM    1  C6  UNL     1      23.114   2.596  52.169  1.00  0.00     0.008 A 
HETATM    2  C7  UNL     1      22.116   3.538  52.161  1.00  0.00     0.048 A 
HETATM    3  C8  UNL     1      20.804   3.187  52.266  1.00  0.00     0.078 A 
HETATM    4  C10 UNL     1      20.531   1.867  52.373  1.00  0.00     0.026 A 
HETATM    5  C11 UNL     1      21.360   0.710  52.383  1.00  0.00     0.318 A 
HETATM    6  C12 UNL     1      22.481   1.438  52.279  1.00  0.00     0.186 A 
HETATM    7  N2  UNL     1      22.805   0.183  52.860  1.00  0.00     0.074 N 
HETATM    8  N3  UNL     1      22.805  -1.184  53.260  1.00  0.00    -0.078 NA
HETATM    9  C13 UNL     1      22.073  -1.393  54.329  1.00  0.00     0.111 C 
HETATM   10  C14 UNL     1      21.264  -0.355  54.459  1.00  0.00     0.009 C 
HETATM   11  C15 UNL     1      20.067  -0.012  53.815  1.00  0.00     0.033 C 
HETATM   12  O2  UNL     1      19.917   0.633  52.513  1.00  0.00     0.000 OA
HETATM   13  H15 UNL     1      23.669   0.298  53.431  1.00  0.00     0.319 HD
ENDROOT
BRANCH   1  14
HETATM   14  C5  UNL     1      24.545   2.467  52.131  1.00  0.00     0.314 C 
BRANCH  14  15
HETATM   15  N1  UNL     1      25.191   2.714  53.394  1.00  0.00     0.120 N 
HETATM   16  H7  UNL     1      25.545   3.719  53.334  1.00  0.00     0.320 HD
BRANCH  15  17
HETATM   17  C4  UNL     1      26.398   1.932  53.566  1.00  0.00     0.382 C 
BRANCH  17  18
HETATM   18  C3  UNL     1      26.096   0.631  54.234  1.00  0.00     0.032 C 
HETATM   19  C2  UNL     1      26.169  -0.568  53.691  1.00  0.00    -0.031 C 
HETATM   20  C1  UNL     1      26.587  -0.688  52.285  1.00  0.00     0.036 C 
ENDBRANCH  17  18
BRANCH  17  21
HETATM   21  O3  UNL     1      27.411   2.585  54.231  1.00  0.00    -0.330 OA
BRANCH  21  22
HETATM   22  C16 UNL     1      28.607   2.215  53.577  1.00  0.00     0.340 C 
BRANCH  22  23
HETATM   23  O4  UNL     1      29.431   1.471  54.383  1.00  0.00    -0.372 OA
HETATM   24  C17 UNL     1      29.807   0.310  53.712  1.00  0.00     0.204 C 
ENDBRANCH  22  23
ENDBRANCH  21  22
ENDBRANCH  17  21
ENDBRANCH  15  17
ENDBRANCH  14  15
ENDBRANCH   1  14
BRANCH   3  25
HETATM   25  O1  UNL     1      19.521   3.654  52.315  1.00  0.00    -0.355 OA
HETATM   26  C9  UNL     1      18.579   3.774  51.324  1.00  0.00     0.210 C 
ENDBRANCH   3  25
TORSDOF 8
ENDMDL
MODEL 2
REMARK VINA RESULT:      -6.9      2.805      5.908
REMARK  8 active torsions:
REMARK  status: ('A' for Active; 'I' for Inactive)
REMARK    1  A    between atoms: C3_3  and  C4_4 
REMARK    2  A    between atoms: C4_4  and  N1_5 
REMARK    3  A    between atoms: C4_4  and  O3_21 
REMARK    4  A    between atoms: N1_5  and  C5_6 
REMARK    5  A    between atoms: C5_6  and  C6_7 
REMARK    6  A    between atoms: C8_9  and  O1_10 
REMARK    7  A    between atoms: O3_21  and  C16_22 
REMARK    8  A    between atoms: C16_22  and  O4_23 
ROOT
HETATM    1  C6  UNL     1      23.936   2.519  52.483  1.00  0.00     0.008 A 
HETATM    2  C7  UNL     1      23.074   1.559  52.948  1.00  0.00     0.048 A 
HETATM    3  C8  UNL     1      23.494   0.290  53.210  1.00  0.00     0.078 A 
HETATM    4  C10 UNL     1      24.800   0.020  52.984  1.00  0.00     0.026 A 
HETATM    5  C11 UNL     1      25.876   0.812  52.494  1.00  0.00     0.318 A 
HETATM    6  C12 UNL     1      25.103   1.901  52.381  1.00  0.00     0.186 A 
HETATM    7  N2  UNL     1      26.457   2.313  52.498  1.00  0.00     0.074 N 
HETATM    8  N3  UNL     1      27.880   2.369  52.480  1.00  0.00    -0.078 NA
HETATM    9  C13 UNL     1      28.416   1.868  53.567  1.00  0.00     0.111 C 
HETATM   10  C14 UNL     1      27.492   1.123  54.151  1.00  0.00     0.009 C 
HETATM   11  C15 UNL     1      27.030  -0.174  53.888  1.00  0.00     0.033 C 
HETATM   12  O2  UNL     1      26.047  -0.575  52.884  1.00  0.00     0.000 OA
HETATM   13  H15 UNL     1      26.474   3.278  52.892  1.00  0.00     0.319 HD
ENDROOT
BRANCH   1  14
HETATM   14  C5  UNL     1      23.990   3.910  52.123  1.00  0.00     0.314 C 
BRANCH  14  15
HETATM   15  N1  UNL     1      23.117   4.269  51.036  1.00  0.00     0.120 N 
HETATM   16  H7  UNL     1      22.342   3.536  51.047  1.00  0.00     0.320 HD
BRANCH  15  17
HETATM   17  C4  UNL     1      23.740   4.095  49.739  1.00  0.00     0.382 C 
BRANCH  17  18
HETATM   18  C3  UNL     1      24.739   5.174  49.482  1.00  0.00     0.032 C 
HETATM   19  C2  UNL     1      26.035   5.018  49.296  1.00  0.00    -0.031 C 
HETATM   20  C1  UNL     1      26.601   3.660  49.336  1.00  0.00     0.036 C 
ENDBRANCH  17  18
BRANCH  17  21
HETATM   21  O3  UNL     1      22.854   4.005  48.689  1.00  0.00    -0.330 OA
BRANCH  21  22
HETATM   22  C16 UNL     1      22.831   2.644  48.315  1.00  0.00     0.340 C 
BRANCH  22  23
HETATM   23  O4  UNL     1      22.538   1.820  49.371  1.00  0.00    -0.372 OA
HETATM   24  C17 UNL     1      21.416   1.055  49.062  1.00  0.00     0.204 C 
ENDBRANCH  22  23
ENDBRANCH  21  22
ENDBRANCH  17  21
ENDBRANCH  15  17
ENDBRANCH  14  15
ENDBRANCH   1  14
BRANCH   3  25
HETATM   25  O1  UNL     1      23.114  -0.947  53.648  1.00  0.00    -0.355 OA
HETATM   26  C9  UNL     1      22.066  -1.325  54.449  1.00  0.00     0.210 C 
ENDBRANCH   3  25
TORSDOF 8
ENDMDL
MODEL 3
REMARK VINA RESULT:      -6.9      1.727      2.068
REMARK  8 active torsions:
REMARK  status: ('A' for Active; 'I' for Inactive)
REMARK    1  A    between atoms: C3_3  and  C4_4 
REMARK    2  A    between atoms: C4_4  and  N1_5 
REMARK    3  A    between atoms: C4_4  and  O3_21 
REMARK    4  A    between atoms: N1_5  and  C5_6 
REMARK    5  A    between atoms: C5_6  and  C6_7 
REMARK    6  A    between atoms: C8_9  and  O1_10 
REMARK    7  A    between atoms: O3_21  and  C16_22 
REMARK    8  A    between atoms: C16_22  and  O4_23 
ROOT
HETATM    1  C6  UNL     1      24.129   2.347  52.198  1.00  0.00     0.008 A 
HETATM    2  C7  UNL     1      23.810   2.889  50.978  1.00  0.00     0.048 A 
HETATM    3  C8  UNL     1      22.808   2.377  50.211  1.00  0.00     0.078 A 
HETATM    4  C10 UNL     1      22.146   1.307  50.704  1.00  0.00     0.026 A 
HETATM    5  C11 UNL     1      22.290   0.555  51.905  1.00  0.00     0.318 A 
HETATM    6  C12 UNL     1      23.291   1.331  52.342  1.00  0.00     0.186 A 
HETATM    7  N2  UNL     1      22.681   0.701  53.459  1.00  0.00     0.074 N 
HETATM    8  N3  UNL     1      21.963  -0.188  54.309  1.00  0.00    -0.078 NA
HETATM    9  C13 UNL     1      20.676   0.066  54.328  1.00  0.00     0.111 C 
HETATM   10  C14 UNL     1      20.407   0.802  53.263  1.00  0.00     0.009 C 
HETATM   11  C15 UNL     1      20.231   0.470  51.913  1.00  0.00     0.033 C 
HETATM   12  O2  UNL     1      21.274   0.251  50.914  1.00  0.00     0.000 OA
HETATM   13  H15 UNL     1      22.846   1.293  54.301  1.00  0.00     0.319 HD
ENDROOT
BRANCH   1  14
HETATM   14  C5  UNL     1      25.006   2.532  53.322  1.00  0.00     0.314 C 
BRANCH  14  15
HETATM   15  N1  UNL     1      26.397   2.646  52.969  1.00  0.00     0.120 N 
HETATM   16  H7  UNL     1      26.436   2.446  51.921  1.00  0.00     0.320 HD
BRANCH  15  17
HETATM   17  C4  UNL     1      27.208   1.596  53.551  1.00  0.00     0.382 C 
BRANCH  17  18
HETATM   18  C3  UNL     1      26.378   0.699  54.409  1.00  0.00     0.032 C 
HETATM   19  C2  UNL     1      25.929  -0.499  54.091  1.00  0.00    -0.031 C 
HETATM   20  C1  UNL     1      26.253  -1.053  52.767  1.00  0.00     0.036 C 
ENDBRANCH  17  18
BRANCH  17  21
HETATM   21  O3  UNL     1      28.305   2.044  54.252  1.00  0.00    -0.330 OA
BRANCH  21  22
HETATM   22  C16 UNL     1      29.027   0.889  54.624  1.00  0.00     0.340 C 
BRANCH  22  23
HETATM   23  O4  UNL     1      29.843   0.439  53.618  1.00  0.00    -0.372 OA
HETATM   24  C17 UNL     1      29.890  -0.952  53.649  1.00  0.00     0.204 C 
ENDBRANCH  22  23
ENDBRANCH  21  22
ENDBRANCH  17  21
ENDBRANCH  15  17
ENDBRANCH  14  15
ENDBRANCH   1  14
BRANCH   3  25
HETATM   25  O1  UNL     1      22.122   2.504  49.036  1.00  0.00    -0.355 OA
HETATM   26  C9  UNL     1      22.321   1.901  47.819  1.00  0.00     0.210 C 
ENDBRANCH   3  25
TORSDOF 8
ENDMDL
MODEL 4
REMARK VINA RESULT:      -6.8      3.379      5.678
REMARK  8 active torsions:
REMARK  status: ('A' for Active; 'I' for Inactive)
REMARK    1  A    between atoms: C3_3  and  C4_4 
REMARK    2  A    between atoms: C4_4  and  N1_5 
REMARK    3  A    between atoms: C4_4  and  O3_21 
REMARK    4  A    between atoms: N1_5  and  C5_6 
REMARK    5  A    between atoms: C5_6  and  C6_7 
REMARK    6  A    between atoms: C8_9  and  O1_10 
REMARK    7  A    between atoms: O3_21  and  C16_22 
REMARK    8  A    between atoms: C16_22  and  O4_23 
ROOT
HETATM    1  C6  UNL     1      25.441   2.077  51.450  1.00  0.00     0.008 A 
HETATM    2  C7  UNL     1      24.100   2.060  51.738  1.00  0.00     0.048 A 
HETATM    3  C8  UNL     1      23.558   1.114  52.557  1.00  0.00     0.078 A 
HETATM    4  C10 UNL     1      24.404   0.191  53.066  1.00  0.00     0.026 A 
HETATM    5  C11 UNL     1      25.802  -0.025  52.910  1.00  0.00     0.318 A 
HETATM    6  C12 UNL     1      25.938   1.040  52.107  1.00  0.00     0.186 A 
HETATM    7  N2  UNL     1      27.195   0.755  52.704  1.00  0.00     0.074 N 
HETATM    8  N3  UNL     1      28.301   0.115  53.334  1.00  0.00    -0.078 NA
HETATM    9  C13 UNL     1      28.191   0.097  54.641  1.00  0.00     0.111 C 
HETATM   10  C14 UNL     1      26.920   0.323  54.930  1.00  0.00     0.009 C 
HETATM   11  C15 UNL     1      25.792  -0.509  54.913  1.00  0.00     0.033 C 
HETATM   12  O2  UNL     1      24.976  -0.866  53.755  1.00  0.00     0.000 OA
HETATM   13  H15 UNL     1      27.755   1.634  52.727  1.00  0.00     0.319 HD
ENDROOT
BRANCH   1  14
HETATM   14  C5  UNL     1      26.432   2.831  50.733  1.00  0.00     0.314 C 
BRANCH  14  15
HETATM   15  N1  UNL     1      26.139   4.237  50.628  1.00  0.00     0.120 N 
HETATM   16  H7  UNL     1      25.229   4.373  51.170  1.00  0.00     0.320 HD
BRANCH  15  17
HETATM   17  C4  UNL     1      25.801   4.639  49.278  1.00  0.00     0.382 C 
BRANCH  17  18
HETATM   18  C3  UNL     1      26.325   6.005  48.985  1.00  0.00     0.032 C 
HETATM   19  C2  UNL     1      27.531   6.308  48.544  1.00  0.00    -0.031 C 
HETATM   20  C1  UNL     1      28.493   5.221  48.302  1.00  0.00     0.036 C 
ENDBRANCH  17  18
BRANCH  17  21
HETATM   21  O3  UNL     1      24.459   4.569  48.981  1.00  0.00    -0.330 OA
BRANCH  21  22
HETATM   22  C16 UNL     1      23.859   5.669  49.633  1.00  0.00     0.340 C 
BRANCH  22  23
HETATM   23  O4  UNL     1      23.462   5.363  50.910  1.00  0.00    -0.372 OA
HETATM   24  C17 UNL     1      22.084   5.532  51.017  1.00  0.00     0.204 C 
ENDBRANCH  22  23
ENDBRANCH  21  22
ENDBRANCH  17  21
ENDBRANCH  15  17
ENDBRANCH  14  15
ENDBRANCH   1  14
BRANCH   3  25
HETATM   25  O1  UNL     1      22.407   0.663  53.136  1.00  0.00    -0.355 OA
HETATM   26  C9  UNL     1      21.120   1.134  53.047  1.00  0.00     0.210 C 
ENDBRANCH   3  25
TORSDOF 8
ENDMDL
MODEL 5
REMARK VINA RESULT:      -6.6      1.987      3.819
REMARK  8 active torsions:
REMARK  status: ('A' for Active; 'I' for Inactive)
REMARK    1  A    between atoms: C3_3  and  C4_4 
REMARK    2  A    between atoms: C4_4  and  N1_5 
REMARK    3  A    between atoms: C4_4  and  O3_21 
REMARK    4  A    between atoms: N1_5  and  C5_6 
REMARK    5  A    between atoms: C5_6  and  C6_7 
REMARK    6  A    between atoms: C8_9  and  O1_10 
REMARK    7  A    between atoms: O3_21  and  C16_22 
REMARK    8  A    between atoms: C16_22  and  O4_23 
ROOT
HETATM    1  C6  UNL     1      24.363   2.466  52.407  1.00  0.00     0.008 A 
HETATM    2  C7  UNL     1      23.372   1.519  52.348  1.00  0.00     0.048 A 
HETATM    3  C8  UNL     1      22.060   1.867  52.234  1.00  0.00     0.078 A 
HETATM    4  C10 UNL     1      21.780   3.189  52.188  1.00  0.00     0.026 A 
HETATM    5  C11 UNL     1      22.601   4.350  52.252  1.00  0.00     0.318 A 
HETATM    6  C12 UNL     1      23.725   3.624  52.342  1.00  0.00     0.186 A 
HETATM    7  N2  UNL     1      24.051   4.909  51.831  1.00  0.00     0.074 N 
HETATM    8  N3  UNL     1      24.049   6.294  51.499  1.00  0.00    -0.078 NA
HETATM    9  C13 UNL     1      23.337   6.552  50.428  1.00  0.00     0.111 C 
HETATM   10  C14 UNL     1      22.538   5.517  50.230  1.00  0.00     0.009 C 
HETATM   11  C15 UNL     1      21.331   5.135  50.832  1.00  0.00     0.033 C 
HETATM   12  O2  UNL     1      21.160   4.425  52.097  1.00  0.00     0.000 OA
HETATM   13  H15 UNL     1      24.927   4.828  51.272  1.00  0.00     0.319 HD
ENDROOT
BRANCH   1  14
HETATM   14  C5  UNL     1      25.793   2.602  52.480  1.00  0.00     0.314 C 
BRANCH  14  15
HETATM   15  N1  UNL     1      26.324   2.517  53.815  1.00  0.00     0.120 N 
HETATM   16  H7  UNL     1      27.054   3.294  53.874  1.00  0.00     0.320 HD
BRANCH  15  17
HETATM   17  C4  UNL     1      27.089   1.307  54.036  1.00  0.00     0.382 C 
BRANCH  17  18
HETATM   18  C3  UNL     1      26.241   0.253  54.668  1.00  0.00     0.032 C 
HETATM   19  C2  UNL     1      25.761  -0.827  54.083  1.00  0.00    -0.031 C 
HETATM   20  C1  UNL     1      26.064  -1.060  52.662  1.00  0.00     0.036 C 
ENDBRANCH  17  18
BRANCH  17  21
HETATM   21  O3  UNL     1      28.245   1.486  54.761  1.00  0.00    -0.330 OA
BRANCH  21  22
HETATM   22  C16 UNL     1      28.863   0.219  54.829  1.00  0.00     0.340 C 
BRANCH  22  23
HETATM   23  O4  UNL     1      29.692  -0.014  53.762  1.00  0.00    -0.372 OA
HETATM   24  C17 UNL     1      29.667  -1.369  53.445  1.00  0.00     0.204 C 
ENDBRANCH  22  23
ENDBRANCH  21  22
ENDBRANCH  17  21
ENDBRANCH  15  17
ENDBRANCH  14  15
ENDBRANCH   1  14
BRANCH   3  25
HETATM   25  O1  UNL     1      20.781   1.396  52.137  1.00  0.00    -0.355 OA
HETATM   26  C9  UNL     1      20.203   0.272  52.674  1.00  0.00     0.210 C 
ENDBRANCH   3  25
TORSDOF 8
ENDMDL
MODEL 6
REMARK VINA RESULT:      -6.5      2.110      2.696
REMARK  8 active torsions:
REMARK  status: ('A' for Active; 'I' for Inactive)
REMARK    1  A    between atoms: C3_3  and  C4_4 
REMARK    2  A    between atoms: C4_4  and  N1_5 
REMARK    3  A    between atoms: C4_4  and  O3_21 
REMARK    4  A    between atoms: N1_5  and  C5_6 
REMARK    5  A    between atoms: C5_6  and  C6_7 
REMARK    6  A    between atoms: C8_9  and  O1_10 
REMARK    7  A    between atoms: O3_21  and  C16_22 
REMARK    8  A    between atoms: C16_22  and  O4_23 
ROOT
HETATM    1  C6  UNL     1      23.099   2.712  52.415  1.00  0.00     0.008 A 
HETATM    2  C7  UNL     1      22.025   3.323  51.818  1.00  0.00     0.048 A 
HETATM    3  C8  UNL     1      20.891   2.633  51.512  1.00  0.00     0.078 A 
HETATM    4  C10 UNL     1      20.876   1.316  51.818  1.00  0.00     0.026 A 
HETATM    5  C11 UNL     1      21.844   0.453  52.405  1.00  0.00     0.318 A 
HETATM    6  C12 UNL     1      22.730   1.447  52.554  1.00  0.00     0.186 A 
HETATM    7  N2  UNL     1      23.032   0.424  53.491  1.00  0.00     0.074 N 
HETATM    8  N3  UNL     1      23.145  -0.822  54.173  1.00  0.00    -0.078 NA
HETATM    9  C13 UNL     1      22.095  -1.085  54.913  1.00  0.00     0.111 C 
HETATM   10  C14 UNL     1      21.111  -0.310  54.487  1.00  0.00     0.009 C 
HETATM   11  C15 UNL     1      20.250  -0.408  53.386  1.00  0.00     0.033 C 
HETATM   12  O2  UNL     1      20.528  -0.011  52.008  1.00  0.00     0.000 OA
HETATM   13  H15 UNL     1      23.536   0.853  54.296  1.00  0.00     0.319 HD
ENDROOT
BRANCH   1  14
HETATM   14  C5  UNL     1      24.408   2.989  52.939  1.00  0.00     0.314 C 
BRANCH  14  15
HETATM   15  N1  UNL     1      25.332   3.514  51.967  1.00  0.00     0.120 N 
HETATM   16  H7  UNL     1      24.720   3.895  51.180  1.00  0.00     0.320 HD
BRANCH  15  17
HETATM   17  C4  UNL     1      26.115   2.478  51.325  1.00  0.00     0.382 C 
BRANCH  17  18
HETATM   18  C3  UNL     1      27.206   2.003  52.226  1.00  0.00     0.032 C 
HETATM   19  C2  UNL     1      27.394   0.769  52.652  1.00  0.00    -0.031 C 
HETATM   20  C1  UNL     1      26.459  -0.282  52.223  1.00  0.00     0.036 C 
ENDBRANCH  17  18
BRANCH  17  21
HETATM   21  O3  UNL     1      26.629   2.829  50.097  1.00  0.00    -0.330 OA
BRANCH  21  22
HETATM   22  C16 UNL     1      25.670   3.678  49.503  1.00  0.00     0.340 C 
BRANCH  22  23
HETATM   23  O4  UNL     1      26.185   4.912  49.198  1.00  0.00    -0.372 OA
HETATM   24  C17 UNL     1      27.494   4.766  48.745  1.00  0.00     0.204 C 
ENDBRANCH  22  23
ENDBRANCH  21  22
ENDBRANCH  17  21
ENDBRANCH  15  17
ENDBRANCH  14  15
ENDBRANCH   1  14
BRANCH   3  25
HETATM   25  O1  UNL     1      19.639   2.720  50.972  1.00  0.00    -0.355 OA
HETATM   26  C9  UNL     1      18.413   2.829  51.580  1.00  0.00     0.210 C 
ENDBRANCH   3  25
TORSDOF 8
ENDMDL
MODEL 7
REMARK VINA RESULT:      -6.4      3.039      6.173
REMARK  8 active torsions:
REMARK  status: ('A' for Active; 'I' for Inactive)
REMARK    1  A    between atoms: C3_3  and  C4_4 
REMARK    2  A    between atoms: C4_4  and  N1_5 
REMARK    3  A    between atoms: C4_4  and  O3_21 
REMARK    4  A    between atoms: N1_5  and  C5_6 
REMARK    5  A    between atoms: C5_6  and  C6_7 
REMARK    6  A    between atoms: C8_9  and  O1_10 
REMARK    7  A    between atoms: O3_21  and  C16_22 
REMARK    8  A    between atoms: C16_22  and  O4_23 
ROOT
HETATM    1  C6  UNL     1      23.879   2.388  52.064  1.00  0.00     0.008 A 
HETATM    2  C7  UNL     1      23.050   1.455  52.632  1.00  0.00     0.048 A 
HETATM    3  C8  UNL     1      23.526   0.265  53.094  1.00  0.00     0.078 A 
HETATM    4  C10 UNL     1      24.853   0.045  52.960  1.00  0.00     0.026 A 
HETATM    5  C11 UNL     1      25.907   0.821  52.399  1.00  0.00     0.318 A 
HETATM    6  C12 UNL     1      25.081   1.834  52.097  1.00  0.00     0.186 A 
HETATM    7  N2  UNL     1      26.404   2.340  52.203  1.00  0.00     0.074 N 
HETATM    8  N3  UNL     1      27.822   2.479  52.230  1.00  0.00    -0.078 NA
HETATM    9  C13 UNL     1      28.333   2.174  53.399  1.00  0.00     0.111 C 
HETATM   10  C14 UNL     1      27.425   1.466  54.051  1.00  0.00     0.009 C 
HETATM   11  C15 UNL     1      27.047   0.120  53.965  1.00  0.00     0.033 C 
HETATM   12  O2  UNL     1      26.134  -0.482  52.996  1.00  0.00     0.000 OA
HETATM   13  H15 UNL     1      26.351   3.351  52.451  1.00  0.00     0.319 HD
ENDROOT
BRANCH   1  14
HETATM   14  C5  UNL     1      23.874   3.713  51.504  1.00  0.00     0.314 C 
BRANCH  14  15
HETATM   15  N1  UNL     1      23.908   3.743  50.065  1.00  0.00     0.120 N 
HETATM   16  H7  UNL     1      24.150   4.752  49.814  1.00  0.00     0.320 HD
BRANCH  15  17
HETATM   17  C4  UNL     1      22.601   3.544  49.471  1.00  0.00     0.382 C 
BRANCH  17  18
HETATM   18  C3  UNL     1      22.636   2.429  48.479  1.00  0.00     0.032 C 
HETATM   19  C2  UNL     1      21.861   1.362  48.466  1.00  0.00    -0.031 C 
HETATM   20  C1  UNL     1      20.843   1.210  49.518  1.00  0.00     0.036 C 
ENDBRANCH  17  18
BRANCH  17  21
HETATM   21  O3  UNL     1      22.055   4.672  48.903  1.00  0.00    -0.330 OA
BRANCH  21  22
HETATM   22  C16 UNL     1      23.102   5.296  48.191  1.00  0.00     0.340 C 
BRANCH  22  23
HETATM   23  O4  UNL     1      23.555   6.428  48.818  1.00  0.00    -0.372 OA
HETATM   24  C17 UNL     1      24.745   6.840  48.225  1.00  0.00     0.204 C 
ENDBRANCH  22  23
ENDBRANCH  21  22
ENDBRANCH  17  21
ENDBRANCH  15  17
ENDBRANCH  14  15
ENDBRANCH   1  14
BRANCH   3  25
HETATM   25  O1  UNL     1      23.194  -0.916  53.695  1.00  0.00    -0.355 OA
HETATM   26  C9  UNL     1      22.652  -1.164  54.932  1.00  0.00     0.210 C 
ENDBRANCH   3  25
TORSDOF 8
ENDMDL
MODEL 8
REMARK VINA RESULT:      -6.4      1.599      2.210
REMARK  8 active torsions:
REMARK  status: ('A' for Active; 'I' for Inactive)
REMARK    1  A    between atoms: C3_3  and  C4_4 
REMARK    2  A    between atoms: C4_4  and  N1_5 
REMARK    3  A    between atoms: C4_4  and  O3_21 
REMARK    4  A    between atoms: N1_5  and  C5_6 
REMARK    5  A    between atoms: C5_6  and  C6_7 
REMARK    6  A    between atoms: C8_9  and  O1_10 
REMARK    7  A    between atoms: O3_21  and  C16_22 
REMARK    8  A    between atoms: C16_22  and  O4_23 
ROOT
HETATM    1  C6  UNL     1      23.518   2.561  52.563  1.00  0.00     0.008 A 
HETATM    2  C7  UNL     1      22.649   3.334  51.835  1.00  0.00     0.048 A 
HETATM    3  C8  UNL     1      21.487   2.824  51.337  1.00  0.00     0.078 A 
HETATM    4  C10 UNL     1      21.235   1.520  51.589  1.00  0.00     0.026 A 
HETATM    5  C11 UNL     1      21.966   0.514  52.283  1.00  0.00     0.318 A 
HETATM    6  C12 UNL     1      22.953   1.364  52.599  1.00  0.00     0.186 A 
HETATM    7  N2  UNL     1      22.956   0.294  53.532  1.00  0.00     0.074 N 
HETATM    8  N3  UNL     1      22.782  -0.964  54.178  1.00  0.00    -0.078 NA
HETATM    9  C13 UNL     1      21.604  -1.079  54.742  1.00  0.00     0.111 C 
HETATM   10  C14 UNL     1      20.819  -0.161  54.202  1.00  0.00     0.009 C 
HETATM   11  C15 UNL     1      20.132  -0.114  52.981  1.00  0.00     0.033 C 
HETATM   12  O2  UNL     1      20.673   0.257  51.676  1.00  0.00     0.000 OA
HETATM   13  H15 UNL     1      23.387   0.632  54.419  1.00  0.00     0.319 HD
ENDROOT
BRANCH   1  14
HETATM   14  C5  UNL     1      24.757   2.633  53.288  1.00  0.00     0.314 C 
BRANCH  14  15
HETATM   15  N1  UNL     1      25.816   1.839  52.722  1.00  0.00     0.120 N 
HETATM   16  H7  UNL     1      26.391   1.506  53.557  1.00  0.00     0.320 HD
BRANCH  15  17
HETATM   17  C4  UNL     1      26.755   2.628  51.950  1.00  0.00     0.382 C 
BRANCH  17  18
HETATM   18  C3  UNL     1      26.570   2.389  50.488  1.00  0.00     0.032 C 
HETATM   19  C2  UNL     1      26.104   3.249  49.603  1.00  0.00    -0.031 C 
HETATM   20  C1  UNL     1      25.711   4.593  50.055  1.00  0.00     0.036 C 
ENDBRANCH  17  18
BRANCH  17  21
HETATM   21  O3  UNL     1      28.074   2.449  52.299  1.00  0.00    -0.330 OA
BRANCH  21  22
HETATM   22  C16 UNL     1      28.064   1.627  53.447  1.00  0.00     0.340 C 
BRANCH  22  23
HETATM   23  O4  UNL     1      28.295   0.309  53.145  1.00  0.00    -0.372 OA
HETATM   24  C17 UNL     1      29.476  -0.104  53.757  1.00  0.00     0.204 C 
ENDBRANCH  22  23
ENDBRANCH  21  22
ENDBRANCH  17  21
ENDBRANCH  15  17
ENDBRANCH  14  15
ENDBRANCH   1  14
BRANCH   3  25
HETATM   25  O1  UNL     1      20.359   3.104  50.620  1.00  0.00    -0.355 OA
HETATM   26  C9  UNL     1      20.186   3.301  49.273  1.00  0.00     0.210 C 
ENDBRANCH   3  25
TORSDOF 8
ENDMDL
MODEL 9
REMARK VINA RESULT:      -6.4      3.829      5.736
REMARK  8 active torsions:
REMARK  status: ('A' for Active; 'I' for Inactive)
REMARK    1  A    between atoms: C3_3  and  C4_4 
REMARK    2  A    between atoms: C4_4  and  N1_5 
REMARK    3  A    between atoms: C4_4  and  O3_21 
REMARK    4  A    between atoms: N1_5  and  C5_6 
REMARK    5  A    between atoms: C5_6  and  C6_7 
REMARK    6  A    between atoms: C8_9  and  O1_10 
REMARK    7  A    between atoms: O3_21  and  C16_22 
REMARK    8  A    between atoms: C16_22  and  O4_23 
ROOT
HETATM    1  C6  UNL     1      26.453   3.663  49.915  1.00  0.00     0.008 A 
HETATM    2  C7  UNL     1      27.300   4.520  49.259  1.00  0.00     0.048 A 
HETATM    3  C8  UNL     1      26.838   5.641  48.636  1.00  0.00     0.078 A 
HETATM    4  C10 UNL     1      25.506   5.865  48.691  1.00  0.00     0.026 A 
HETATM    5  C11 UNL     1      24.430   5.138  49.275  1.00  0.00     0.318 A 
HETATM    6  C12 UNL     1      25.250   4.193  49.755  1.00  0.00     0.186 A 
HETATM    7  N2  UNL     1      24.060   4.201  50.529  1.00  0.00     0.074 N 
HETATM    8  N3  UNL     1      22.720   4.368  50.984  1.00  0.00    -0.078 NA
HETATM    9  C13 UNL     1      22.500   5.567  51.466  1.00  0.00     0.111 C 
HETATM   10  C14 UNL     1      23.466   6.352  51.021  1.00  0.00     0.009 C 
HETATM   11  C15 UNL     1      23.668   6.983  49.785  1.00  0.00     0.033 C 
HETATM   12  O2  UNL     1      24.231   6.393  48.573  1.00  0.00     0.000 OA
HETATM   13  H15 UNL     1      24.280   3.823  51.475  1.00  0.00     0.319 HD
ENDROOT
BRANCH   1  14
HETATM   14  C5  UNL     1      26.451   2.461  50.704  1.00  0.00     0.314 C 
BRANCH  14  15
HETATM   15  N1  UNL     1      27.058   2.609  52.001  1.00  0.00     0.120 N 
HETATM   16  H7  UNL     1      27.996   2.104  51.929  1.00  0.00     0.320 HD
BRANCH  15  17
HETATM   17  C4  UNL     1      26.352   1.879  53.035  1.00  0.00     0.382 C 
BRANCH  17  18
HETATM   18  C3  UNL     1      24.970   2.413  53.209  1.00  0.00     0.032 C 
HETATM   19  C2  UNL     1      23.848   1.719  53.182  1.00  0.00    -0.031 C 
HETATM   20  C1  UNL     1      23.916   0.266  52.960  1.00  0.00     0.036 C 
ENDBRANCH  17  18
BRANCH  17  21
HETATM   21  O3  UNL     1      27.003   1.834  54.247  1.00  0.00    -0.330 OA
BRANCH  21  22
HETATM   22  C16 UNL     1      27.385   0.488  54.433  1.00  0.00     0.340 C 
BRANCH  22  23
HETATM   23  O4  UNL     1      27.892  -0.072  53.288  1.00  0.00    -0.372 OA
HETATM   24  C17 UNL     1      29.150  -0.607  53.553  1.00  0.00     0.204 C 
ENDBRANCH  22  23
ENDBRANCH  21  22
ENDBRANCH  17  21
ENDBRANCH  15  17
ENDBRANCH  14  15
ENDBRANCH   1  14
BRANCH   3  25
HETATM   25  O1  UNL     1      27.190   6.742  47.909  1.00  0.00    -0.355 OA
HETATM   26  C9  UNL     1      27.424   8.035  48.306  1.00  0.00     0.210 C 
ENDBRANCH   3  25
TORSDOF 8
ENDMDL
