MODEL 1
REMARK VINA RESULT:      -9.1      0.000      0.000
REMARK  2 active torsions:
REMARK  status: ('A' for Active; 'I' for Inactive)
REMARK    1  A    between atoms: C5_5  and  C6_6 
REMARK    2  A    between atoms: N1_9  and  C9_10 
ROOT
HETATM    1  C1  UNL     1      21.227   1.910  49.686  1.00  0.00     0.021 C 
HETATM    2  C2  UNL     1      22.426   2.658  50.310  1.00  0.00     0.001 C 
HETATM    3  C3  UNL     1      23.119   1.740  51.212  1.00  0.00    -0.015 C 
HETATM    4  C4  UNL     1      24.435   1.581  51.437  1.00  0.00     0.004 C 
HETATM    5  C5  UNL     1      25.826   1.955  51.181  1.00  0.00    -0.051 C 
HETATM    6  C13 UNL     1      26.336   2.896  50.413  1.00  0.00     0.029 C 
HETATM    7  C14 UNL     1      26.303   4.012  49.495  1.00  0.00     0.041 C 
HETATM    8  C15 UNL     1      27.503   4.606  48.917  1.00  0.00     0.099 C 
HETATM    9  N2  UNL     1      28.487   5.078  48.464  1.00  0.00    -0.191 NA
HETATM   10  C16 UNL     1      25.235   4.648  49.042  1.00  0.00     0.002 C 
HETATM   11  C17 UNL     1      23.885   4.317  49.428  1.00  0.00     0.038 C 
HETATM   12  C18 UNL     1      22.777   5.215  48.966  1.00  0.00     0.278 C 
HETATM   13  N3  UNL     1      21.686   4.992  49.927  1.00  0.00     0.085 N 
HETATM   14  C19 UNL     1      21.934   3.933  50.859  1.00  0.00     0.282 C 
HETATM   15  C20 UNL     1      23.448   2.920  49.175  1.00  0.00     0.025 C 
HETATM   16  H23 UNL     1      21.625   5.880  50.484  1.00  0.00     0.315 HD
ENDROOT
BRANCH   5  17
HETATM   17  C6  UNL     1      26.713   1.028  51.983  1.00  0.00     0.048 C 
HETATM   18  C7  UNL     1      25.878  -0.088  52.582  1.00  0.00     0.041 C 
HETATM   19  C8  UNL     1      26.233  -0.135  54.031  1.00  0.00     0.273 C 
HETATM   20  N1  UNL     1      27.193   0.899  54.301  1.00  0.00     0.098 N 
HETATM   21  C12 UNL     1      27.311   1.733  53.155  1.00  0.00     0.282 C 
BRANCH  20  22
HETATM   22  C9  UNL     1      28.504   0.397  54.616  1.00  0.00     0.270 C 
HETATM   23  C10 UNL     1      28.956  -0.846  53.938  1.00  0.00     0.205 C 
HETATM   24  O1  UNL     1      30.163  -0.218  53.634  1.00  0.00    -0.387 OA
HETATM   25  C11 UNL     1      29.675   1.038  53.943  1.00  0.00     0.205 C 
ENDBRANCH  20  22
ENDBRANCH   5  17
TORSDOF 2
ENDMDL
MODEL 2
REMARK VINA RESULT:      -9.0      3.000      7.039
REMARK  2 active torsions:
REMARK  status: ('A' for Active; 'I' for Inactive)
REMARK    1  A    between atoms: C5_5  and  C6_6 
REMARK    2  A    between atoms: N1_9  and  C9_10 
ROOT
HETATM    1  C1  UNL     1      28.125  -0.792  53.083  1.00  0.00     0.021 C 
HETATM    2  C2  UNL     1      26.958   0.210  53.216  1.00  0.00     0.001 C 
HETATM    3  C3  UNL     1      27.165   1.286  52.249  1.00  0.00    -0.015 C 
HETATM    4  C4  UNL     1      26.275   1.946  51.489  1.00  0.00     0.004 C 
HETATM    5  C5  UNL     1      24.898   2.184  51.054  1.00  0.00    -0.051 C 
HETATM    6  C13 UNL     1      23.765   1.645  51.455  1.00  0.00     0.029 C 
HETATM    7  C14 UNL     1      22.924   0.781  52.252  1.00  0.00     0.041 C 
HETATM    8  C15 UNL     1      21.486   0.653  52.044  1.00  0.00     0.099 C 
HETATM    9  N2  UNL     1      20.322   0.567  51.864  1.00  0.00    -0.191 NA
HETATM   10  C16 UNL     1      23.296  -0.005  53.249  1.00  0.00     0.002 C 
HETATM   11  C17 UNL     1      24.655  -0.106  53.722  1.00  0.00     0.038 C 
HETATM   12  C18 UNL     1      24.916  -0.910  54.960  1.00  0.00     0.278 C 
HETATM   13  N3  UNL     1      26.181  -0.382  55.494  1.00  0.00     0.085 N 
HETATM   14  C19 UNL     1      26.825   0.570  54.638  1.00  0.00     0.282 C 
HETATM   15  C20 UNL     1      25.677  -0.505  52.720  1.00  0.00     0.025 C 
HETATM   16  H23 UNL     1      25.916   0.129  56.372  1.00  0.00     0.315 HD
ENDROOT
BRANCH   5  17
HETATM   17  C6  UNL     1      24.928   3.233  49.963  1.00  0.00     0.048 C 
HETATM   18  C7  UNL     1      26.307   3.277  49.333  1.00  0.00     0.041 C 
HETATM   19  C8  UNL     1      26.712   4.713  49.332  1.00  0.00     0.273 C 
HETATM   20  N1  UNL     1      25.667   5.485  49.945  1.00  0.00     0.098 N 
HETATM   21  C12 UNL     1      24.716   4.600  50.524  1.00  0.00     0.282 C 
BRANCH  20  22
HETATM   22  C9  UNL     1      24.967   6.339  49.023  1.00  0.00     0.270 C 
HETATM   23  C10 UNL     1      24.335   7.573  49.558  1.00  0.00     0.205 C 
HETATM   24  O1  UNL     1      24.916   8.298  48.518  1.00  0.00    -0.387 OA
HETATM   25  C11 UNL     1      25.780   7.273  48.184  1.00  0.00     0.205 C 
ENDBRANCH  20  22
ENDBRANCH   5  17
TORSDOF 2
ENDMDL
MODEL 3
REMARK VINA RESULT:      -8.8      2.358      4.155
REMARK  2 active torsions:
REMARK  status: ('A' for Active; 'I' for Inactive)
REMARK    1  A    between atoms: C5_5  and  C6_6 
REMARK    2  A    between atoms: N1_9  and  C9_10 
ROOT
HETATM    1  C1  UNL     1      22.531   5.366  51.040  1.00  0.00     0.021 C 
HETATM    2  C2  UNL     1      22.684   3.830  50.982  1.00  0.00     0.001 C 
HETATM    3  C3  UNL     1      24.110   3.511  50.980  1.00  0.00    -0.015 C 
HETATM    4  C4  UNL     1      24.772   2.512  51.590  1.00  0.00     0.004 C 
HETATM    5  C5  UNL     1      24.780   1.318  52.434  1.00  0.00    -0.051 C 
HETATM    6  C13 UNL     1      23.789   0.654  52.993  1.00  0.00     0.029 C 
HETATM    7  C14 UNL     1      22.409   0.360  53.309  1.00  0.00     0.041 C 
HETATM    8  C15 UNL     1      22.008  -0.705  54.220  1.00  0.00     0.099 C 
HETATM    9  N2  UNL     1      21.702  -1.577  54.957  1.00  0.00    -0.191 NA
HETATM   10  C16 UNL     1      21.332   0.979  52.854  1.00  0.00     0.002 C 
HETATM   11  C17 UNL     1      21.378   2.077  51.919  1.00  0.00     0.038 C 
HETATM   12  C18 UNL     1      20.082   2.585  51.362  1.00  0.00     0.278 C 
HETATM   13  N3  UNL     1      20.447   3.239  50.095  1.00  0.00     0.085 N 
HETATM   14  C19 UNL     1      21.858   3.330  49.869  1.00  0.00     0.282 C 
HETATM   15  C20 UNL     1      22.170   3.264  52.329  1.00  0.00     0.025 C 
HETATM   16  H23 UNL     1      20.057   2.618  49.344  1.00  0.00     0.315 HD
ENDROOT
BRANCH   5  17
HETATM   17  C6  UNL     1      26.219   0.886  52.618  1.00  0.00     0.048 C 
HETATM   18  C7  UNL     1      26.418  -0.496  52.026  1.00  0.00     0.041 C 
HETATM   19  C8  UNL     1      27.098  -1.301  53.083  1.00  0.00     0.273 C 
HETATM   20  N1  UNL     1      27.274  -0.476  54.246  1.00  0.00     0.098 N 
HETATM   21  C12 UNL     1      26.558   0.740  54.064  1.00  0.00     0.282 C 
BRANCH  20  22
HETATM   22  C9  UNL     1      28.647  -0.141  54.511  1.00  0.00     0.270 C 
HETATM   23  C10 UNL     1      29.701  -0.905  53.793  1.00  0.00     0.205 C 
HETATM   24  O1  UNL     1      30.324   0.300  53.467  1.00  0.00    -0.387 OA
HETATM   25  C11 UNL     1      29.219   1.053  53.817  1.00  0.00     0.205 C 
ENDBRANCH  20  22
ENDBRANCH   5  17
TORSDOF 2
ENDMDL
MODEL 4
REMARK VINA RESULT:      -8.3      3.552      7.007
REMARK  2 active torsions:
REMARK  status: ('A' for Active; 'I' for Inactive)
REMARK    1  A    between atoms: C5_5  and  C6_6 
REMARK    2  A    between atoms: N1_9  and  C9_10 
ROOT
HETATM    1  C1  UNL     1      25.648  -0.512  55.600  1.00  0.00     0.021 C 
HETATM    2  C2  UNL     1      25.567  -0.312  54.070  1.00  0.00     0.001 C 
HETATM    3  C3  UNL     1      24.163  -0.390  53.672  1.00  0.00    -0.015 C 
HETATM    4  C4  UNL     1      23.485   0.323  52.755  1.00  0.00     0.004 C 
HETATM    5  C5  UNL     1      23.442   1.360  51.725  1.00  0.00    -0.051 C 
HETATM    6  C13 UNL     1      24.398   2.118  51.227  1.00  0.00     0.029 C 
HETATM    7  C14 UNL     1      25.749   2.606  51.073  1.00  0.00     0.041 C 
HETATM    8  C15 UNL     1      26.100   3.725  50.206  1.00  0.00     0.099 C 
HETATM    9  N2  UNL     1      26.366   4.629  49.494  1.00  0.00    -0.191 NA
HETATM   10  C16 UNL     1      26.840   2.151  51.668  1.00  0.00     0.002 C 
HETATM   11  C17 UNL     1      26.844   1.037  52.584  1.00  0.00     0.038 C 
HETATM   12  C18 UNL     1      28.167   0.521  53.065  1.00  0.00     0.278 C 
HETATM   13  N3  UNL     1      27.906  -0.869  53.469  1.00  0.00     0.085 N 
HETATM   14  C19 UNL     1      26.522  -1.237  53.437  1.00  0.00     0.282 C 
HETATM   15  C20 UNL     1      25.964   1.156  53.775  1.00  0.00     0.025 C 
HETATM   16  H23 UNL     1      28.395  -1.460  52.752  1.00  0.00     0.315 HD
ENDROOT
BRANCH   5  17
HETATM   17  C6  UNL     1      22.011   1.483  51.247  1.00  0.00     0.048 C 
HETATM   18  C7  UNL     1      21.360   2.694  51.889  1.00  0.00     0.041 C 
HETATM   19  C8  UNL     1      20.066   2.211  52.456  1.00  0.00     0.273 C 
HETATM   20  N1  UNL     1      19.952   0.802  52.203  1.00  0.00     0.098 N 
HETATM   21  C12 UNL     1      21.190   0.320  51.695  1.00  0.00     0.282 C 
BRANCH  20  22
HETATM   22  C9  UNL     1      18.927   0.470  51.250  1.00  0.00     0.270 C 
HETATM   23  C10 UNL     1      17.833  -0.436  51.689  1.00  0.00     0.205 C 
HETATM   24  O1  UNL     1      16.906   0.455  51.147  1.00  0.00    -0.387 OA
HETATM   25  C11 UNL     1      17.837   1.468  51.023  1.00  0.00     0.205 C 
ENDBRANCH  20  22
ENDBRANCH   5  17
TORSDOF 2
ENDMDL
MODEL 5
REMARK VINA RESULT:      -8.2      3.168      7.027
REMARK  2 active torsions:
REMARK  status: ('A' for Active; 'I' for Inactive)
REMARK    1  A    between atoms: C5_5  and  C6_6 
REMARK    2  A    between atoms: N1_9  and  C9_10 
ROOT
HETATM    1  C1  UNL     1      25.353  -0.628  55.402  1.00  0.00     0.021 C 
HETATM    2  C2  UNL     1      25.278  -0.386  53.879  1.00  0.00     0.001 C 
HETATM    3  C3  UNL     1      23.870  -0.339  53.491  1.00  0.00    -0.015 C 
HETATM    4  C4  UNL     1      23.247   0.448  52.596  1.00  0.00     0.004 C 
HETATM    5  C5  UNL     1      23.283   1.509  51.590  1.00  0.00    -0.051 C 
HETATM    6  C13 UNL     1      24.295   2.197  51.101  1.00  0.00     0.029 C 
HETATM    7  C14 UNL     1      25.681   2.576  50.947  1.00  0.00     0.041 C 
HETATM    8  C15 UNL     1      26.117   3.681  50.102  1.00  0.00     0.099 C 
HETATM    9  N2  UNL     1      26.452   4.577  49.408  1.00  0.00    -0.191 NA
HETATM   10  C16 UNL     1      26.734   2.019  51.522  1.00  0.00     0.002 C 
HETATM   11  C17 UNL     1      26.652   0.887  52.413  1.00  0.00     0.038 C 
HETATM   12  C18 UNL     1      27.932   0.253  52.870  1.00  0.00     0.278 C 
HETATM   13  N3  UNL     1      27.559  -1.120  53.245  1.00  0.00     0.085 N 
HETATM   14  C19 UNL     1      26.149  -1.372  53.216  1.00  0.00     0.282 C 
HETATM   15  C20 UNL     1      25.793   1.050  53.614  1.00  0.00     0.025 C 
HETATM   16  H23 UNL     1      27.993  -1.732  52.511  1.00  0.00     0.315 HD
ENDROOT
BRANCH   5  17
HETATM   17  C6  UNL     1      21.864   1.761  51.127  1.00  0.00     0.048 C 
HETATM   18  C7  UNL     1      21.474   0.727  50.088  1.00  0.00     0.041 C 
HETATM   19  C8  UNL     1      20.914   1.494  48.936  1.00  0.00     0.273 C 
HETATM   20  N1  UNL     1      20.985   2.896  49.241  1.00  0.00     0.098 N 
HETATM   21  C12 UNL     1      21.749   3.074  50.428  1.00  0.00     0.282 C 
BRANCH  20  22
HETATM   22  C9  UNL     1      19.698   3.505  49.452  1.00  0.00     0.270 C 
HETATM   23  C10 UNL     1      19.602   4.604  50.448  1.00  0.00     0.205 C 
HETATM   24  O1  UNL     1      18.897   5.361  49.514  1.00  0.00    -0.387 OA
HETATM   25  C11 UNL     1      19.244   4.531  48.465  1.00  0.00     0.205 C 
ENDBRANCH  20  22
ENDBRANCH   5  17
TORSDOF 2
ENDMDL
MODEL 6
REMARK VINA RESULT:      -8.1      3.451      7.727
REMARK  2 active torsions:
REMARK  status: ('A' for Active; 'I' for Inactive)
REMARK    1  A    between atoms: C5_5  and  C6_6 
REMARK    2  A    between atoms: N1_9  and  C9_10 
ROOT
HETATM    1  C1  UNL     1      27.504  -0.718  52.818  1.00  0.00     0.021 C 
HETATM    2  C2  UNL     1      26.268   0.122  53.209  1.00  0.00     0.001 C 
HETATM    3  C3  UNL     1      26.116   1.196  52.230  1.00  0.00    -0.015 C 
HETATM    4  C4  UNL     1      25.002   1.715  51.685  1.00  0.00     0.004 C 
HETATM    5  C5  UNL     1      23.545   1.758  51.559  1.00  0.00    -0.051 C 
HETATM    6  C13 UNL     1      22.608   1.080  52.189  1.00  0.00     0.029 C 
HETATM    7  C14 UNL     1      22.082   0.128  53.141  1.00  0.00     0.041 C 
HETATM    8  C15 UNL     1      20.664  -0.196  53.245  1.00  0.00     0.099 C 
HETATM    9  N2  UNL     1      19.510  -0.441  53.319  1.00  0.00    -0.191 NA
HETATM   10  C16 UNL     1      22.761  -0.581  54.027  1.00  0.00     0.002 C 
HETATM   11  C17 UNL     1      24.191  -0.489  54.195  1.00  0.00     0.038 C 
HETATM   12  C18 UNL     1      24.817  -1.227  55.341  1.00  0.00     0.278 C 
HETATM   13  N3  UNL     1      26.084  -0.523  55.595  1.00  0.00     0.085 N 
HETATM   14  C19 UNL     1      26.395   0.489  54.630  1.00  0.00     0.282 C 
HETATM   15  C20 UNL     1      25.019  -0.768  52.994  1.00  0.00     0.025 C 
HETATM   16  H23 UNL     1      25.947  -0.035  56.514  1.00  0.00     0.315 HD
ENDROOT
BRANCH   5  17
HETATM   17  C6  UNL     1      23.199   2.779  50.497  1.00  0.00     0.048 C 
HETATM   18  C7  UNL     1      23.004   4.139  51.139  1.00  0.00     0.041 C 
HETATM   19  C8  UNL     1      21.700   4.653  50.628  1.00  0.00     0.273 C 
HETATM   20  N1  UNL     1      21.127   3.663  49.758  1.00  0.00     0.098 N 
HETATM   21  C12 UNL     1      21.889   2.466  49.853  1.00  0.00     0.282 C 
BRANCH  20  22
HETATM   22  C9  UNL     1      21.101   4.058  48.375  1.00  0.00     0.270 C 
HETATM   23  C10 UNL     1      22.294   3.753  47.541  1.00  0.00     0.205 C 
HETATM   24  O1  UNL     1      21.449   3.233  46.561  1.00  0.00    -0.387 OA
HETATM   25  C11 UNL     1      20.364   3.182  47.414  1.00  0.00     0.205 C 
ENDBRANCH  20  22
ENDBRANCH   5  17
TORSDOF 2
ENDMDL
MODEL 7
REMARK VINA RESULT:      -8.1      2.909      5.072
REMARK  2 active torsions:
REMARK  status: ('A' for Active; 'I' for Inactive)
REMARK    1  A    between atoms: C5_5  and  C6_6 
REMARK    2  A    between atoms: N1_9  and  C9_10 
ROOT
HETATM    1  C1  UNL     1      24.699   8.990  47.636  1.00  0.00     0.021 C 
HETATM    2  C2  UNL     1      25.723   8.207  48.485  1.00  0.00     0.001 C 
HETATM    3  C3  UNL     1      25.071   7.003  48.996  1.00  0.00    -0.015 C 
HETATM    4  C4  UNL     1      25.554   5.758  49.148  1.00  0.00     0.004 C 
HETATM    5  C5  UNL     1      26.650   4.794  49.042  1.00  0.00    -0.051 C 
HETATM    6  C13 UNL     1      27.902   4.954  48.664  1.00  0.00     0.029 C 
HETATM    7  C14 UNL     1      29.059   5.691  48.210  1.00  0.00     0.041 C 
HETATM    8  C15 UNL     1      30.331   5.057  47.883  1.00  0.00     0.099 C 
HETATM    9  N2  UNL     1      31.355   4.527  47.628  1.00  0.00    -0.191 NA
HETATM   10  C16 UNL     1      29.155   6.996  48.015  1.00  0.00     0.002 C 
HETATM   11  C17 UNL     1      28.074   7.921  48.258  1.00  0.00     0.038 C 
HETATM   12  C18 UNL     1      28.362   9.388  48.151  1.00  0.00     0.278 C 
HETATM   13  N3  UNL     1      27.324  10.036  48.968  1.00  0.00     0.085 N 
HETATM   14  C19 UNL     1      26.319   9.140  49.457  1.00  0.00     0.282 C 
HETATM   15  C20 UNL     1      26.809   7.670  47.520  1.00  0.00     0.025 C 
HETATM   16  H23 UNL     1      27.831  10.412  49.807  1.00  0.00     0.315 HD
ENDROOT
BRANCH   5  17
HETATM   17  C6  UNL     1      26.120   3.438  49.457  1.00  0.00     0.048 C 
HETATM   18  C7  UNL     1      24.604   3.454  49.438  1.00  0.00     0.041 C 
HETATM   19  C8  UNL     1      24.171   2.905  50.757  1.00  0.00     0.273 C 
HETATM   20  N1  UNL     1      25.341   2.605  51.535  1.00  0.00     0.098 N 
HETATM   21  C12 UNL     1      26.485   3.126  50.870  1.00  0.00     0.282 C 
BRANCH  20  22
HETATM   22  C9  UNL     1      25.552   1.196  51.734  1.00  0.00     0.270 C 
HETATM   23  C10 UNL     1      26.932   0.734  52.037  1.00  0.00     0.205 C 
HETATM   24  O1  UNL     1      26.425  -0.025  53.091  1.00  0.00    -0.387 OA
HETATM   25  C11 UNL     1      25.203   0.621  53.069  1.00  0.00     0.205 C 
ENDBRANCH  20  22
ENDBRANCH   5  17
TORSDOF 2
ENDMDL
MODEL 8
REMARK VINA RESULT:      -8.0      4.124      8.290
REMARK  2 active torsions:
REMARK  status: ('A' for Active; 'I' for Inactive)
REMARK    1  A    between atoms: C5_5  and  C6_6 
REMARK    2  A    between atoms: N1_9  and  C9_10 
ROOT
HETATM    1  C1  UNL     1      27.124   1.475  51.647  1.00  0.00     0.021 C 
HETATM    2  C2  UNL     1      25.839   1.598  52.496  1.00  0.00     0.001 C 
HETATM    3  C3  UNL     1      24.857   2.366  51.733  1.00  0.00    -0.015 C 
HETATM    4  C4  UNL     1      23.527   2.202  51.628  1.00  0.00     0.004 C 
HETATM    5  C5  UNL     1      22.299   1.489  51.978  1.00  0.00    -0.051 C 
HETATM    6  C13 UNL     1      22.096   0.480  52.801  1.00  0.00     0.029 C 
HETATM    7  C14 UNL     1      22.465  -0.530  53.767  1.00  0.00     0.041 C 
HETATM    8  C15 UNL     1      21.528  -1.520  54.284  1.00  0.00     0.099 C 
HETATM    9  N2  UNL     1      20.752  -2.311  54.696  1.00  0.00    -0.191 NA
HETATM   10  C16 UNL     1      23.654  -0.724  54.312  1.00  0.00     0.002 C 
HETATM   11  C17 UNL     1      24.807   0.095  54.024  1.00  0.00     0.038 C 
HETATM   12  C18 UNL     1      26.053  -0.130  54.828  1.00  0.00     0.278 C 
HETATM   13  N3  UNL     1      26.795   1.137  54.736  1.00  0.00     0.085 N 
HETATM   14  C19 UNL     1      26.219   2.088  53.832  1.00  0.00     0.282 C 
HETATM   15  C20 UNL     1      25.218   0.183  52.599  1.00  0.00     0.025 C 
HETATM   16  H23 UNL     1      26.739   1.558  55.696  1.00  0.00     0.315 HD
ENDROOT
BRANCH   5  17
HETATM   17  C6  UNL     1      21.161   2.106  51.194  1.00  0.00     0.048 C 
HETATM   18  C7  UNL     1      21.479   3.557  50.888  1.00  0.00     0.041 C 
HETATM   19  C8  UNL     1      20.278   4.337  51.307  1.00  0.00     0.273 C 
HETATM   20  N1  UNL     1      19.309   3.429  51.856  1.00  0.00     0.098 N 
HETATM   21  C12 UNL     1      19.908   2.148  52.004  1.00  0.00     0.282 C 
BRANCH  20  22
HETATM   22  C9  UNL     1      18.137   3.275  51.037  1.00  0.00     0.270 C 
HETATM   23  C10 UNL     1      16.815   3.572  51.649  1.00  0.00     0.205 C 
HETATM   24  O1  UNL     1      16.495   4.343  50.531  1.00  0.00    -0.387 OA
HETATM   25  C11 UNL     1      17.802   4.378  50.085  1.00  0.00     0.205 C 
ENDBRANCH  20  22
ENDBRANCH   5  17
TORSDOF 2
ENDMDL
MODEL 9
REMARK VINA RESULT:      -7.9      5.093      8.520
REMARK  2 active torsions:
REMARK  status: ('A' for Active; 'I' for Inactive)
REMARK    1  A    between atoms: C5_5  and  C6_6 
REMARK    2  A    between atoms: N1_9  and  C9_10 
ROOT
HETATM    1  C1  UNL     1      23.909   3.223  49.415  1.00  0.00     0.021 C 
HETATM    2  C2  UNL     1      22.985   2.916  50.614  1.00  0.00     0.001 C 
HETATM    3  C3  UNL     1      21.644   2.645  50.102  1.00  0.00    -0.015 C 
HETATM    4  C4  UNL     1      20.734   1.741  50.504  1.00  0.00     0.004 C 
HETATM    5  C5  UNL     1      20.320   0.660  51.399  1.00  0.00    -0.051 C 
HETATM    6  C13 UNL     1      20.934   0.114  52.429  1.00  0.00     0.029 C 
HETATM    7  C14 UNL     1      21.999  -0.059  53.390  1.00  0.00     0.041 C 
HETATM    8  C15 UNL     1      22.006  -1.118  54.392  1.00  0.00     0.099 C 
HETATM    9  N2  UNL     1      21.990  -1.979  55.202  1.00  0.00    -0.191 NA
HETATM   10  C16 UNL     1      23.096   0.670  53.513  1.00  0.00     0.002 C 
HETATM   11  C17 UNL     1      23.395   1.809  52.680  1.00  0.00     0.038 C 
HETATM   12  C18 UNL     1      24.591   2.644  53.026  1.00  0.00     0.278 C 
HETATM   13  N3  UNL     1      24.320   3.959  52.424  1.00  0.00     0.085 N 
HETATM   14  C19 UNL     1      23.146   3.996  51.603  1.00  0.00     0.282 C 
HETATM   15  C20 UNL     1      23.444   1.564  51.216  1.00  0.00     0.025 C 
HETATM   16  H23 UNL     1      24.144   4.602  53.236  1.00  0.00     0.315 HD
ENDROOT
BRANCH   5  17
HETATM   17  C6  UNL     1      18.955   0.181  50.952  1.00  0.00     0.048 C 
HETATM   18  C7  UNL     1      18.123   1.364  50.494  1.00  0.00     0.041 C 
HETATM   19  C8  UNL     1      16.817   1.248  51.206  1.00  0.00     0.273 C 
HETATM   20  N1  UNL     1      16.861   0.094  52.060  1.00  0.00     0.098 N 
HETATM   21  C12 UNL     1      18.191  -0.410  52.091  1.00  0.00     0.282 C 
BRANCH  20  22
HETATM   22  C9  UNL     1      15.998  -0.973  51.629  1.00  0.00     0.270 C 
HETATM   23  C10 UNL     1      15.957  -2.212  52.450  1.00  0.00     0.205 C 
HETATM   24  O1  UNL     1      14.564  -2.167  52.412  1.00  0.00    -0.387 OA
HETATM   25  C11 UNL     1      14.542  -0.865  51.952  1.00  0.00     0.205 C 
ENDBRANCH  20  22
ENDBRANCH   5  17
TORSDOF 2
ENDMDL
