MODEL 1
REMARK VINA RESULT:      -9.6      0.000      0.000
REMARK  7 active torsions:
REMARK  status: ('A' for Active; 'I' for Inactive)
REMARK    1  A    between atoms: C1_2  and  C2_3 
REMARK       I    between atoms: C1_2  and  N2_13 
REMARK    2  A    between atoms: C3_4  and  C4_5 
REMARK    3  A    between atoms: C4_5  and  C5_6 
REMARK    4  A    between atoms: C5_6  and  N1_7 
REMARK    5  A    between atoms: N2_13  and  C11_14 
REMARK    6  A    between atoms: C16_23  and  N7_24 
REMARK    7  A    between atoms: N7_24  and  C17_25 
ROOT
HETATM    1  C11 UNL     1      25.605   3.224  50.014  1.00  0.00     0.131 A 
HETATM    2  C12 UNL     1      25.517   2.598  51.237  1.00  0.00     0.068 A 
HETATM    3  C13 UNL     1      24.292   2.086  51.609  1.00  0.00     0.045 A 
HETATM    4  C14 UNL     1      23.159   2.167  50.829  1.00  0.00     0.110 A 
HETATM    5  C15 UNL     1      23.330   2.807  49.622  1.00  0.00     0.153 A 
HETATM    6  N3  UNL     1      24.507   3.314  49.235  1.00  0.00    -0.241 NA
HETATM    7  N4  UNL     1      22.016   1.673  51.207  1.00  0.00    -0.157 NA
HETATM    8  N5  UNL     1      21.864   1.027  52.435  1.00  0.00    -0.218 N 
HETATM    9  N6  UNL     1      23.009   0.942  53.232  1.00  0.00    -0.268 N 
HETATM   10  C16 UNL     1      24.265   1.495  52.794  1.00  0.00     0.134 A 
HETATM   11  H18 UNL     1      20.969   0.615  52.784  1.00  0.00     0.210 HD
HETATM   12  H19 UNL     1      22.915   0.456  54.167  1.00  0.00     0.190 HD
ENDROOT
BRANCH   1  13
HETATM   13  N2  UNL     1      26.788   3.799  49.489  1.00  0.00    -0.301 N 
HETATM   14  C1  UNL     1      27.007   5.050  48.875  1.00  0.00     0.302 C 
HETATM   15  O1  UNL     1      26.044   5.872  48.718  1.00  0.00    -0.258 OA
HETATM   16  H15 UNL     1      27.579   3.107  49.626  1.00  0.00     0.171 HD
BRANCH  14  17
HETATM   17  C2  UNL     1      28.317   5.418  48.416  1.00  0.00    -0.005 C 
HETATM   18  C3  UNL     1      29.436   5.713  48.014  1.00  0.00    -0.095 C 
BRANCH  18  19
HETATM   19  C4  UNL     1      30.776   6.057  47.527  1.00  0.00     0.124 C 
BRANCH  19  20
HETATM   20  C5  UNL     1      31.705   4.908  47.763  1.00  0.00     0.284 C 
BRANCH  20  21
HETATM   21  N1  UNL     1      32.923   4.981  46.990  1.00  0.00     0.089 N 
HETATM   22  C6  UNL     1      32.858   4.248  45.765  1.00  0.00     0.272 C 
HETATM   23  C7  UNL     1      34.204   4.315  45.083  1.00  0.00     0.030 C 
HETATM   24  C8  UNL     1      35.124   3.404  45.873  1.00  0.00     0.003 C 
HETATM   25  C9  UNL     1      34.856   3.480  47.349  1.00  0.00     0.030 C 
HETATM   26  C10 UNL     1      34.117   4.736  47.736  1.00  0.00     0.272 C 
ENDBRANCH  20  21
ENDBRANCH  19  20
ENDBRANCH  18  19
ENDBRANCH  14  17
ENDBRANCH   1  13
BRANCH  10  27
HETATM   27  N7  UNL     1      25.345   1.337  53.705  1.00  0.00    -0.341 N 
HETATM   28  H20 UNL     1      25.516   1.934  54.553  1.00  0.00     0.167 HD
BRANCH  27  29
HETATM   29  C17 UNL     1      26.265   0.291  53.452  1.00  0.00     0.035 A 
HETATM   30  C18 UNL     1      25.870  -0.934  52.963  1.00  0.00     0.032 A 
HETATM   31  C19 UNL     1      26.739  -1.991  52.700  1.00  0.00     0.046 A 
HETATM   32  C20 UNL     1      28.103  -1.810  52.946  1.00  0.00     0.138 A 
HETATM   33  F1  UNL     1      28.927  -2.847  52.684  1.00  0.00    -0.204 F 
HETATM   34  C21 UNL     1      28.527  -0.589  53.438  1.00  0.00     0.074 A 
HETATM   35 CL1  UNL     1      30.250  -0.451  53.717  1.00  0.00    -0.081 Cl
HETATM   36  C22 UNL     1      27.618   0.421  53.678  1.00  0.00     0.056 A 
ENDBRANCH  27  29
ENDBRANCH  10  27
TORSDOF 7
ENDMDL
MODEL 2
REMARK VINA RESULT:      -9.5      1.281      1.621
REMARK  7 active torsions:
REMARK  status: ('A' for Active; 'I' for Inactive)
REMARK    1  A    between atoms: C1_2  and  C2_3 
REMARK       I    between atoms: C1_2  and  N2_13 
REMARK    2  A    between atoms: C3_4  and  C4_5 
REMARK    3  A    between atoms: C4_5  and  C5_6 
REMARK    4  A    between atoms: C5_6  and  N1_7 
REMARK    5  A    between atoms: N2_13  and  C11_14 
REMARK    6  A    between atoms: C16_23  and  N7_24 
REMARK    7  A    between atoms: N7_24  and  C17_25 
ROOT
HETATM    1  C11 UNL     1      25.974   3.809  49.740  1.00  0.00     0.131 A 
HETATM    2  C12 UNL     1      25.931   3.343  51.035  1.00  0.00     0.068 A 
HETATM    3  C13 UNL     1      24.759   2.764  51.470  1.00  0.00     0.045 A 
HETATM    4  C14 UNL     1      23.634   2.627  50.685  1.00  0.00     0.110 A 
HETATM    5  C15 UNL     1      23.756   3.119  49.405  1.00  0.00     0.153 A 
HETATM    6  N3  UNL     1      24.883   3.685  48.955  1.00  0.00    -0.241 NA
HETATM    7  N4  UNL     1      22.541   2.075  51.126  1.00  0.00    -0.157 NA
HETATM    8  N5  UNL     1      22.437   1.584  52.428  1.00  0.00    -0.218 N 
HETATM    9  N6  UNL     1      23.574   1.719  53.230  1.00  0.00    -0.268 N 
HETATM   10  C16 UNL     1      24.775   2.333  52.723  1.00  0.00     0.134 A 
HETATM   11  H18 UNL     1      21.583   1.134  52.827  1.00  0.00     0.210 HD
HETATM   12  H19 UNL     1      23.516   1.353  54.220  1.00  0.00     0.190 HD
ENDROOT
BRANCH   1  13
HETATM   13  N2  UNL     1      27.101   4.426  49.144  1.00  0.00    -0.301 N 
HETATM   14  C1  UNL     1      27.276   5.736  48.650  1.00  0.00     0.302 C 
HETATM   15  O1  UNL     1      26.322   6.581  48.700  1.00  0.00    -0.258 OA
HETATM   16  H15 UNL     1      27.885   3.714  49.109  1.00  0.00     0.171 HD
BRANCH  14  17
HETATM   17  C2  UNL     1      28.533   6.138  48.081  1.00  0.00    -0.005 C 
HETATM   18  C3  UNL     1      29.602   6.500  47.605  1.00  0.00    -0.095 C 
BRANCH  18  19
HETATM   19  C4  UNL     1      30.881   6.942  47.041  1.00  0.00     0.124 C 
BRANCH  19  20
HETATM   20  C5  UNL     1      32.003   6.475  47.914  1.00  0.00     0.284 C 
BRANCH  20  21
HETATM   21  N1  UNL     1      32.817   5.448  47.309  1.00  0.00     0.089 N 
HETATM   22  C6  UNL     1      32.439   4.126  47.698  1.00  0.00     0.272 C 
HETATM   23  C7  UNL     1      33.405   3.140  47.084  1.00  0.00     0.030 C 
HETATM   24  C8  UNL     1      34.698   3.273  47.867  1.00  0.00     0.003 C 
HETATM   25  C9  UNL     1      34.982   4.698  48.243  1.00  0.00     0.030 C 
HETATM   26  C10 UNL     1      34.226   5.682  47.386  1.00  0.00     0.272 C 
ENDBRANCH  20  21
ENDBRANCH  19  20
ENDBRANCH  18  19
ENDBRANCH  14  17
ENDBRANCH   1  13
BRANCH  10  27
HETATM   27  N7  UNL     1      25.852   2.405  53.647  1.00  0.00    -0.341 N 
HETATM   28  H20 UNL     1      25.960   3.132  54.399  1.00  0.00     0.167 HD
BRANCH  27  29
HETATM   29  C17 UNL     1      26.863   1.419  53.549  1.00  0.00     0.035 A 
HETATM   30  C18 UNL     1      28.182   1.685  53.843  1.00  0.00     0.032 A 
HETATM   31  C19 UNL     1      29.209   0.747  53.760  1.00  0.00     0.046 A 
HETATM   32  C20 UNL     1      28.894  -0.552  53.352  1.00  0.00     0.138 A 
HETATM   33  F1  UNL     1      29.905  -1.444  53.280  1.00  0.00    -0.204 F 
HETATM   34  C21 UNL     1      27.577  -0.847  53.050  1.00  0.00     0.074 A 
HETATM   35 CL1  UNL     1      27.275  -2.496  52.549  1.00  0.00    -0.081 Cl
HETATM   36  C22 UNL     1      26.604   0.125  53.152  1.00  0.00     0.056 A 
ENDBRANCH  27  29
ENDBRANCH  10  27
TORSDOF 7
ENDMDL
MODEL 3
REMARK VINA RESULT:      -9.4      5.352     11.183
REMARK  7 active torsions:
REMARK  status: ('A' for Active; 'I' for Inactive)
REMARK    1  A    between atoms: C1_2  and  C2_3 
REMARK       I    between atoms: C1_2  and  N2_13 
REMARK    2  A    between atoms: C3_4  and  C4_5 
REMARK    3  A    between atoms: C4_5  and  C5_6 
REMARK    4  A    between atoms: C5_6  and  N1_7 
REMARK    5  A    between atoms: N2_13  and  C11_14 
REMARK    6  A    between atoms: C16_23  and  N7_24 
REMARK    7  A    between atoms: N7_24  and  C17_25 
ROOT
HETATM    1  C11 UNL     1      22.296   1.569  50.920  1.00  0.00     0.131 A 
HETATM    2  C12 UNL     1      23.458   1.595  51.659  1.00  0.00     0.068 A 
HETATM    3  C13 UNL     1      24.499   2.367  51.191  1.00  0.00     0.045 A 
HETATM    4  C14 UNL     1      24.442   3.110  50.032  1.00  0.00     0.110 A 
HETATM    5  C15 UNL     1      23.248   3.031  49.351  1.00  0.00     0.153 A 
HETATM    6  N3  UNL     1      22.219   2.290  49.782  1.00  0.00    -0.241 NA
HETATM    7  N4  UNL     1      25.443   3.830  49.616  1.00  0.00    -0.157 NA
HETATM    8  N5  UNL     1      26.645   3.896  50.321  1.00  0.00    -0.218 N 
HETATM    9  N6  UNL     1      26.711   3.145  51.498  1.00  0.00    -0.268 N 
HETATM   10  C16 UNL     1      25.591   2.354  51.941  1.00  0.00     0.134 A 
HETATM   11  H18 UNL     1      27.476   4.459  50.029  1.00  0.00     0.210 HD
HETATM   12  H19 UNL     1      27.614   3.181  52.048  1.00  0.00     0.190 HD
ENDROOT
BRANCH   1  13
HETATM   13  N2  UNL     1      21.140   0.828  51.266  1.00  0.00    -0.301 N 
HETATM   14  C1  UNL     1      20.094   1.125  52.165  1.00  0.00     0.302 C 
HETATM   15  O1  UNL     1      20.098   2.216  52.826  1.00  0.00    -0.258 OA
HETATM   16  H15 UNL     1      21.149  -0.074  50.711  1.00  0.00     0.171 HD
BRANCH  14  17
HETATM   17  C2  UNL     1      19.009   0.202  52.352  1.00  0.00    -0.005 C 
HETATM   18  C3  UNL     1      18.072  -0.569  52.517  1.00  0.00    -0.095 C 
BRANCH  18  19
HETATM   19  C4  UNL     1      16.943  -1.484  52.718  1.00  0.00     0.124 C 
BRANCH  19  20
HETATM   20  C5  UNL     1      17.411  -2.705  53.444  1.00  0.00     0.284 C 
BRANCH  20  21
HETATM   21  N1  UNL     1      16.725  -3.912  53.048  1.00  0.00     0.089 N 
HETATM   22  C6  UNL     1      15.447  -3.666  52.458  1.00  0.00     0.272 C 
HETATM   23  C7  UNL     1      14.780  -4.990  52.165  1.00  0.00     0.030 C 
HETATM   24  C8  UNL     1      14.337  -5.545  53.505  1.00  0.00     0.003 C 
HETATM   25  C9  UNL     1      15.335  -5.259  54.589  1.00  0.00     0.030 C 
HETATM   26  C10 UNL     1      16.704  -4.939  54.042  1.00  0.00     0.272 C 
ENDBRANCH  20  21
ENDBRANCH  19  20
ENDBRANCH  18  19
ENDBRANCH  14  17
ENDBRANCH   1  13
BRANCH  10  27
HETATM   27  N7  UNL     1      25.798   1.641  53.154  1.00  0.00    -0.341 N 
HETATM   28  H20 UNL     1      25.432   1.929  54.097  1.00  0.00     0.167 HD
BRANCH  27  29
HETATM   29  C17 UNL     1      26.558   0.449  53.089  1.00  0.00     0.035 A 
HETATM   30  C18 UNL     1      26.022  -0.744  52.659  1.00  0.00     0.032 A 
HETATM   31  C19 UNL     1      26.732  -1.940  52.580  1.00  0.00     0.046 A 
HETATM   32  C20 UNL     1      28.077  -1.944  52.960  1.00  0.00     0.138 A 
HETATM   33  F1  UNL     1      28.745  -3.114  52.875  1.00  0.00    -0.204 F 
HETATM   34  C21 UNL     1      28.641  -0.759  53.397  1.00  0.00     0.074 A 
HETATM   35 CL1  UNL     1      30.329  -0.856  53.851  1.00  0.00    -0.081 Cl
HETATM   36  C22 UNL     1      27.887   0.395  53.452  1.00  0.00     0.056 A 
ENDBRANCH  27  29
ENDBRANCH  10  27
TORSDOF 7
ENDMDL
MODEL 4
REMARK VINA RESULT:      -9.2      1.734      2.164
REMARK  7 active torsions:
REMARK  status: ('A' for Active; 'I' for Inactive)
REMARK    1  A    between atoms: C1_2  and  C2_3 
REMARK       I    between atoms: C1_2  and  N2_13 
REMARK    2  A    between atoms: C3_4  and  C4_5 
REMARK    3  A    between atoms: C4_5  and  C5_6 
REMARK    4  A    between atoms: C5_6  and  N1_7 
REMARK    5  A    between atoms: N2_13  and  C11_14 
REMARK    6  A    between atoms: C16_23  and  N7_24 
REMARK    7  A    between atoms: N7_24  and  C17_25 
ROOT
HETATM    1  C11 UNL     1      24.193   3.318  49.668  1.00  0.00     0.131 A 
HETATM    2  C12 UNL     1      24.227   2.754  50.924  1.00  0.00     0.068 A 
HETATM    3  C13 UNL     1      23.245   1.842  51.245  1.00  0.00     0.045 A 
HETATM    4  C14 UNL     1      22.235   1.467  50.384  1.00  0.00     0.110 A 
HETATM    5  C15 UNL     1      22.270   2.076  49.150  1.00  0.00     0.153 A 
HETATM    6  N3  UNL     1      23.213   2.964  48.810  1.00  0.00    -0.241 NA
HETATM    7  N4  UNL     1      21.321   0.603  50.717  1.00  0.00    -0.157 NA
HETATM    8  N5  UNL     1      21.304  -0.002  51.974  1.00  0.00    -0.218 N 
HETATM    9  N6  UNL     1      22.324   0.373  52.853  1.00  0.00    -0.268 N 
HETATM   10  C16 UNL     1      23.327   1.332  52.465  1.00  0.00     0.134 A 
HETATM   11  H18 UNL     1      20.593  -0.700  52.288  1.00  0.00     0.210 HD
HETATM   12  H19 UNL     1      22.329  -0.075  53.811  1.00  0.00     0.190 HD
ENDROOT
BRANCH   1  13
HETATM   13  N2  UNL     1      25.128   4.266  49.187  1.00  0.00    -0.301 N 
HETATM   14  C1  UNL     1      26.536   4.289  49.268  1.00  0.00     0.302 C 
HETATM   15  O1  UNL     1      27.167   3.347  49.851  1.00  0.00    -0.258 OA
HETATM   16  H15 UNL     1      24.591   5.043  48.705  1.00  0.00     0.171 HD
BRANCH  14  17
HETATM   17  C2  UNL     1      27.282   5.376  48.695  1.00  0.00    -0.005 C 
HETATM   18  C3  UNL     1      27.934   6.290  48.207  1.00  0.00    -0.095 C 
BRANCH  18  19
HETATM   19  C4  UNL     1      28.725   7.379  47.625  1.00  0.00     0.124 C 
BRANCH  19  20
HETATM   20  C5  UNL     1      29.623   7.962  48.671  1.00  0.00     0.284 C 
BRANCH  20  21
HETATM   21  N1  UNL     1      31.025   7.710  48.436  1.00  0.00     0.089 N 
HETATM   22  C6  UNL     1      31.331   7.458  47.063  1.00  0.00     0.272 C 
HETATM   23  C7  UNL     1      32.798   7.120  46.943  1.00  0.00     0.030 C 
HETATM   24  C8  UNL     1      32.954   5.717  47.498  1.00  0.00     0.003 C 
HETATM   25  C9  UNL     1      32.069   5.482  48.687  1.00  0.00     0.030 C 
HETATM   26  C10 UNL     1      31.618   6.768  49.333  1.00  0.00     0.272 C 
ENDBRANCH  20  21
ENDBRANCH  19  20
ENDBRANCH  18  19
ENDBRANCH  14  17
ENDBRANCH   1  13
BRANCH  10  27
HETATM   27  N7  UNL     1      24.303   1.619  53.457  1.00  0.00    -0.341 N 
HETATM   28  H20 UNL     1      24.190   2.318  54.235  1.00  0.00     0.167 HD
BRANCH  27  29
HETATM   29  C17 UNL     1      25.527   0.910  53.396  1.00  0.00     0.035 A 
HETATM   30  C18 UNL     1      25.623  -0.343  52.832  1.00  0.00     0.032 A 
HETATM   31  C19 UNL     1      26.804  -1.078  52.751  1.00  0.00     0.046 A 
HETATM   32  C20 UNL     1      27.975  -0.518  53.272  1.00  0.00     0.138 A 
HETATM   33  F1  UNL     1      29.107  -1.248  53.181  1.00  0.00    -0.204 F 
HETATM   34  C21 UNL     1      27.906   0.739  53.844  1.00  0.00     0.074 A 
HETATM   35 CL1  UNL     1      29.418   1.360  54.470  1.00  0.00    -0.081 Cl
HETATM   36  C22 UNL     1      26.706   1.418  53.895  1.00  0.00     0.056 A 
ENDBRANCH  27  29
ENDBRANCH  10  27
TORSDOF 7
ENDMDL
MODEL 5
REMARK VINA RESULT:      -9.2      2.056      2.552
REMARK  7 active torsions:
REMARK  status: ('A' for Active; 'I' for Inactive)
REMARK    1  A    between atoms: C1_2  and  C2_3 
REMARK       I    between atoms: C1_2  and  N2_13 
REMARK    2  A    between atoms: C3_4  and  C4_5 
REMARK    3  A    between atoms: C4_5  and  C5_6 
REMARK    4  A    between atoms: C5_6  and  N1_7 
REMARK    5  A    between atoms: N2_13  and  C11_14 
REMARK    6  A    between atoms: C16_23  and  N7_24 
REMARK    7  A    between atoms: N7_24  and  C17_25 
ROOT
HETATM    1  C11 UNL     1      25.604   5.846  50.002  1.00  0.00     0.131 A 
HETATM    2  C12 UNL     1      25.188   4.582  50.356  1.00  0.00     0.068 A 
HETATM    3  C13 UNL     1      23.968   4.461  50.985  1.00  0.00     0.045 A 
HETATM    4  C14 UNL     1      23.147   5.529  51.279  1.00  0.00     0.110 A 
HETATM    5  C15 UNL     1      23.635   6.757  50.894  1.00  0.00     0.153 A 
HETATM    6  N3  UNL     1      24.816   6.905  50.280  1.00  0.00    -0.241 NA
HETATM    7  N4  UNL     1      22.000   5.382  51.874  1.00  0.00    -0.157 NA
HETATM    8  N5  UNL     1      21.524   4.127  52.257  1.00  0.00    -0.218 N 
HETATM    9  N6  UNL     1      22.351   3.039  51.963  1.00  0.00    -0.268 N 
HETATM   10  C16 UNL     1      23.619   3.223  51.302  1.00  0.00     0.134 A 
HETATM   11  H18 UNL     1      20.612   3.958  52.736  1.00  0.00     0.210 HD
HETATM   12  H19 UNL     1      22.009   2.079  52.245  1.00  0.00     0.190 HD
ENDROOT
BRANCH   1  13
HETATM   13  N2  UNL     1      26.827   6.136  49.351  1.00  0.00    -0.301 N 
HETATM   14  C1  UNL     1      27.777   5.279  48.756  1.00  0.00     0.302 C 
HETATM   15  O1  UNL     1      27.597   4.017  48.752  1.00  0.00    -0.258 OA
HETATM   16  H15 UNL     1      26.965   7.187  49.361  1.00  0.00     0.171 HD
BRANCH  14  17
HETATM   17  C2  UNL     1      28.962   5.815  48.145  1.00  0.00    -0.005 C 
HETATM   18  C3  UNL     1      29.981   6.253  47.625  1.00  0.00    -0.095 C 
BRANCH  18  19
HETATM   19  C4  UNL     1      31.205   6.767  47.003  1.00  0.00     0.124 C 
BRANCH  19  20
HETATM   20  C5  UNL     1      32.400   6.223  47.722  1.00  0.00     0.284 C 
BRANCH  20  21
HETATM   21  N1  UNL     1      32.853   4.951  47.212  1.00  0.00     0.089 N 
HETATM   22  C6  UNL     1      34.054   4.489  47.834  1.00  0.00     0.272 C 
HETATM   23  C7  UNL     1      34.487   3.205  47.169  1.00  0.00     0.030 C 
HETATM   24  C8  UNL     1      35.042   3.599  45.813  1.00  0.00     0.003 C 
HETATM   25  C9  UNL     1      34.259   4.717  45.189  1.00  0.00     0.030 C 
HETATM   26  C10 UNL     1      32.881   4.858  45.785  1.00  0.00     0.272 C 
ENDBRANCH  20  21
ENDBRANCH  19  20
ENDBRANCH  18  19
ENDBRANCH  14  17
ENDBRANCH   1  13
BRANCH  10  27
HETATM   27  N7  UNL     1      24.355   2.030  51.067  1.00  0.00    -0.341 N 
HETATM   28  H20 UNL     1      24.340   1.475  50.174  1.00  0.00     0.167 HD
BRANCH  27  29
HETATM   29  C17 UNL     1      25.173   1.550  52.117  1.00  0.00     0.035 A 
HETATM   30  C18 UNL     1      24.793   0.502  52.926  1.00  0.00     0.032 A 
HETATM   31  C19 UNL     1      25.565  -0.003  53.970  1.00  0.00     0.046 A 
HETATM   32  C20 UNL     1      26.808   0.583  54.225  1.00  0.00     0.138 A 
HETATM   33  F1  UNL     1      27.538   0.077  55.241  1.00  0.00    -0.204 F 
HETATM   34  C21 UNL     1      27.214   1.638  53.428  1.00  0.00     0.074 A 
HETATM   35 CL1  UNL     1      28.782   2.311  53.819  1.00  0.00    -0.081 Cl
HETATM   36  C22 UNL     1      26.405   2.094  52.408  1.00  0.00     0.056 A 
ENDBRANCH  27  29
ENDBRANCH  10  27
TORSDOF 7
ENDMDL
MODEL 6
REMARK VINA RESULT:      -9.1      2.408      3.001
REMARK  7 active torsions:
REMARK  status: ('A' for Active; 'I' for Inactive)
REMARK    1  A    between atoms: C1_2  and  C2_3 
REMARK       I    between atoms: C1_2  and  N2_13 
REMARK    2  A    between atoms: C3_4  and  C4_5 
REMARK    3  A    between atoms: C4_5  and  C5_6 
REMARK    4  A    between atoms: C5_6  and  N1_7 
REMARK    5  A    between atoms: N2_13  and  C11_14 
REMARK    6  A    between atoms: C16_23  and  N7_24 
REMARK    7  A    between atoms: N7_24  and  C17_25 
ROOT
HETATM    1  C11 UNL     1      25.217   5.837  49.175  1.00  0.00     0.131 A 
HETATM    2  C12 UNL     1      24.873   5.263  50.379  1.00  0.00     0.068 A 
HETATM    3  C13 UNL     1      23.531   5.100  50.652  1.00  0.00     0.045 A 
HETATM    4  C14 UNL     1      22.522   5.479  49.792  1.00  0.00     0.110 A 
HETATM    5  C15 UNL     1      22.948   6.045  48.612  1.00  0.00     0.153 A 
HETATM    6  N3  UNL     1      24.244   6.215  48.320  1.00  0.00    -0.241 NA
HETATM    7  N4  UNL     1      21.264   5.311  50.079  1.00  0.00    -0.157 NA
HETATM    8  N5  UNL     1      20.853   4.735  51.282  1.00  0.00    -0.218 N 
HETATM    9  N6  UNL     1      21.871   4.348  52.158  1.00  0.00    -0.268 N 
HETATM   10  C16 UNL     1      23.259   4.542  51.822  1.00  0.00     0.134 A 
HETATM   11  H18 UNL     1      19.858   4.580  51.557  1.00  0.00     0.210 HD
HETATM   12  H19 UNL     1      21.581   3.909  53.076  1.00  0.00     0.190 HD
ENDROOT
BRANCH   1  13
HETATM   13  N2  UNL     1      26.546   6.071  48.748  1.00  0.00    -0.301 N 
HETATM   14  C1  UNL     1      27.639   5.189  48.623  1.00  0.00     0.302 C 
HETATM   15  O1  UNL     1      27.512   3.955  48.919  1.00  0.00    -0.258 OA
HETATM   16  H15 UNL     1      26.638   7.099  48.505  1.00  0.00     0.171 HD
BRANCH  14  17
HETATM   17  C2  UNL     1      28.913   5.666  48.160  1.00  0.00    -0.005 C 
HETATM   18  C3  UNL     1      30.006   6.053  47.767  1.00  0.00    -0.095 C 
BRANCH  18  19
HETATM   19  C4  UNL     1      31.320   6.507  47.299  1.00  0.00     0.124 C 
BRANCH  19  20
HETATM   20  C5  UNL     1      32.394   5.857  48.112  1.00  0.00     0.284 C 
BRANCH  20  21
HETATM   21  N1  UNL     1      33.558   5.485  47.342  1.00  0.00     0.089 N 
HETATM   22  C6  UNL     1      33.235   4.873  46.091  1.00  0.00     0.272 C 
HETATM   23  C7  UNL     1      34.513   4.445  45.411  1.00  0.00     0.030 C 
HETATM   24  C8  UNL     1      35.007   3.227  46.169  1.00  0.00     0.003 C 
HETATM   25  C9  UNL     1      34.769   3.349  47.646  1.00  0.00     0.030 C 
HETATM   26  C10 UNL     1      34.559   4.779  48.078  1.00  0.00     0.272 C 
ENDBRANCH  20  21
ENDBRANCH  19  20
ENDBRANCH  18  19
ENDBRANCH  14  17
ENDBRANCH   1  13
BRANCH  10  27
HETATM   27  N7  UNL     1      24.185   4.103  52.806  1.00  0.00    -0.341 N 
HETATM   28  H20 UNL     1      24.609   4.709  53.554  1.00  0.00     0.167 HD
BRANCH  27  29
HETATM   29  C17 UNL     1      24.571   2.741  52.779  1.00  0.00     0.035 A 
HETATM   30  C18 UNL     1      25.845   2.343  52.440  1.00  0.00     0.032 A 
HETATM   31  C19 UNL     1      26.268   1.017  52.399  1.00  0.00     0.046 A 
HETATM   32  C20 UNL     1      25.349   0.014  52.720  1.00  0.00     0.138 A 
HETATM   33  F1  UNL     1      25.781  -1.265  52.674  1.00  0.00    -0.204 F 
HETATM   34  C21 UNL     1      24.062   0.385  53.064  1.00  0.00     0.074 A 
HETATM   35 CL1  UNL     1      22.980  -0.936  53.449  1.00  0.00    -0.081 Cl
HETATM   36  C22 UNL     1      23.703   1.716  53.087  1.00  0.00     0.056 A 
ENDBRANCH  27  29
ENDBRANCH  10  27
TORSDOF 7
ENDMDL
MODEL 7
REMARK VINA RESULT:      -9.0      5.815      8.140
REMARK  7 active torsions:
REMARK  status: ('A' for Active; 'I' for Inactive)
REMARK    1  A    between atoms: C1_2  and  C2_3 
REMARK       I    between atoms: C1_2  and  N2_13 
REMARK    2  A    between atoms: C3_4  and  C4_5 
REMARK    3  A    between atoms: C4_5  and  C5_6 
REMARK    4  A    between atoms: C5_6  and  N1_7 
REMARK    5  A    between atoms: N2_13  and  C11_14 
REMARK    6  A    between atoms: C16_23  and  N7_24 
REMARK    7  A    between atoms: N7_24  and  C17_25 
ROOT
HETATM    1  C11 UNL     1      21.226   0.294  52.556  1.00  0.00     0.131 A 
HETATM    2  C12 UNL     1      22.598   0.229  52.656  1.00  0.00     0.068 A 
HETATM    3  C13 UNL     1      23.132  -0.417  53.750  1.00  0.00     0.045 A 
HETATM    4  C14 UNL     1      22.373  -0.997  54.744  1.00  0.00     0.110 A 
HETATM    5  C15 UNL     1      21.011  -0.889  54.571  1.00  0.00     0.153 A 
HETATM    6  N3  UNL     1      20.464  -0.268  53.518  1.00  0.00    -0.241 NA
HETATM    7  N4  UNL     1      22.907  -1.601  55.765  1.00  0.00    -0.157 NA
HETATM    8  N5  UNL     1      24.290  -1.700  55.922  1.00  0.00    -0.218 N 
HETATM    9  N6  UNL     1      25.066  -1.114  54.918  1.00  0.00    -0.268 N 
HETATM   10  C16 UNL     1      24.455  -0.450  53.794  1.00  0.00     0.134 A 
HETATM   11  H18 UNL     1      24.765  -2.173  56.722  1.00  0.00     0.210 HD
HETATM   12  H19 UNL     1      26.118  -1.177  55.018  1.00  0.00     0.190 HD
ENDROOT
BRANCH   1  13
HETATM   13  N2  UNL     1      20.526   0.920  51.496  1.00  0.00    -0.301 N 
HETATM   14  C1  UNL     1      19.825   2.143  51.454  1.00  0.00     0.302 C 
HETATM   15  O1  UNL     1      19.750   2.882  52.491  1.00  0.00    -0.258 OA
HETATM   16  H15 UNL     1      20.597   0.296  50.642  1.00  0.00     0.171 HD
BRANCH  14  17
HETATM   17  C2  UNL     1      19.185   2.576  50.243  1.00  0.00    -0.005 C 
HETATM   18  C3  UNL     1      18.638   2.925  49.205  1.00  0.00    -0.095 C 
BRANCH  18  19
HETATM   19  C4  UNL     1      17.982   3.332  47.957  1.00  0.00     0.124 C 
BRANCH  19  20
HETATM   20  C5  UNL     1      18.337   4.752  47.645  1.00  0.00     0.284 C 
BRANCH  20  21
HETATM   21  N1  UNL     1      19.383   4.884  46.659  1.00  0.00     0.089 N 
HETATM   22  C6  UNL     1      19.458   3.772  45.764  1.00  0.00     0.272 C 
HETATM   23  C7  UNL     1      20.634   3.968  44.837  1.00  0.00     0.030 C 
HETATM   24  C8  UNL     1      21.875   3.706  45.670  1.00  0.00     0.003 C 
HETATM   25  C9  UNL     1      21.733   4.229  47.070  1.00  0.00     0.030 C 
HETATM   26  C10 UNL     1      20.653   5.275  47.187  1.00  0.00     0.272 C 
ENDBRANCH  20  21
ENDBRANCH  19  20
ENDBRANCH  18  19
ENDBRANCH  14  17
ENDBRANCH   1  13
BRANCH  10  27
HETATM   27  N7  UNL     1      25.365   0.101  52.851  1.00  0.00    -0.341 N 
HETATM   28  H20 UNL     1      25.094   0.589  51.960  1.00  0.00     0.167 HD
BRANCH  27  29
HETATM   29  C17 UNL     1      26.747  -0.016  53.131  1.00  0.00     0.035 A 
HETATM   30  C18 UNL     1      27.451  -1.176  52.894  1.00  0.00     0.032 A 
HETATM   31  C19 UNL     1      28.810  -1.337  53.155  1.00  0.00     0.046 A 
HETATM   32  C20 UNL     1      29.517  -0.259  53.694  1.00  0.00     0.138 A 
HETATM   33  F1  UNL     1      30.833  -0.438  53.938  1.00  0.00    -0.204 F 
HETATM   34  C21 UNL     1      28.836   0.918  53.943  1.00  0.00     0.074 A 
HETATM   35 CL1  UNL     1      29.800   2.213  54.618  1.00  0.00    -0.081 Cl
HETATM   36  C22 UNL     1      27.489   1.017  53.662  1.00  0.00     0.056 A 
ENDBRANCH  27  29
ENDBRANCH  10  27
TORSDOF 7
ENDMDL
MODEL 8
REMARK VINA RESULT:      -8.8      6.897     12.533
REMARK  7 active torsions:
REMARK  status: ('A' for Active; 'I' for Inactive)
REMARK    1  A    between atoms: C1_2  and  C2_3 
REMARK       I    between atoms: C1_2  and  N2_13 
REMARK    2  A    between atoms: C3_4  and  C4_5 
REMARK    3  A    between atoms: C4_5  and  C5_6 
REMARK    4  A    between atoms: C5_6  and  N1_7 
REMARK    5  A    between atoms: N2_13  and  C11_14 
REMARK    6  A    between atoms: C16_23  and  N7_24 
REMARK    7  A    between atoms: N7_24  and  C17_25 
ROOT
HETATM    1  C11 UNL     1      21.995  -1.098  54.128  1.00  0.00     0.131 A 
HETATM    2  C12 UNL     1      22.938  -0.423  53.386  1.00  0.00     0.068 A 
HETATM    3  C13 UNL     1      24.219  -0.349  53.890  1.00  0.00     0.045 A 
HETATM    4  C14 UNL     1      24.604  -0.908  55.089  1.00  0.00     0.110 A 
HETATM    5  C15 UNL     1      23.604  -1.564  55.771  1.00  0.00     0.153 A 
HETATM    6  N3  UNL     1      22.352  -1.653  55.305  1.00  0.00    -0.241 NA
HETATM    7  N4  UNL     1      25.822  -0.821  55.538  1.00  0.00    -0.157 NA
HETATM    8  N5  UNL     1      26.822  -0.151  54.832  1.00  0.00    -0.218 N 
HETATM    9  N6  UNL     1      26.438   0.419  53.614  1.00  0.00    -0.268 N 
HETATM   10  C16 UNL     1      25.084   0.311  53.134  1.00  0.00     0.134 A 
HETATM   11  H18 UNL     1      27.812  -0.054  55.150  1.00  0.00     0.210 HD
HETATM   12  H19 UNL     1      27.181   0.932  53.063  1.00  0.00     0.190 HD
ENDROOT
BRANCH   1  13
HETATM   13  N2  UNL     1      20.641  -1.263  53.748  1.00  0.00    -0.301 N 
HETATM   14  C1  UNL     1      19.721  -0.343  53.204  1.00  0.00     0.302 C 
HETATM   15  O1  UNL     1      20.068   0.864  52.979  1.00  0.00    -0.258 OA
HETATM   16  H15 UNL     1      20.366  -2.268  53.940  1.00  0.00     0.171 HD
BRANCH  14  17
HETATM   17  C2  UNL     1      18.379  -0.749  52.894  1.00  0.00    -0.005 C 
HETATM   18  C3  UNL     1      17.228  -1.089  52.649  1.00  0.00    -0.095 C 
BRANCH  18  19
HETATM   19  C4  UNL     1      15.847  -1.493  52.365  1.00  0.00     0.124 C 
BRANCH  19  20
HETATM   20  C5  UNL     1      15.052  -0.298  51.942  1.00  0.00     0.284 C 
BRANCH  20  21
HETATM   21  N1  UNL     1      14.428   0.401  53.040  1.00  0.00     0.089 N 
HETATM   22  C6  UNL     1      13.144  -0.124  53.385  1.00  0.00     0.272 C 
HETATM   23  C7  UNL     1      12.544   0.730  54.477  1.00  0.00     0.030 C 
HETATM   24  C8  UNL     1      12.117   2.025  53.813  1.00  0.00     0.003 C 
HETATM   25  C9  UNL     1      13.091   2.464  52.759  1.00  0.00     0.030 C 
HETATM   26  C10 UNL     1      14.447   1.826  52.927  1.00  0.00     0.272 C 
ENDBRANCH  20  21
ENDBRANCH  19  20
ENDBRANCH  18  19
ENDBRANCH  14  17
ENDBRANCH   1  13
BRANCH  10  27
HETATM   27  N7  UNL     1      24.835   0.939  51.883  1.00  0.00    -0.341 N 
HETATM   28  H20 UNL     1      25.176   0.590  50.951  1.00  0.00     0.167 HD
BRANCH  27  29
HETATM   29  C17 UNL     1      24.068   2.128  51.889  1.00  0.00     0.035 A 
HETATM   30  C18 UNL     1      24.282   3.137  52.803  1.00  0.00     0.032 A 
HETATM   31  C19 UNL     1      23.553   4.323  52.847  1.00  0.00     0.046 A 
HETATM   32  C20 UNL     1      22.533   4.514  51.910  1.00  0.00     0.138 A 
HETATM   33  F1  UNL     1      21.839   5.671  51.972  1.00  0.00    -0.204 F 
HETATM   34  C21 UNL     1      22.296   3.517  50.981  1.00  0.00     0.074 A 
HETATM   35 CL1  UNL     1      21.003   3.841  49.848  1.00  0.00    -0.081 Cl
HETATM   36  C22 UNL     1      23.054   2.364  50.987  1.00  0.00     0.056 A 
ENDBRANCH  27  29
ENDBRANCH  10  27
TORSDOF 7
ENDMDL
MODEL 9
REMARK VINA RESULT:      -8.8      3.711      4.772
REMARK  7 active torsions:
REMARK  status: ('A' for Active; 'I' for Inactive)
REMARK    1  A    between atoms: C1_2  and  C2_3 
REMARK       I    between atoms: C1_2  and  N2_13 
REMARK    2  A    between atoms: C3_4  and  C4_5 
REMARK    3  A    between atoms: C4_5  and  C5_6 
REMARK    4  A    between atoms: C5_6  and  N1_7 
REMARK    5  A    between atoms: N2_13  and  C11_14 
REMARK    6  A    between atoms: C16_23  and  N7_24 
REMARK    7  A    between atoms: N7_24  and  C17_25 
ROOT
HETATM    1  C11 UNL     1      26.080   7.110  49.395  1.00  0.00     0.131 A 
HETATM    2  C12 UNL     1      25.364   6.364  50.304  1.00  0.00     0.068 A 
HETATM    3  C13 UNL     1      24.055   6.726  50.542  1.00  0.00     0.045 A 
HETATM    4  C14 UNL     1      23.429   7.788  49.925  1.00  0.00     0.110 A 
HETATM    5  C15 UNL     1      24.212   8.483  49.032  1.00  0.00     0.153 A 
HETATM    6  N3  UNL     1      25.485   8.154  48.780  1.00  0.00    -0.241 NA
HETATM    7  N4  UNL     1      22.191   8.105  50.172  1.00  0.00    -0.157 NA
HETATM    8  N5  UNL     1      21.414   7.387  51.082  1.00  0.00    -0.218 N 
HETATM    9  N6  UNL     1      22.042   6.308  51.711  1.00  0.00    -0.268 N 
HETATM   10  C16 UNL     1      23.415   5.974  51.424  1.00  0.00     0.134 A 
HETATM   11  H18 UNL     1      20.419   7.601  51.313  1.00  0.00     0.210 HD
HETATM   12  H19 UNL     1      21.471   5.751  52.405  1.00  0.00     0.190 HD
ENDROOT
BRANCH   1  13
HETATM   13  N2  UNL     1      27.429   6.867  49.041  1.00  0.00    -0.301 N 
HETATM   14  C1  UNL     1      28.070   5.680  48.626  1.00  0.00     0.302 C 
HETATM   15  O1  UNL     1      27.413   4.592  48.522  1.00  0.00    -0.258 OA
HETATM   16  H15 UNL     1      27.963   7.778  49.132  1.00  0.00     0.171 HD
BRANCH  14  17
HETATM   17  C2  UNL     1      29.472   5.679  48.316  1.00  0.00    -0.005 C 
HETATM   18  C3  UNL     1      30.671   5.691  48.067  1.00  0.00    -0.095 C 
BRANCH  18  19
HETATM   19  C4  UNL     1      32.109   5.713  47.777  1.00  0.00     0.124 C 
BRANCH  19  20
HETATM   20  C5  UNL     1      32.682   4.346  47.978  1.00  0.00     0.284 C 
BRANCH  20  21
HETATM   21  N1  UNL     1      33.344   3.818  46.809  1.00  0.00     0.089 N 
HETATM   22  C6  UNL     1      34.706   4.236  46.695  1.00  0.00     0.272 C 
HETATM   23  C7  UNL     1      35.275   3.706  45.400  1.00  0.00     0.030 C 
HETATM   24  C8  UNL     1      34.661   4.545  44.295  1.00  0.00     0.003 C 
HETATM   25  C9  UNL     1      33.226   4.883  44.578  1.00  0.00     0.030 C 
HETATM   26  C10 UNL     1      32.605   3.956  45.593  1.00  0.00     0.272 C 
ENDBRANCH  20  21
ENDBRANCH  19  20
ENDBRANCH  18  19
ENDBRANCH  14  17
ENDBRANCH   1  13
BRANCH  10  27
HETATM   27  N7  UNL     1      23.924   4.854  52.137  1.00  0.00    -0.341 N 
HETATM   28  H20 UNL     1      24.684   4.892  52.864  1.00  0.00     0.167 HD
BRANCH  27  29
HETATM   29  C17 UNL     1      23.367   3.586  51.847  1.00  0.00     0.035 A 
HETATM   30  C18 UNL     1      23.380   2.551  52.755  1.00  0.00     0.032 A 
HETATM   31  C19 UNL     1      22.845   1.287  52.513  1.00  0.00     0.046 A 
HETATM   32  C20 UNL     1      22.255   1.041  51.270  1.00  0.00     0.138 A 
HETATM   33  F1  UNL     1      21.743  -0.190  51.057  1.00  0.00    -0.204 F 
HETATM   34  C21 UNL     1      22.229   2.063  50.338  1.00  0.00     0.074 A 
HETATM   35 CL1  UNL     1      21.471   1.665  48.812  1.00  0.00    -0.081 Cl
HETATM   36  C22 UNL     1      22.775   3.294  50.638  1.00  0.00     0.056 A 
ENDBRANCH  27  29
ENDBRANCH  10  27
TORSDOF 7
ENDMDL
