MODEL 1
REMARK VINA RESULT:      -7.7      0.000      0.000
REMARK  5 active torsions:
REMARK  status: ('A' for Active; 'I' for Inactive)
REMARK    1  A    between atoms: C2_2  and  C3_3 
REMARK    2  A    between atoms: C3_3  and  N1_4 
REMARK    3  A    between atoms: N1_4  and  C4_5 
REMARK    4  A    between atoms: C12_15  and  C18_22 
REMARK    5  A    between atoms: C15_18  and  C16_19 
ROOT
HETATM    1  C3  UNL     1      24.642   4.345  49.999  1.00  0.00     0.101 A 
HETATM    2  C10 UNL     1      23.591   5.328  49.989  1.00  0.00     0.126 A 
HETATM    3  N2  UNL     1      23.531   6.512  49.519  1.00  0.00    -0.274 NA
HETATM    4  C11 UNL     1      24.582   7.163  48.848  1.00  0.00     0.121 A 
HETATM    5  C12 UNL     1      25.745   6.443  48.703  1.00  0.00    -0.028 A 
HETATM    6  C13 UNL     1      25.836   4.947  49.286  1.00  0.00     0.065 A 
HETATM    7  C14 UNL     1      26.921   3.957  49.279  1.00  0.00     0.005 A 
HETATM    8  C15 UNL     1      27.331   4.982  48.689  1.00  0.00    -0.029 A 
ENDROOT
BRANCH   1   9
HETATM    9  C2  UNL     1      24.150   3.186  49.144  1.00  0.00     0.001 C 
HETATM   10  C1  UNL     1      22.866   3.509  48.896  1.00  0.00     0.010 C 
ENDBRANCH   1   9
BRANCH   1  11
HETATM   11  N1  UNL     1      25.051   3.856  51.262  1.00  0.00    -0.371 N 
HETATM   12  H4  UNL     1      25.689   4.481  51.846  1.00  0.00     0.161 HD
BRANCH  11  13
HETATM   13  C4  UNL     1      24.733   2.624  51.888  1.00  0.00     0.030 A 
HETATM   14  C5  UNL     1      23.516   2.339  52.467  1.00  0.00     0.029 A 
HETATM   15  C6  UNL     1      23.168   1.159  53.087  1.00  0.00     0.004 A 
HETATM   16  C7  UNL     1      24.129   0.174  53.131  1.00  0.00     0.019 A 
HETATM   17  C8  UNL     1      25.372   0.385  52.575  1.00  0.00     0.013 A 
HETATM   18 BR1  UNL     1      26.708  -0.976  52.633  1.00  0.00    -0.051 Br
HETATM   19  C9  UNL     1      25.637   1.590  51.975  1.00  0.00     0.048 A 
ENDBRANCH  11  13
ENDBRANCH   1  11
BRANCH   5  20
HETATM   20  C18 UNL     1      26.658   7.343  48.007  1.00  0.00     0.108 A 
HETATM   21  C17 UNL     1      27.391   8.447  48.694  1.00  0.00     0.168 A 
HETATM   22  C16 UNL     1      26.711   7.999  49.667  1.00  0.00     0.010 A 
HETATM   23  O1  UNL     1      28.202   9.283  48.373  1.00  0.00    -0.292 OA
HETATM   24  C19 UNL     1      25.869   8.043  46.877  1.00  0.00     0.027 C 
ENDBRANCH   5  20
TORSDOF 5
ENDMDL
MODEL 2
REMARK VINA RESULT:      -7.7      3.919      6.800
REMARK  5 active torsions:
REMARK  status: ('A' for Active; 'I' for Inactive)
REMARK    1  A    between atoms: C2_2  and  C3_3 
REMARK    2  A    between atoms: C3_3  and  N1_4 
REMARK    3  A    between atoms: N1_4  and  C4_5 
REMARK    4  A    between atoms: C12_15  and  C18_22 
REMARK    5  A    between atoms: C15_18  and  C16_19 
ROOT
HETATM    1  C3  UNL     1      24.047   3.119  51.149  1.00  0.00     0.101 A 
HETATM    2  C10 UNL     1      25.351   3.276  50.560  1.00  0.00     0.126 A 
HETATM    3  N2  UNL     1      26.445   2.640  50.720  1.00  0.00    -0.274 NA
HETATM    4  C11 UNL     1      26.618   1.547  51.589  1.00  0.00     0.121 A 
HETATM    5  C12 UNL     1      25.507   1.160  52.303  1.00  0.00    -0.028 A 
HETATM    6  C13 UNL     1      24.119   1.948  52.109  1.00  0.00     0.065 A 
HETATM    7  C14 UNL     1      22.795   1.765  52.719  1.00  0.00     0.005 A 
HETATM    8  C15 UNL     1      23.559   0.891  53.187  1.00  0.00    -0.029 A 
ENDROOT
BRANCH   1   9
HETATM    9  C2  UNL     1      23.115   2.710  50.018  1.00  0.00     0.001 C 
HETATM   10  C1  UNL     1      23.717   3.215  48.924  1.00  0.00     0.010 C 
ENDBRANCH   1   9
BRANCH   1  11
HETATM   11  N1  UNL     1      23.507   4.241  51.821  1.00  0.00    -0.371 N 
HETATM   12  H4  UNL     1      23.279   4.128  52.857  1.00  0.00     0.161 HD
BRANCH  11  13
HETATM   13  C4  UNL     1      23.213   5.531  51.311  1.00  0.00     0.030 A 
HETATM   14  C5  UNL     1      21.940   6.030  51.152  1.00  0.00     0.029 A 
HETATM   15  C6  UNL     1      21.610   7.274  50.659  1.00  0.00     0.004 A 
HETATM   16  C7  UNL     1      22.655   8.092  50.291  1.00  0.00     0.019 A 
HETATM   17  C8  UNL     1      23.958   7.662  50.419  1.00  0.00     0.013 A 
HETATM   18 BR1  UNL     1      25.409   8.791  49.911  1.00  0.00    -0.051 Br
HETATM   19  C9  UNL     1      24.198   6.408  50.920  1.00  0.00     0.048 A 
ENDBRANCH  11  13
ENDBRANCH   1  11
BRANCH   5  20
HETATM   20  C18 UNL     1      25.961   0.043  53.125  1.00  0.00     0.108 A 
HETATM   21  C17 UNL     1      26.752   0.225  54.377  1.00  0.00     0.168 A 
HETATM   22  C16 UNL     1      26.646   1.435  54.008  1.00  0.00     0.010 A 
HETATM   23  O1  UNL     1      27.205  -0.498  55.232  1.00  0.00    -0.292 OA
HETATM   24  C19 UNL     1      26.836  -0.875  52.241  1.00  0.00     0.027 C 
ENDBRANCH   5  20
TORSDOF 5
ENDMDL
MODEL 3
REMARK VINA RESULT:      -7.6      2.569      4.061
REMARK  5 active torsions:
REMARK  status: ('A' for Active; 'I' for Inactive)
REMARK    1  A    between atoms: C2_2  and  C3_3 
REMARK    2  A    between atoms: C3_3  and  N1_4 
REMARK    3  A    between atoms: N1_4  and  C4_5 
REMARK    4  A    between atoms: C12_15  and  C18_22 
REMARK    5  A    between atoms: C15_18  and  C16_19 
ROOT
HETATM    1  C3  UNL     1      21.196   2.773  51.142  1.00  0.00     0.101 A 
HETATM    2  C10 UNL     1      21.592   3.681  52.186  1.00  0.00     0.126 A 
HETATM    3  N2  UNL     1      22.600   4.452  52.314  1.00  0.00    -0.274 NA
HETATM    4  C11 UNL     1      23.632   4.586  51.367  1.00  0.00     0.121 A 
HETATM    5  C12 UNL     1      23.516   3.817  50.232  1.00  0.00    -0.028 A 
HETATM    6  C13 UNL     1      22.248   2.844  50.054  1.00  0.00     0.065 A 
HETATM    7  C14 UNL     1      21.862   1.928  48.972  1.00  0.00     0.005 A 
HETATM    8  C15 UNL     1      22.937   2.477  48.645  1.00  0.00    -0.029 A 
ENDROOT
BRANCH   1   9
HETATM    9  C2  UNL     1      19.909   3.334  50.555  1.00  0.00     0.001 C 
HETATM   10  C1  UNL     1      19.051   3.290  51.592  1.00  0.00     0.010 C 
ENDBRANCH   1   9
BRANCH   1  11
HETATM   11  N1  UNL     1      20.995   1.422  51.509  1.00  0.00    -0.371 N 
HETATM   12  H4  UNL     1      20.286   0.860  50.942  1.00  0.00     0.161 HD
BRANCH  11  13
HETATM   13  C4  UNL     1      21.609   0.678  52.548  1.00  0.00     0.030 A 
HETATM   14  C5  UNL     1      20.938   0.161  53.633  1.00  0.00     0.029 A 
HETATM   15  C6  UNL     1      21.496  -0.564  54.665  1.00  0.00     0.004 A 
HETATM   16  C7  UNL     1      22.853  -0.791  54.600  1.00  0.00     0.019 A 
HETATM   17  C8  UNL     1      23.593  -0.304  53.545  1.00  0.00     0.013 A 
HETATM   18 BR1  UNL     1      25.473  -0.615  53.451  1.00  0.00    -0.051 Br
HETATM   19  C9  UNL     1      22.959   0.408  52.559  1.00  0.00     0.048 A 
ENDBRANCH  11  13
ENDBRANCH   1  11
BRANCH   5  20
HETATM   20  C18 UNL     1      24.706   4.127  49.447  1.00  0.00     0.108 A 
HETATM   21  C17 UNL     1      26.050   3.552  49.748  1.00  0.00     0.168 A 
HETATM   22  C16 UNL     1      25.378   3.047  50.700  1.00  0.00     0.010 A 
HETATM   23  O1  UNL     1      27.151   3.611  49.255  1.00  0.00    -0.292 OA
HETATM   24  C19 UNL     1      24.919   5.657  49.487  1.00  0.00     0.027 C 
ENDBRANCH   5  20
TORSDOF 5
ENDMDL
MODEL 4
REMARK VINA RESULT:      -7.6      3.458      4.969
REMARK  5 active torsions:
REMARK  status: ('A' for Active; 'I' for Inactive)
REMARK    1  A    between atoms: C2_2  and  C3_3 
REMARK    2  A    between atoms: C3_3  and  N1_4 
REMARK    3  A    between atoms: N1_4  and  C4_5 
REMARK    4  A    between atoms: C12_15  and  C18_22 
REMARK    5  A    between atoms: C15_18  and  C16_19 
ROOT
HETATM    1  C3  UNL     1      20.428   1.210  51.225  1.00  0.00     0.101 A 
HETATM    2  C10 UNL     1      19.998   2.024  52.332  1.00  0.00     0.126 A 
HETATM    3  N2  UNL     1      20.281   3.219  52.677  1.00  0.00    -0.274 NA
HETATM    4  C11 UNL     1      21.156   4.070  51.977  1.00  0.00     0.121 A 
HETATM    5  C12 UNL     1      21.731   3.546  50.842  1.00  0.00    -0.028 A 
HETATM    6  C13 UNL     1      21.381   2.043  50.391  1.00  0.00     0.065 A 
HETATM    7  C14 UNL     1      21.829   1.233  49.250  1.00  0.00     0.005 A 
HETATM    8  C15 UNL     1      22.377   2.354  49.165  1.00  0.00    -0.029 A 
ENDROOT
BRANCH   1   9
HETATM    9  C2  UNL     1      19.191   0.962  50.374  1.00  0.00     0.001 C 
HETATM   10  C1  UNL     1      18.418   0.198  51.168  1.00  0.00     0.010 C 
ENDBRANCH   1   9
BRANCH   1  11
HETATM   11  N1  UNL     1      21.039  -0.026  51.537  1.00  0.00    -0.371 N 
HETATM   12  H4  UNL     1      20.946  -0.813  50.822  1.00  0.00     0.161 HD
BRANCH  11  13
HETATM   13  C4  UNL     1      21.777  -0.392  52.691  1.00  0.00     0.030 A 
HETATM   14  C5  UNL     1      21.251  -1.074  53.765  1.00  0.00     0.029 A 
HETATM   15  C6  UNL     1      21.931  -1.445  54.905  1.00  0.00     0.004 A 
HETATM   16  C7  UNL     1      23.262  -1.099  54.973  1.00  0.00     0.019 A 
HETATM   17  C8  UNL     1      23.860  -0.415  53.938  1.00  0.00     0.013 A 
HETATM   18 BR1  UNL     1      25.704   0.067  54.027  1.00  0.00    -0.051 Br
HETATM   19  C9  UNL     1      23.111  -0.084  52.838  1.00  0.00     0.048 A 
ENDBRANCH  11  13
ENDBRANCH   1  11
BRANCH   5  20
HETATM   20  C18 UNL     1      22.593   4.608  50.334  1.00  0.00     0.108 A 
HETATM   21  C17 UNL     1      23.964   4.865  50.864  1.00  0.00     0.168 A 
HETATM   22  C16 UNL     1      23.609   3.915  51.628  1.00  0.00     0.010 A 
HETATM   23  O1  UNL     1      24.867   5.626  50.609  1.00  0.00    -0.292 OA
HETATM   24  C19 UNL     1      21.849   5.951  50.512  1.00  0.00     0.027 C 
ENDBRANCH   5  20
TORSDOF 5
ENDMDL
MODEL 5
REMARK VINA RESULT:      -7.6      3.316      5.202
REMARK  5 active torsions:
REMARK  status: ('A' for Active; 'I' for Inactive)
REMARK    1  A    between atoms: C2_2  and  C3_3 
REMARK    2  A    between atoms: C3_3  and  N1_4 
REMARK    3  A    between atoms: N1_4  and  C4_5 
REMARK    4  A    between atoms: C12_15  and  C18_22 
REMARK    5  A    between atoms: C15_18  and  C16_19 
ROOT
HETATM    1  C3  UNL     1      24.572   3.863  50.485  1.00  0.00     0.101 A 
HETATM    2  C10 UNL     1      24.199   2.968  49.421  1.00  0.00     0.126 A 
HETATM    3  N2  UNL     1      23.065   2.622  48.951  1.00  0.00    -0.274 NA
HETATM    4  C11 UNL     1      21.825   3.090  49.422  1.00  0.00     0.121 A 
HETATM    5  C12 UNL     1      21.873   3.986  50.466  1.00  0.00    -0.028 A 
HETATM    6  C13 UNL     1      23.294   4.437  51.066  1.00  0.00     0.065 A 
HETATM    7  C14 UNL     1      23.651   5.359  52.152  1.00  0.00     0.005 A 
HETATM    8  C15 UNL     1      22.404   5.345  52.053  1.00  0.00    -0.029 A 
ENDROOT
BRANCH   1   9
HETATM    9  C2  UNL     1      25.320   5.015  49.831  1.00  0.00     0.001 C 
HETATM   10  C1  UNL     1      26.425   4.425  49.337  1.00  0.00     0.010 C 
ENDBRANCH   1   9
BRANCH   1  11
HETATM   11  N1  UNL     1      25.359   3.325  51.530  1.00  0.00    -0.371 N 
HETATM   12  H4  UNL     1      25.978   4.002  52.075  1.00  0.00     0.161 HD
BRANCH  11  13
HETATM   13  C4  UNL     1      25.455   1.982  51.975  1.00  0.00     0.030 A 
HETATM   14  C5  UNL     1      26.551   1.174  51.771  1.00  0.00     0.029 A 
HETATM   15  C6  UNL     1      26.684  -0.135  52.184  1.00  0.00     0.004 A 
HETATM   16  C7  UNL     1      25.618  -0.682  52.863  1.00  0.00     0.019 A 
HETATM   17  C8  UNL     1      24.485   0.065  53.105  1.00  0.00     0.013 A 
HETATM   18 BR1  UNL     1      23.006  -0.689  54.046  1.00  0.00    -0.051 Br
HETATM   19  C9  UNL     1      24.435   1.361  52.660  1.00  0.00     0.048 A 
ENDBRANCH  11  13
ENDBRANCH   1  11
BRANCH   5  20
HETATM   20  C18 UNL     1      20.476   4.285  50.766  1.00  0.00     0.108 A 
HETATM   21  C17 UNL     1      19.629   3.417  51.636  1.00  0.00     0.168 A 
HETATM   22  C16 UNL     1      20.703   2.741  51.633  1.00  0.00     0.010 A 
HETATM   23  O1  UNL     1      18.499   3.451  52.060  1.00  0.00    -0.292 OA
HETATM   24  C19 UNL     1      19.707   4.366  49.428  1.00  0.00     0.027 C 
ENDBRANCH   5  20
TORSDOF 5
ENDMDL
MODEL 6
REMARK VINA RESULT:      -7.3      3.424      6.406
REMARK  5 active torsions:
REMARK  status: ('A' for Active; 'I' for Inactive)
REMARK    1  A    between atoms: C2_2  and  C3_3 
REMARK    2  A    between atoms: C3_3  and  N1_4 
REMARK    3  A    between atoms: N1_4  and  C4_5 
REMARK    4  A    between atoms: C12_15  and  C18_22 
REMARK    5  A    between atoms: C15_18  and  C16_19 
ROOT
HETATM    1  C3  UNL     1      22.508   4.132  50.533  1.00  0.00     0.101 A 
HETATM    2  C10 UNL     1      22.146   2.975  49.757  1.00  0.00     0.126 A 
HETATM    3  N2  UNL     1      22.266   1.724  49.979  1.00  0.00    -0.274 NA
HETATM    4  C11 UNL     1      22.831   1.166  51.140  1.00  0.00     0.121 A 
HETATM    5  C12 UNL     1      23.276   2.060  52.087  1.00  0.00    -0.028 A 
HETATM    6  C13 UNL     1      23.128   3.639  51.825  1.00  0.00     0.065 A 
HETATM    7  C14 UNL     1      23.500   4.806  52.636  1.00  0.00     0.005 A 
HETATM    8  C15 UNL     1      23.811   3.777  53.276  1.00  0.00    -0.029 A 
ENDROOT
BRANCH   1   9
HETATM    9  C2  UNL     1      21.204   4.824  50.899  1.00  0.00     0.001 C 
HETATM   10  C1  UNL     1      20.982   5.640  49.851  1.00  0.00     0.010 C 
ENDBRANCH   1   9
BRANCH   1  11
HETATM   11  N1  UNL     1      23.380   5.065  49.923  1.00  0.00    -0.371 N 
HETATM   12  H4  UNL     1      22.986   6.033  49.705  1.00  0.00     0.161 HD
BRANCH  11  13
HETATM   13  C4  UNL     1      24.737   4.905  49.546  1.00  0.00     0.030 A 
HETATM   14  C5  UNL     1      25.429   3.718  49.625  1.00  0.00     0.029 A 
HETATM   15  C6  UNL     1      26.747   3.520  49.273  1.00  0.00     0.004 A 
HETATM   16  C7  UNL     1      27.433   4.615  48.797  1.00  0.00     0.019 A 
HETATM   17  C8  UNL     1      26.808   5.838  48.690  1.00  0.00     0.013 A 
HETATM   18 BR1  UNL     1      27.754   7.359  48.031  1.00  0.00    -0.051 Br
HETATM   19  C9  UNL     1      25.493   5.949  49.062  1.00  0.00     0.048 A 
ENDBRANCH  11  13
ENDBRANCH   1  11
BRANCH   5  20
HETATM   20  C18 UNL     1      23.824   1.232  53.156  1.00  0.00     0.108 A 
HETATM   21  C17 UNL     1      25.184   0.621  53.093  1.00  0.00     0.168 A 
HETATM   22  C16 UNL     1      25.144   1.182  51.955  1.00  0.00     0.010 A 
HETATM   23  O1  UNL     1      25.870  -0.051  53.826  1.00  0.00    -0.292 OA
HETATM   24  C19 UNL     1      22.869   0.035  53.369  1.00  0.00     0.027 C 
ENDBRANCH   5  20
TORSDOF 5
ENDMDL
MODEL 7
REMARK VINA RESULT:      -7.2      5.318      7.888
REMARK  5 active torsions:
REMARK  status: ('A' for Active; 'I' for Inactive)
REMARK    1  A    between atoms: C2_2  and  C3_3 
REMARK    2  A    between atoms: C3_3  and  N1_4 
REMARK    3  A    between atoms: N1_4  and  C4_5 
REMARK    4  A    between atoms: C12_15  and  C18_22 
REMARK    5  A    between atoms: C15_18  and  C16_19 
ROOT
HETATM    1  C3  UNL     1      30.945   7.963  47.972  1.00  0.00     0.101 A 
HETATM    2  C10 UNL     1      31.225   7.597  49.335  1.00  0.00     0.126 A 
HETATM    3  N2  UNL     1      31.991   6.712  49.844  1.00  0.00    -0.274 NA
HETATM    4  C11 UNL     1      32.797   5.827  49.105  1.00  0.00     0.121 A 
HETATM    5  C12 UNL     1      32.733   5.951  47.736  1.00  0.00    -0.028 A 
HETATM    6  C13 UNL     1      31.777   7.064  47.079  1.00  0.00     0.065 A 
HETATM    7  C14 UNL     1      31.510   7.424  45.680  1.00  0.00     0.005 A 
HETATM    8  C15 UNL     1      32.343   6.491  45.685  1.00  0.00    -0.029 A 
ENDROOT
BRANCH   1   9
HETATM    9  C2  UNL     1      31.471   9.379  47.793  1.00  0.00     0.001 C 
HETATM   10  C1  UNL     1      30.526  10.136  48.382  1.00  0.00     0.010 C 
ENDBRANCH   1   9
BRANCH   1  11
HETATM   11  N1  UNL     1      29.593   7.909  47.559  1.00  0.00    -0.371 N 
HETATM   12  H4  UNL     1      29.289   8.580  46.787  1.00  0.00     0.161 HD
BRANCH  11  13
HETATM   13  C4  UNL     1      28.548   7.074  48.030  1.00  0.00     0.030 A 
HETATM   14  C5  UNL     1      28.648   5.708  48.166  1.00  0.00     0.029 A 
HETATM   15  C6  UNL     1      27.658   4.861  48.616  1.00  0.00     0.004 A 
HETATM   16  C7  UNL     1      26.457   5.439  48.961  1.00  0.00     0.019 A 
HETATM   17  C8  UNL     1      26.279   6.801  48.851  1.00  0.00     0.013 A 
HETATM   18 BR1  UNL     1      24.617   7.607  49.327  1.00  0.00    -0.051 Br
HETATM   19  C9  UNL     1      27.317   7.572  48.394  1.00  0.00     0.048 A 
ENDBRANCH  11  13
ENDBRANCH   1  11
BRANCH   5  20
HETATM   20  C18 UNL     1      33.630   4.920  47.225  1.00  0.00     0.108 A 
HETATM   21  C17 UNL     1      33.206   3.503  47.022  1.00  0.00     0.168 A 
HETATM   22  C16 UNL     1      32.137   3.982  47.510  1.00  0.00     0.010 A 
HETATM   23  O1  UNL     1      33.718   2.496  46.594  1.00  0.00    -0.292 OA
HETATM   24  C19 UNL     1      34.845   4.831  48.176  1.00  0.00     0.027 C 
ENDBRANCH   5  20
TORSDOF 5
ENDMDL
MODEL 8
REMARK VINA RESULT:      -7.2      3.851      5.794
REMARK  5 active torsions:
REMARK  status: ('A' for Active; 'I' for Inactive)
REMARK    1  A    between atoms: C2_2  and  C3_3 
REMARK    2  A    between atoms: C3_3  and  N1_4 
REMARK    3  A    between atoms: N1_4  and  C4_5 
REMARK    4  A    between atoms: C12_15  and  C18_22 
REMARK    5  A    between atoms: C15_18  and  C16_19 
ROOT
HETATM    1  C3  UNL     1      24.036   4.375  50.896  1.00  0.00     0.101 A 
HETATM    2  C10 UNL     1      23.556   4.194  52.241  1.00  0.00     0.126 A 
HETATM    3  N2  UNL     1      23.983   3.489  53.215  1.00  0.00    -0.274 NA
HETATM    4  C11 UNL     1      25.121   2.664  53.169  1.00  0.00     0.121 A 
HETATM    5  C12 UNL     1      25.802   2.638  51.974  1.00  0.00    -0.028 A 
HETATM    6  C13 UNL     1      25.281   3.524  50.739  1.00  0.00     0.065 A 
HETATM    7  C14 UNL     1      25.792   3.698  49.373  1.00  0.00     0.005 A 
HETATM    8  C15 UNL     1      26.552   2.904  49.970  1.00  0.00    -0.029 A 
ENDROOT
BRANCH   1   9
HETATM    9  C2  UNL     1      24.473   5.828  50.792  1.00  0.00     0.001 C 
HETATM   10  C1  UNL     1      23.316   6.508  50.911  1.00  0.00     0.010 C 
ENDBRANCH   1   9
BRANCH   1  11
HETATM   11  N1  UNL     1      23.133   4.079  49.849  1.00  0.00    -0.371 N 
HETATM   12  H4  UNL     1      23.209   4.661  48.957  1.00  0.00     0.161 HD
BRANCH  11  13
HETATM   13  C4  UNL     1      22.110   3.099  49.801  1.00  0.00     0.030 A 
HETATM   14  C5  UNL     1      22.334   1.741  49.855  1.00  0.00     0.029 A 
HETATM   15  C6  UNL     1      21.371   0.756  49.809  1.00  0.00     0.004 A 
HETATM   16  C7  UNL     1      20.062   1.172  49.699  1.00  0.00     0.019 A 
HETATM   17  C8  UNL     1      19.759   2.515  49.638  1.00  0.00     0.013 A 
HETATM   18 BR1  UNL     1      17.948   3.097  49.486  1.00  0.00    -0.051 Br
HETATM   19  C9  UNL     1      20.779   3.431  49.691  1.00  0.00     0.048 A 
ENDBRANCH  11  13
ENDBRANCH   1  11
BRANCH   5  20
HETATM   20  C18 UNL     1      26.904   1.705  52.191  1.00  0.00     0.108 A 
HETATM   21  C17 UNL     1      26.710   0.229  52.291  1.00  0.00     0.168 A 
HETATM   22  C16 UNL     1      25.503   0.599  52.159  1.00  0.00     0.010 A 
HETATM   23  O1  UNL     1      27.426  -0.735  52.426  1.00  0.00    -0.292 OA
HETATM   24  C19 UNL     1      27.606   2.096  53.512  1.00  0.00     0.027 C 
ENDBRANCH   5  20
TORSDOF 5
ENDMDL
MODEL 9
REMARK VINA RESULT:      -7.1      4.017      6.584
REMARK  5 active torsions:
REMARK  status: ('A' for Active; 'I' for Inactive)
REMARK    1  A    between atoms: C2_2  and  C3_3 
REMARK    2  A    between atoms: C3_3  and  N1_4 
REMARK    3  A    between atoms: N1_4  and  C4_5 
REMARK    4  A    between atoms: C12_15  and  C18_22 
REMARK    5  A    between atoms: C15_18  and  C16_19 
ROOT
HETATM    1  C3  UNL     1      22.612   3.478  50.014  1.00  0.00     0.101 A 
HETATM    2  C10 UNL     1      22.659   2.462  48.996  1.00  0.00     0.126 A 
HETATM    3  N2  UNL     1      21.921   1.448  48.763  1.00  0.00    -0.274 NA
HETATM    4  C11 UNL     1      20.800   1.079  49.528  1.00  0.00     0.121 A 
HETATM    5  C12 UNL     1      20.503   1.893  50.598  1.00  0.00    -0.028 A 
HETATM    6  C13 UNL     1      21.421   3.178  50.902  1.00  0.00     0.065 A 
HETATM    7  C14 UNL     1      21.349   4.207  51.947  1.00  0.00     0.005 A 
HETATM    8  C15 UNL     1      20.399   3.413  52.124  1.00  0.00    -0.029 A 
ENDROOT
BRANCH   1   9
HETATM    9  C2  UNL     1      22.314   4.786  49.297  1.00  0.00     0.001 C 
HETATM   10  C1  UNL     1      23.377   4.942  48.485  1.00  0.00     0.010 C 
ENDBRANCH   1   9
BRANCH   1  11
HETATM   11  N1  UNL     1      23.765   3.635  50.818  1.00  0.00    -0.371 N 
HETATM   12  H4  UNL     1      24.046   4.630  51.083  1.00  0.00     0.161 HD
BRANCH  11  13
HETATM   13  C4  UNL     1      24.631   2.641  51.340  1.00  0.00     0.030 A 
HETATM   14  C5  UNL     1      25.968   2.535  51.027  1.00  0.00     0.029 A 
HETATM   15  C6  UNL     1      26.843   1.585  51.509  1.00  0.00     0.004 A 
HETATM   16  C7  UNL     1      26.329   0.657  52.386  1.00  0.00     0.019 A 
HETATM   17  C8  UNL     1      24.999   0.698  52.748  1.00  0.00     0.013 A 
HETATM   18 BR1  UNL     1      24.282  -0.586  53.964  1.00  0.00    -0.051 Br
HETATM   19  C9  UNL     1      24.197   1.678  52.222  1.00  0.00     0.048 A 
ENDBRANCH  11  13
ENDBRANCH   1  11
BRANCH   5  20
HETATM   20  C18 UNL     1      19.333   1.282  51.219  1.00  0.00     0.108 A 
HETATM   21  C17 UNL     1      19.422   0.121  52.153  1.00  0.00     0.168 A 
HETATM   22  C16 UNL     1      20.648   0.251  51.849  1.00  0.00     0.010 A 
HETATM   23  O1  UNL     1      18.644  -0.529  52.809  1.00  0.00    -0.292 OA
HETATM   24  C19 UNL     1      18.389   0.805  50.092  1.00  0.00     0.027 C 
ENDBRANCH   5  20
TORSDOF 5
ENDMDL
