MODEL 1
REMARK VINA RESULT:      -7.7      0.000      0.000
REMARK  3 active torsions:
REMARK  status: ('A' for Active; 'I' for Inactive)
REMARK    1  A    between atoms: C7_7  and  C8_8 
REMARK    2  A    between atoms: C8_8  and  C9_9 
REMARK    3  A    between atoms: N1_11  and  C11_12 
ROOT
HETATM    1  C9  UNL     1      23.744   2.068  52.265  1.00  0.00     0.100 C 
HETATM    2  C10 UNL     1      24.214   3.479  52.420  1.00  0.00     0.149 C 
HETATM    3  N1  UNL     1      23.444   4.446  51.620  1.00  0.00    -0.363 N 
HETATM    4  C18 UNL     1      22.110   4.975  51.509  1.00  0.00     0.274 C 
HETATM    5  N3  UNL     1      21.511   4.900  50.214  1.00  0.00    -0.263 NA
HETATM    6  C19 UNL     1      21.573   3.974  49.346  1.00  0.00     0.229 C 
HETATM    7  N4  UNL     1      22.394   3.218  50.191  1.00  0.00    -0.238 NA
HETATM    8  C20 UNL     1      23.089   2.240  49.769  1.00  0.00     0.204 C 
HETATM    9  N5  UNL     1      23.832   1.662  50.853  1.00  0.00    -0.378 N 
HETATM   10  H25 UNL     1      24.474   0.884  50.516  1.00  0.00     0.160 HD
ENDROOT
BRANCH   3  11
HETATM   11  C11 UNL     1      24.235   5.211  50.651  1.00  0.00     0.022 C 
HETATM   12  C12 UNL     1      24.120   6.427  51.232  1.00  0.00     0.027 C 
HETATM   13  C13 UNL     1      24.673   7.740  50.815  1.00  0.00     0.019 C 
HETATM   14  C14 UNL     1      25.785   7.986  50.093  1.00  0.00     0.088 C 
HETATM   15  N2  UNL     1      26.682   6.982  49.568  1.00  0.00    -0.369 N 
HETATM   16  C15 UNL     1      26.368   5.575  49.481  1.00  0.00     0.020 A 
HETATM   17  H18 UNL     1      27.607   7.313  49.238  1.00  0.00     0.165 HD
HETATM   18  C16 UNL     1      26.253   4.267  49.411  1.00  0.00     0.016 A 
HETATM   19  C17 UNL     1      25.026   5.024  49.377  1.00  0.00     0.109 A 
ENDBRANCH   3  11
BRANCH   1  20
HETATM   20  C8  UNL     1      22.399   1.705  52.762  1.00  0.00     0.036 C 
BRANCH  20  21
HETATM   21  C7  UNL     1      21.932   0.298  52.674  1.00  0.00     0.019 C 
HETATM   22  C2  UNL     1      20.428   0.311  52.758  1.00  0.00    -0.079 C 
HETATM   23  C1  UNL     1      19.799   1.415  51.963  1.00  0.00     0.044 C 
HETATM   24  C3  UNL     1      19.602  -0.528  53.355  1.00  0.00     0.002 C 
HETATM   25  C4  UNL     1      20.172  -1.599  54.138  1.00  0.00    -0.004 C 
HETATM   26  C5  UNL     1      21.481  -1.615  54.181  1.00  0.00    -0.026 C 
HETATM   27  C6  UNL     1      22.521  -0.710  53.568  1.00  0.00     0.036 C 
ENDBRANCH  20  21
ENDBRANCH   1  20
TORSDOF 3
ENDMDL
MODEL 2
REMARK VINA RESULT:      -7.6      1.329      3.044
REMARK  3 active torsions:
REMARK  status: ('A' for Active; 'I' for Inactive)
REMARK    1  A    between atoms: C7_7  and  C8_8 
REMARK    2  A    between atoms: C8_8  and  C9_9 
REMARK    3  A    between atoms: N1_11  and  C11_12 
ROOT
HETATM    1  C9  UNL     1      21.614   2.256  50.115  1.00  0.00     0.100 C 
HETATM    2  C10 UNL     1      22.919   2.446  49.412  1.00  0.00     0.149 C 
HETATM    3  N1  UNL     1      24.047   2.694  50.324  1.00  0.00    -0.363 N 
HETATM    4  C18 UNL     1      24.786   2.040  51.372  1.00  0.00     0.274 C 
HETATM    5  N3  UNL     1      24.895   2.756  52.604  1.00  0.00    -0.263 NA
HETATM    6  C19 UNL     1      24.033   3.470  53.204  1.00  0.00     0.229 C 
HETATM    7  N4  UNL     1      23.101   3.222  52.189  1.00  0.00    -0.238 NA
HETATM    8  C20 UNL     1      22.057   3.932  52.034  1.00  0.00     0.204 C 
HETATM    9  N5  UNL     1      21.297   3.449  50.916  1.00  0.00    -0.378 N 
HETATM   10  H25 UNL     1      20.453   4.066  50.722  1.00  0.00     0.160 HD
ENDROOT
BRANCH   3  11
HETATM   11  C11 UNL     1      24.744   3.967  50.110  1.00  0.00     0.022 C 
HETATM   12  C12 UNL     1      25.892   3.469  49.596  1.00  0.00     0.027 C 
HETATM   13  C13 UNL     1      27.110   4.174  49.125  1.00  0.00     0.019 C 
HETATM   14  C14 UNL     1      27.212   5.424  48.628  1.00  0.00     0.088 C 
HETATM   15  N2  UNL     1      26.115   6.349  48.454  1.00  0.00    -0.369 N 
HETATM   16  C15 UNL     1      24.812   6.187  49.055  1.00  0.00     0.020 A 
HETATM   17  H18 UNL     1      26.295   7.175  47.855  1.00  0.00     0.165 HD
HETATM   18  C16 UNL     1      23.565   6.135  49.469  1.00  0.00     0.016 A 
HETATM   19  C17 UNL     1      24.543   5.454  50.282  1.00  0.00     0.109 A 
ENDBRANCH   3  11
BRANCH   1  20
HETATM   20  C8  UNL     1      21.433   1.067  50.976  1.00  0.00     0.036 C 
BRANCH  20  21
HETATM   21  C7  UNL     1      20.231   0.953  51.839  1.00  0.00     0.019 C 
HETATM   22  C2  UNL     1      20.583   0.056  52.997  1.00  0.00    -0.079 C 
HETATM   23  C1  UNL     1      21.949   0.317  53.555  1.00  0.00     0.044 C 
HETATM   24  C3  UNL     1      19.858  -0.855  53.620  1.00  0.00     0.002 C 
HETATM   25  C4  UNL     1      18.540  -1.140  53.104  1.00  0.00    -0.004 C 
HETATM   26  C5  UNL     1      18.203  -0.456  52.039  1.00  0.00    -0.026 C 
HETATM   27  C6  UNL     1      18.944   0.582  51.232  1.00  0.00     0.036 C 
ENDBRANCH  20  21
ENDBRANCH   1  20
TORSDOF 3
ENDMDL
MODEL 3
REMARK VINA RESULT:      -7.4      2.181      7.652
REMARK  3 active torsions:
REMARK  status: ('A' for Active; 'I' for Inactive)
REMARK    1  A    between atoms: C7_7  and  C8_8 
REMARK    2  A    between atoms: C8_8  and  C9_9 
REMARK    3  A    between atoms: N1_11  and  C11_12 
ROOT
HETATM    1  C9  UNL     1      25.936   4.853  49.742  1.00  0.00     0.100 C 
HETATM    2  C10 UNL     1      25.300   3.506  49.622  1.00  0.00     0.149 C 
HETATM    3  N1  UNL     1      23.846   3.561  49.399  1.00  0.00    -0.363 N 
HETATM    4  C18 UNL     1      22.894   4.021  48.422  1.00  0.00     0.274 C 
HETATM    5  N3  UNL     1      21.873   4.897  48.904  1.00  0.00    -0.263 NA
HETATM    6  C19 UNL     1      21.948   5.833  49.759  1.00  0.00     0.229 C 
HETATM    7  N4  UNL     1      23.314   5.581  49.937  1.00  0.00    -0.238 NA
HETATM    8  C20 UNL     1      23.962   6.016  50.941  1.00  0.00     0.204 C 
HETATM    9  N5  UNL     1      25.332   5.597  50.859  1.00  0.00    -0.378 N 
HETATM   10  H25 UNL     1      25.882   5.890  51.721  1.00  0.00     0.160 HD
ENDROOT
BRANCH   3  11
HETATM   11  C11 UNL     1      23.040   2.885  50.421  1.00  0.00     0.022 C 
HETATM   12  C12 UNL     1      22.460   1.961  49.622  1.00  0.00     0.027 C 
HETATM   13  C13 UNL     1      21.489   0.888  49.954  1.00  0.00     0.019 C 
HETATM   14  C14 UNL     1      21.323   0.247  51.129  1.00  0.00     0.088 C 
HETATM   15  N2  UNL     1      22.085   0.492  52.332  1.00  0.00    -0.369 N 
HETATM   16  C15 UNL     1      22.923   1.649  52.543  1.00  0.00     0.020 A 
HETATM   17  H18 UNL     1      22.013  -0.221  53.080  1.00  0.00     0.165 HD
HETATM   18  C16 UNL     1      23.777   2.603  52.845  1.00  0.00     0.016 A 
HETATM   19  C17 UNL     1      22.740   2.941  51.900  1.00  0.00     0.109 A 
ENDBRANCH   3  11
BRANCH   1  20
HETATM   20  C8  UNL     1      25.955   5.742  48.559  1.00  0.00     0.036 C 
BRANCH  20  21
HETATM   21  C7  UNL     1      27.021   6.766  48.419  1.00  0.00     0.019 C 
HETATM   22  C2  UNL     1      26.568   7.756  47.377  1.00  0.00    -0.079 C 
HETATM   23  C1  UNL     1      25.119   8.119  47.495  1.00  0.00     0.044 C 
HETATM   24  C3  UNL     1      27.258   8.387  46.446  1.00  0.00     0.002 C 
HETATM   25  C4  UNL     1      28.656   8.057  46.298  1.00  0.00    -0.004 C 
HETATM   26  C5  UNL     1      29.095   7.134  47.116  1.00  0.00    -0.026 C 
HETATM   27  C6  UNL     1      28.407   6.332  48.194  1.00  0.00     0.036 C 
ENDBRANCH  20  21
ENDBRANCH   1  20
TORSDOF 3
ENDMDL
MODEL 4
REMARK VINA RESULT:      -7.3      2.468      3.247
REMARK  3 active torsions:
REMARK  status: ('A' for Active; 'I' for Inactive)
REMARK    1  A    between atoms: C7_7  and  C8_8 
REMARK    2  A    between atoms: C8_8  and  C9_9 
REMARK    3  A    between atoms: N1_11  and  C11_12 
ROOT
HETATM    1  C9  UNL     1      22.687   1.167  51.127  1.00  0.00     0.100 C 
HETATM    2  C10 UNL     1      22.953   2.636  51.207  1.00  0.00     0.149 C 
HETATM    3  N1  UNL     1      21.747   3.439  51.466  1.00  0.00    -0.363 N 
HETATM    4  C18 UNL     1      20.747   3.635  52.483  1.00  0.00     0.274 C 
HETATM    5  N3  UNL     1      19.388   3.504  52.061  1.00  0.00    -0.263 NA
HETATM    6  C19 UNL     1      18.871   2.681  51.243  1.00  0.00     0.229 C 
HETATM    7  N4  UNL     1      20.121   2.091  51.023  1.00  0.00    -0.238 NA
HETATM    8  C20 UNL     1      20.356   1.342  50.022  1.00  0.00     0.204 C 
HETATM    9  N5  UNL     1      21.717   0.890  50.055  1.00  0.00    -0.378 N 
HETATM   10  H25 UNL     1      21.959   0.316  49.193  1.00  0.00     0.160 HD
ENDROOT
BRANCH   3  11
HETATM   11  C11 UNL     1      21.438   4.436  50.437  1.00  0.00     0.022 C 
HETATM   12  C12 UNL     1      21.673   5.546  51.175  1.00  0.00     0.027 C 
HETATM   13  C13 UNL     1      21.570   6.979  50.801  1.00  0.00     0.019 C 
HETATM   14  C14 UNL     1      21.711   7.535  49.580  1.00  0.00     0.088 C 
HETATM   15  N2  UNL     1      21.999   6.816  48.359  1.00  0.00    -0.369 N 
HETATM   16  C15 UNL     1      21.883   5.385  48.212  1.00  0.00     0.020 A 
HETATM   17  H18 UNL     1      22.307   7.383  47.549  1.00  0.00     0.165 HD
HETATM   18  C16 UNL     1      21.897   4.095  47.953  1.00  0.00     0.016 A 
HETATM   19  C17 UNL     1      21.000   4.534  48.995  1.00  0.00     0.109 A 
ENDBRANCH   3  11
BRANCH   1  20
HETATM   20  C8  UNL     1      22.238   0.455  52.343  1.00  0.00     0.036 C 
BRANCH  20  21
HETATM   21  C7  UNL     1      23.112  -0.571  52.966  1.00  0.00     0.019 C 
HETATM   22  C2  UNL     1      22.443  -1.031  54.235  1.00  0.00    -0.079 C 
HETATM   23  C1  UNL     1      20.964  -1.219  54.091  1.00  0.00     0.044 C 
HETATM   24  C3  UNL     1      22.965  -1.351  55.404  1.00  0.00     0.002 C 
HETATM   25  C4  UNL     1      24.387  -1.174  55.582  1.00  0.00    -0.004 C 
HETATM   26  C5  UNL     1      25.018  -0.691  54.542  1.00  0.00    -0.026 C 
HETATM   27  C6  UNL     1      24.535  -0.269  53.176  1.00  0.00     0.036 C 
ENDBRANCH  20  21
ENDBRANCH   1  20
TORSDOF 3
ENDMDL
MODEL 5
REMARK VINA RESULT:      -7.2      2.615      5.030
REMARK  3 active torsions:
REMARK  status: ('A' for Active; 'I' for Inactive)
REMARK    1  A    between atoms: C7_7  and  C8_8 
REMARK    2  A    between atoms: C8_8  and  C9_9 
REMARK    3  A    between atoms: N1_11  and  C11_12 
ROOT
HETATM    1  C9  UNL     1      22.913   1.848  51.746  1.00  0.00     0.100 C 
HETATM    2  C10 UNL     1      22.853   1.954  50.256  1.00  0.00     0.149 C 
HETATM    3  N1  UNL     1      22.703   3.336  49.771  1.00  0.00    -0.363 N 
HETATM    4  C18 UNL     1      23.413   4.588  49.762  1.00  0.00     0.274 C 
HETATM    5  N3  UNL     1      22.699   5.719  50.266  1.00  0.00    -0.263 NA
HETATM    6  C19 UNL     1      21.902   5.798  51.252  1.00  0.00     0.229 C 
HETATM    7  N4  UNL     1      22.071   4.434  51.517  1.00  0.00    -0.238 NA
HETATM    8  C20 UNL     1      21.269   3.777  52.254  1.00  0.00     0.204 C 
HETATM    9  N5  UNL     1      21.689   2.408  52.340  1.00  0.00    -0.378 N 
HETATM   10  H25 UNL     1      20.998   1.821  52.895  1.00  0.00     0.160 HD
ENDROOT
BRANCH   3  11
HETATM   11  C11 UNL     1      21.503   3.578  48.964  1.00  0.00     0.022 C 
HETATM   12  C12 UNL     1      22.111   3.752  47.768  1.00  0.00     0.027 C 
HETATM   13  C13 UNL     1      21.529   4.041  46.435  1.00  0.00     0.019 C 
HETATM   14  C14 UNL     1      20.303   3.723  45.972  1.00  0.00     0.088 C 
HETATM   15  N2  UNL     1      19.285   3.014  46.715  1.00  0.00    -0.369 N 
HETATM   16  C15 UNL     1      19.317   2.807  48.143  1.00  0.00     0.020 A 
HETATM   17  H18 UNL     1      18.489   2.637  46.168  1.00  0.00     0.165 HD
HETATM   18  C16 UNL     1      19.248   2.476  49.414  1.00  0.00     0.016 A 
HETATM   19  C17 UNL     1      20.000   3.666  49.097  1.00  0.00     0.109 A 
ENDBRANCH   3  11
BRANCH   1  20
HETATM   20  C8  UNL     1      24.073   2.431  52.457  1.00  0.00     0.036 C 
BRANCH  20  21
HETATM   21  C7  UNL     1      25.083   1.540  53.081  1.00  0.00     0.019 C 
HETATM   22  C2  UNL     1      26.176   1.310  52.069  1.00  0.00    -0.079 C 
HETATM   23  C1  UNL     1      26.556   2.548  51.316  1.00  0.00     0.044 C 
HETATM   24  C3  UNL     1      26.877   0.223  51.806  1.00  0.00     0.002 C 
HETATM   25  C4  UNL     1      26.532  -0.992  52.507  1.00  0.00    -0.004 C 
HETATM   26  C5  UNL     1      25.527  -0.883  53.339  1.00  0.00    -0.026 C 
HETATM   27  C6  UNL     1      24.643   0.283  53.705  1.00  0.00     0.036 C 
ENDBRANCH  20  21
ENDBRANCH   1  20
TORSDOF 3
ENDMDL
MODEL 6
REMARK VINA RESULT:      -7.1      2.433      3.612
REMARK  3 active torsions:
REMARK  status: ('A' for Active; 'I' for Inactive)
REMARK    1  A    between atoms: C7_7  and  C8_8 
REMARK    2  A    between atoms: C8_8  and  C9_9 
REMARK    3  A    between atoms: N1_11  and  C11_12 
ROOT
HETATM    1  C9  UNL     1      24.800   3.688  50.717  1.00  0.00     0.100 C 
HETATM    2  C10 UNL     1      24.275   5.082  50.839  1.00  0.00     0.149 C 
HETATM    3  N1  UNL     1      22.810   5.148  50.968  1.00  0.00    -0.363 N 
HETATM    4  C18 UNL     1      21.760   4.747  51.867  1.00  0.00     0.274 C 
HETATM    5  N3  UNL     1      20.702   3.977  51.293  1.00  0.00    -0.263 NA
HETATM    6  C19 UNL     1      20.753   3.060  50.415  1.00  0.00     0.229 C 
HETATM    7  N4  UNL     1      22.144   3.197  50.333  1.00  0.00    -0.238 NA
HETATM    8  C20 UNL     1      22.818   2.734  49.359  1.00  0.00     0.204 C 
HETATM    9  N5  UNL     1      24.210   3.029  49.541  1.00  0.00    -0.378 N 
HETATM   10  H25 UNL     1      24.789   2.712  48.707  1.00  0.00     0.160 HD
ENDROOT
BRANCH   3  11
HETATM   11  C11 UNL     1      22.134   5.918  49.919  1.00  0.00     0.022 C 
HETATM   12  C12 UNL     1      21.711   6.950  50.685  1.00  0.00     0.027 C 
HETATM   13  C13 UNL     1      20.935   8.158  50.312  1.00  0.00     0.019 C 
HETATM   14  C14 UNL     1      20.885   8.784  49.118  1.00  0.00     0.088 C 
HETATM   15  N2  UNL     1      21.603   8.380  47.930  1.00  0.00    -0.369 N 
HETATM   16  C15 UNL     1      22.237   7.094  47.761  1.00  0.00     0.020 A 
HETATM   17  H18 UNL     1      21.655   9.073  47.162  1.00  0.00     0.165 HD
HETATM   18  C16 UNL     1      22.922   6.003  47.495  1.00  0.00     0.016 A 
HETATM   19  C17 UNL     1      21.838   5.870  48.438  1.00  0.00     0.109 A 
ENDBRANCH   3  11
BRANCH   1  20
HETATM   20  C8  UNL     1      24.665   2.770  51.870  1.00  0.00     0.036 C 
BRANCH  20  21
HETATM   21  C7  UNL     1      25.114   1.360  51.751  1.00  0.00     0.019 C 
HETATM   22  C2  UNL     1      24.415   0.566  52.824  1.00  0.00    -0.079 C 
HETATM   23  C1  UNL     1      22.972   0.936  52.989  1.00  0.00     0.044 C 
HETATM   24  C3  UNL     1      24.856  -0.429  53.570  1.00  0.00     0.002 C 
HETATM   25  C4  UNL     1      26.244  -0.807  53.444  1.00  0.00    -0.004 C 
HETATM   26  C5  UNL     1      26.935  -0.095  52.590  1.00  0.00    -0.026 C 
HETATM   27  C6  UNL     1      26.554   1.068  51.706  1.00  0.00     0.036 C 
ENDBRANCH  20  21
ENDBRANCH   1  20
TORSDOF 3
ENDMDL
MODEL 7
REMARK VINA RESULT:      -7.0      2.673      4.219
REMARK  3 active torsions:
REMARK  status: ('A' for Active; 'I' for Inactive)
REMARK    1  A    between atoms: C7_7  and  C8_8 
REMARK    2  A    between atoms: C8_8  and  C9_9 
REMARK    3  A    between atoms: N1_11  and  C11_12 
ROOT
HETATM    1  C9  UNL     1      25.025   2.149  51.318  1.00  0.00     0.100 C 
HETATM    2  C10 UNL     1      25.117   3.409  50.518  1.00  0.00     0.149 C 
HETATM    3  N1  UNL     1      24.068   4.389  50.843  1.00  0.00    -0.363 N 
HETATM    4  C18 UNL     1      23.617   5.202  51.943  1.00  0.00     0.274 C 
HETATM    5  N3  UNL     1      22.241   5.064  52.302  1.00  0.00    -0.263 NA
HETATM    6  C19 UNL     1      21.516   4.022  52.342  1.00  0.00     0.229 C 
HETATM    7  N4  UNL     1      22.595   3.237  51.919  1.00  0.00    -0.238 NA
HETATM    8  C20 UNL     1      22.444   2.064  51.452  1.00  0.00     0.204 C 
HETATM    9  N5  UNL     1      23.718   1.508  51.097  1.00  0.00    -0.378 N 
HETATM   10  H25 UNL     1      23.615   0.553  50.641  1.00  0.00     0.160 HD
ENDROOT
BRANCH   3  11
HETATM   11  C11 UNL     1      23.210   4.769  49.717  1.00  0.00     0.022 C 
HETATM   12  C12 UNL     1      23.690   6.020  49.528  1.00  0.00     0.027 C 
HETATM   13  C13 UNL     1      23.301   7.051  48.534  1.00  0.00     0.019 C 
HETATM   14  C14 UNL     1      22.772   6.869  47.306  1.00  0.00     0.088 C 
HETATM   15  N2  UNL     1      22.471   5.590  46.704  1.00  0.00    -0.369 N 
HETATM   16  C15 UNL     1      22.413   4.343  47.430  1.00  0.00     0.020 A 
HETATM   17  H18 UNL     1      22.289   5.589  45.684  1.00  0.00     0.165 HD
HETATM   18  C16 UNL     1      22.400   3.131  47.939  1.00  0.00     0.016 A 
HETATM   19  C17 UNL     1      22.107   4.215  48.846  1.00  0.00     0.109 A 
ENDBRANCH   3  11
BRANCH   1  20
HETATM   20  C8  UNL     1      25.262   2.211  52.777  1.00  0.00     0.036 C 
BRANCH  20  21
HETATM   21  C7  UNL     1      25.818   1.032  53.487  1.00  0.00     0.019 C 
HETATM   22  C2  UNL     1      27.315   1.066  53.327  1.00  0.00    -0.079 C 
HETATM   23  C1  UNL     1      27.896   2.440  53.479  1.00  0.00     0.044 C 
HETATM   24  C3  UNL     1      28.176   0.081  53.148  1.00  0.00     0.002 C 
HETATM   25  C4  UNL     1      27.652  -1.255  52.990  1.00  0.00    -0.004 C 
HETATM   26  C5  UNL     1      26.346  -1.344  53.028  1.00  0.00    -0.026 C 
HETATM   27  C6  UNL     1      25.269  -0.302  53.202  1.00  0.00     0.036 C 
ENDBRANCH  20  21
ENDBRANCH   1  20
TORSDOF 3
ENDMDL
MODEL 8
REMARK VINA RESULT:      -6.9      8.179     10.464
REMARK  3 active torsions:
REMARK  status: ('A' for Active; 'I' for Inactive)
REMARK    1  A    between atoms: C7_7  and  C8_8 
REMARK    2  A    between atoms: C8_8  and  C9_9 
REMARK    3  A    between atoms: N1_11  and  C11_12 
ROOT
HETATM    1  C9  UNL     1      30.723   6.341  48.857  1.00  0.00     0.100 C 
HETATM    2  C10 UNL     1      29.384   6.462  48.203  1.00  0.00     0.149 C 
HETATM    3  N1  UNL     1      29.272   7.620  47.301  1.00  0.00    -0.363 N 
HETATM    4  C18 UNL     1      29.838   8.128  46.079  1.00  0.00     0.274 C 
HETATM    5  N3  UNL     1      30.369   9.453  46.135  1.00  0.00    -0.263 NA
HETATM    6  C19 UNL     1      31.021  10.024  47.064  1.00  0.00     0.229 C 
HETATM    7  N4  UNL     1      30.945   8.867  47.848  1.00  0.00    -0.238 NA
HETATM    8  C20 UNL     1      31.171   8.876  49.100  1.00  0.00     0.204 C 
HETATM    9  N5  UNL     1      31.012   7.555  49.637  1.00  0.00    -0.378 N 
HETATM   10  H25 UNL     1      31.129   7.546  50.694  1.00  0.00     0.160 HD
ENDROOT
BRANCH   3  11
HETATM   11  C11 UNL     1      28.215   8.574  47.652  1.00  0.00     0.022 C 
HETATM   12  C12 UNL     1      27.356   8.281  46.650  1.00  0.00     0.027 C 
HETATM   13  C13 UNL     1      26.024   8.854  46.337  1.00  0.00     0.019 C 
HETATM   14  C14 UNL     1      25.134   9.410  47.185  1.00  0.00     0.088 C 
HETATM   15  N2  UNL     1      25.316   9.559  48.611  1.00  0.00    -0.369 N 
HETATM   16  C15 UNL     1      26.582   9.411  49.289  1.00  0.00     0.020 A 
HETATM   17  H18 UNL     1      24.471   9.787  49.166  1.00  0.00     0.165 HD
HETATM   18  C16 UNL     1      27.642   9.233  50.048  1.00  0.00     0.016 A 
HETATM   19  C17 UNL     1      27.886   9.629  48.682  1.00  0.00     0.109 A 
ENDBRANCH   3  11
BRANCH   1  20
HETATM   20  C8  UNL     1      31.904   6.047  48.016  1.00  0.00     0.036 C 
BRANCH  20  21
HETATM   21  C7  UNL     1      32.498   4.686  48.023  1.00  0.00     0.019 C 
HETATM   22  C2  UNL     1      33.994   4.841  47.939  1.00  0.00    -0.079 C 
HETATM   23  C1  UNL     1      34.524   5.951  48.795  1.00  0.00     0.044 C 
HETATM   24  C3  UNL     1      34.890   4.117  47.295  1.00  0.00     0.002 C 
HETATM   25  C4  UNL     1      34.415   3.044  46.453  1.00  0.00    -0.004 C 
HETATM   26  C5  UNL     1      33.113   2.911  46.409  1.00  0.00    -0.026 C 
HETATM   27  C6  UNL     1      31.998   3.681  47.074  1.00  0.00     0.036 C 
ENDBRANCH  20  21
ENDBRANCH   1  20
TORSDOF 3
ENDMDL
MODEL 9
REMARK VINA RESULT:      -6.7      5.704     10.985
REMARK  3 active torsions:
REMARK  status: ('A' for Active; 'I' for Inactive)
REMARK    1  A    between atoms: C7_7  and  C8_8 
REMARK    2  A    between atoms: C8_8  and  C9_9 
REMARK    3  A    between atoms: N1_11  and  C11_12 
ROOT
HETATM    1  C9  UNL     1      31.479   9.067  48.630  1.00  0.00     0.100 C 
HETATM    2  C10 UNL     1      30.625   7.857  48.831  1.00  0.00     0.149 C 
HETATM    3  N1  UNL     1      29.550   7.725  47.834  1.00  0.00    -0.363 N 
HETATM    4  C18 UNL     1      29.372   7.531  46.419  1.00  0.00     0.274 C 
HETATM    5  N3  UNL     1      28.547   8.488  45.752  1.00  0.00    -0.263 NA
HETATM    6  C19 UNL     1      28.462   9.744  45.927  1.00  0.00     0.229 C 
HETATM    7  N4  UNL     1      29.429   9.683  46.937  1.00  0.00    -0.238 NA
HETATM    8  C20 UNL     1      29.601  10.625  47.775  1.00  0.00     0.204 C 
HETATM    9  N5  UNL     1      30.651  10.282  48.691  1.00  0.00    -0.378 N 
HETATM   10  H25 UNL     1      30.770  11.024  49.444  1.00  0.00     0.160 HD
ENDROOT
BRANCH   3  11
HETATM   11  C11 UNL     1      28.194   7.699  48.391  1.00  0.00     0.022 C 
HETATM   12  C12 UNL     1      27.982   6.365  48.312  1.00  0.00     0.027 C 
HETATM   13  C13 UNL     1      26.797   5.563  48.703  1.00  0.00     0.019 C 
HETATM   14  C14 UNL     1      25.878   5.839  49.650  1.00  0.00     0.088 C 
HETATM   15  N2  UNL     1      25.870   7.012  50.495  1.00  0.00    -0.369 N 
HETATM   16  C15 UNL     1      26.664   8.194  50.251  1.00  0.00     0.020 A 
HETATM   17  H18 UNL     1      25.249   6.983  51.323  1.00  0.00     0.165 HD
HETATM   18  C16 UNL     1      27.377   9.297  50.202  1.00  0.00     0.016 A 
HETATM   19  C17 UNL     1      27.139   8.627  48.947  1.00  0.00     0.109 A 
ENDBRANCH   3  11
BRANCH   1  20
HETATM   20  C8  UNL     1      32.325   9.152  47.419  1.00  0.00     0.036 C 
BRANCH  20  21
HETATM   21  C7  UNL     1      33.608   8.407  47.359  1.00  0.00     0.019 C 
HETATM   22  C2  UNL     1      33.432   7.272  46.384  1.00  0.00    -0.079 C 
HETATM   23  C1  UNL     1      32.673   7.662  45.152  1.00  0.00     0.044 C 
HETATM   24  C3  UNL     1      33.895   6.037  46.423  1.00  0.00     0.002 C 
HETATM   25  C4  UNL     1      34.624   5.623  47.599  1.00  0.00    -0.004 C 
HETATM   26  C5  UNL     1      34.737   6.538  48.529  1.00  0.00    -0.026 C 
HETATM   27  C6  UNL     1      34.237   7.960  48.610  1.00  0.00     0.036 C 
ENDBRANCH  20  21
ENDBRANCH   1  20
TORSDOF 3
ENDMDL
