MODEL 1
REMARK VINA RESULT:      -7.9      0.000      0.000
REMARK  1 active torsions:
REMARK  status: ('A' for Active; 'I' for Inactive)
REMARK    1  A    between atoms: C1_2  and  C2_3 
ROOT
HETATM    1  C2  UNL     1      25.613   1.815  51.993  1.00  0.00     0.107 A 
HETATM    2  C3  UNL     1      26.371   2.841  51.240  1.00  0.00     0.012 A 
HETATM    3  C4  UNL     1      26.129   3.648  50.215  1.00  0.00     0.001 A 
HETATM    4  C5  UNL     1      24.907   3.755  49.473  1.00  0.00     0.023 A 
HETATM    5  C6  UNL     1      23.634   3.428  49.194  1.00  0.00     0.034 A 
HETATM    6 CL1  UNL     1      22.773   4.223  47.850  1.00  0.00    -0.084 Cl
HETATM    7  C7  UNL     1      22.882   2.452  49.953  1.00  0.00     0.028 A 
HETATM    8  C8  UNL     1      22.476   1.566  50.787  1.00  0.00     0.054 A 
HETATM    9  C9  UNL     1      23.324   1.040  51.837  1.00  0.00     0.147 A 
HETATM   10  N2  UNL     1      24.278   1.813  51.354  1.00  0.00    -0.251 NA
HETATM   11  N3  UNL     1      23.666   0.260  52.947  1.00  0.00    -0.225 NA
HETATM   12  C10 UNL     1      22.962  -0.456  53.715  1.00  0.00     0.206 C 
HETATM   13  N4  UNL     1      23.844  -1.038  54.695  1.00  0.00    -0.360 N 
HETATM   14  C11 UNL     1      25.160  -0.627  55.141  1.00  0.00     0.395 C 
HETATM   15  N5  UNL     1      26.047  -0.610  54.061  1.00  0.00     0.106 NA
HETATM   16  C12 UNL     1      26.694  -1.804  53.651  1.00  0.00     0.275 C 
HETATM   17  C13 UNL     1      27.695  -1.317  52.584  1.00  0.00     0.037 C 
HETATM   18  C14 UNL     1      27.513   0.241  52.647  1.00  0.00     0.018 C 
HETATM   19  C15 UNL     1      27.195   0.285  54.164  1.00  0.00     0.279 C 
HETATM   20  C16 UNL     1      26.230   0.468  51.924  1.00  0.00     0.049 C 
HETATM   21  H9  UNL     1      23.383  -1.887  55.097  1.00  0.00     0.162 HD
ENDROOT
BRANCH   1  22
HETATM   22  C1  UNL     1      25.379   2.253  53.362  1.00  0.00     0.117 C 
HETATM   23  N1  UNL     1      24.791   3.412  53.351  1.00  0.00    -0.314 NA
HETATM   24  H1  UNL     1      24.581   3.845  52.431  1.00  0.00     0.185 HD
ENDBRANCH   1  22
TORSDOF 1
ENDMDL
MODEL 2
REMARK VINA RESULT:      -7.6      0.979      1.004
REMARK  1 active torsions:
REMARK  status: ('A' for Active; 'I' for Inactive)
REMARK    1  A    between atoms: C1_2  and  C2_3 
ROOT
HETATM    1  C2  UNL     1      24.878   2.347  51.644  1.00  0.00     0.107 A 
HETATM    2  C3  UNL     1      25.628   3.501  51.097  1.00  0.00     0.012 A 
HETATM    3  C4  UNL     1      25.463   4.364  50.103  1.00  0.00     0.001 A 
HETATM    4  C5  UNL     1      24.369   4.413  49.177  1.00  0.00     0.023 A 
HETATM    5  C6  UNL     1      23.199   3.988  48.671  1.00  0.00     0.034 A 
HETATM    6 CL1  UNL     1      22.479   4.806  47.260  1.00  0.00    -0.084 Cl
HETATM    7  C7  UNL     1      22.448   2.884  49.229  1.00  0.00     0.028 A 
HETATM    8  C8  UNL     1      22.017   1.896  49.923  1.00  0.00     0.054 A 
HETATM    9  C9  UNL     1      22.741   1.369  51.061  1.00  0.00     0.147 A 
HETATM   10  N2  UNL     1      23.668   2.269  50.795  1.00  0.00    -0.251 NA
HETATM   11  N3  UNL     1      22.987   0.535  52.158  1.00  0.00    -0.225 NA
HETATM   12  C10 UNL     1      22.254  -0.308  52.749  1.00  0.00     0.206 C 
HETATM   13  N4  UNL     1      23.029  -0.880  53.821  1.00  0.00    -0.360 N 
HETATM   14  C11 UNL     1      24.205  -0.383  54.504  1.00  0.00     0.395 C 
HETATM   15  N5  UNL     1      25.244  -0.190  53.589  1.00  0.00     0.106 NA
HETATM   16  C12 UNL     1      26.075  -1.276  53.212  1.00  0.00     0.275 C 
HETATM   17  C13 UNL     1      27.171  -0.606  52.360  1.00  0.00     0.037 C 
HETATM   18  C14 UNL     1      26.812   0.916  52.497  1.00  0.00     0.018 C 
HETATM   19  C15 UNL     1      26.257   0.801  53.939  1.00  0.00     0.279 C 
HETATM   20  C16 UNL     1      25.642   1.077  51.588  1.00  0.00     0.049 C 
HETATM   21  H9  UNL     1      22.606  -1.801  54.083  1.00  0.00     0.162 HD
ENDROOT
BRANCH   1  22
HETATM   22  C1  UNL     1      24.385   2.643  52.982  1.00  0.00     0.117 C 
HETATM   23  N1  UNL     1      24.303   3.932  53.137  1.00  0.00    -0.314 NA
HETATM   24  H1  UNL     1      24.580   4.539  52.342  1.00  0.00     0.185 HD
ENDBRANCH   1  22
TORSDOF 1
ENDMDL
MODEL 3
REMARK VINA RESULT:      -7.5      3.116      5.045
REMARK  1 active torsions:
REMARK  status: ('A' for Active; 'I' for Inactive)
REMARK    1  A    between atoms: C1_2  and  C2_3 
ROOT
HETATM    1  C2  UNL     1      23.750   2.878  51.167  1.00  0.00     0.107 A 
HETATM    2  C3  UNL     1      25.056   2.237  51.447  1.00  0.00     0.012 A 
HETATM    3  C4  UNL     1      26.310   2.410  51.050  1.00  0.00     0.001 A 
HETATM    4  C5  UNL     1      26.794   3.393  50.126  1.00  0.00     0.023 A 
HETATM    5  C6  UNL     1      26.648   4.432  49.286  1.00  0.00     0.034 A 
HETATM    6 CL1  UNL     1      28.061   5.099  48.427  1.00  0.00    -0.084 Cl
HETATM    7  C7  UNL     1      25.378   5.081  49.041  1.00  0.00     0.028 A 
HETATM    8  C8  UNL     1      24.149   5.446  49.023  1.00  0.00     0.054 A 
HETATM    9  C9  UNL     1      23.129   4.784  49.809  1.00  0.00     0.147 A 
HETATM   10  N2  UNL     1      24.079   3.966  50.219  1.00  0.00    -0.251 NA
HETATM   11  N3  UNL     1      21.848   4.548  50.321  1.00  0.00    -0.225 NA
HETATM   12  C10 UNL     1      20.780   5.218  50.245  1.00  0.00     0.206 C 
HETATM   13  N4  UNL     1      19.760   4.494  50.961  1.00  0.00    -0.360 N 
HETATM   14  C11 UNL     1      19.871   3.478  51.987  1.00  0.00     0.395 C 
HETATM   15  N5  UNL     1      20.589   2.382  51.500  1.00  0.00     0.106 NA
HETATM   16  C12 UNL     1      19.931   1.375  50.749  1.00  0.00     0.275 C 
HETATM   17  C13 UNL     1      21.017   0.294  50.576  1.00  0.00     0.037 C 
HETATM   18  C14 UNL     1      22.196   0.870  51.437  1.00  0.00     0.018 C 
HETATM   19  C15 UNL     1      21.284   1.558  52.484  1.00  0.00     0.279 C 
HETATM   20  C16 UNL     1      22.760   1.946  50.573  1.00  0.00     0.049 C 
HETATM   21  H9  UNL     1      18.823   4.813  50.621  1.00  0.00     0.162 HD
ENDROOT
BRANCH   1  22
HETATM   22  C1  UNL     1      23.242   3.549  52.355  1.00  0.00     0.117 C 
HETATM   23  N1  UNL     1      24.240   3.927  53.098  1.00  0.00    -0.314 NA
HETATM   24  H1  UNL     1      25.202   3.715  52.770  1.00  0.00     0.185 HD
ENDBRANCH   1  22
TORSDOF 1
ENDMDL
MODEL 4
REMARK VINA RESULT:      -7.4      2.688      6.003
REMARK  1 active torsions:
REMARK  status: ('A' for Active; 'I' for Inactive)
REMARK    1  A    between atoms: C1_2  and  C2_3 
ROOT
HETATM    1  C2  UNL     1      23.439   1.946  51.743  1.00  0.00     0.107 A 
HETATM    2  C3  UNL     1      23.263   0.920  52.797  1.00  0.00     0.012 A 
HETATM    3  C4  UNL     1      24.055   0.094  53.469  1.00  0.00     0.001 A 
HETATM    4  C5  UNL     1      25.476  -0.036  53.336  1.00  0.00     0.023 A 
HETATM    5  C6  UNL     1      26.671   0.280  52.807  1.00  0.00     0.034 A 
HETATM    6 CL1  UNL     1      28.146  -0.560  53.353  1.00  0.00    -0.084 Cl
HETATM    7  C7  UNL     1      26.847   1.308  51.805  1.00  0.00     0.028 A 
HETATM    8  C8  UNL     1      26.699   2.248  50.945  1.00  0.00     0.054 A 
HETATM    9  C9  UNL     1      25.407   2.825  50.638  1.00  0.00     0.147 A 
HETATM   10  N2  UNL     1      24.899   1.960  51.495  1.00  0.00    -0.251 NA
HETATM   11  N3  UNL     1      24.495   3.684  50.014  1.00  0.00    -0.225 NA
HETATM   12  C10 UNL     1      24.668   4.694  49.275  1.00  0.00     0.206 C 
HETATM   13  N4  UNL     1      23.366   5.195  48.913  1.00  0.00    -0.360 N 
HETATM   14  C11 UNL     1      22.075   5.009  49.543  1.00  0.00     0.395 C 
HETATM   15  N5  UNL     1      21.758   3.649  49.592  1.00  0.00     0.106 NA
HETATM   16  C12 UNL     1      21.163   3.013  48.472  1.00  0.00     0.275 C 
HETATM   17  C13 UNL     1      20.818   1.608  49.002  1.00  0.00     0.037 C 
HETATM   18  C14 UNL     1      21.211   1.721  50.518  1.00  0.00     0.018 C 
HETATM   19  C15 UNL     1      20.844   3.221  50.647  1.00  0.00     0.279 C 
HETATM   20  C16 UNL     1      22.699   1.633  50.496  1.00  0.00     0.049 C 
HETATM   21  H9  UNL     1      23.460   5.772  48.045  1.00  0.00     0.162 HD
ENDROOT
BRANCH   1  22
HETATM   22  C1  UNL     1      23.128   3.271  52.259  1.00  0.00     0.117 C 
HETATM   23  N1  UNL     1      24.025   3.615  53.136  1.00  0.00    -0.314 NA
HETATM   24  H1  UNL     1      24.792   2.947  53.338  1.00  0.00     0.185 HD
ENDBRANCH   1  22
TORSDOF 1
ENDMDL
MODEL 5
REMARK VINA RESULT:      -7.3      3.640      6.275
REMARK  1 active torsions:
REMARK  status: ('A' for Active; 'I' for Inactive)
REMARK    1  A    between atoms: C1_2  and  C2_3 
ROOT
HETATM    1  C2  UNL     1      20.555   1.941  51.239  1.00  0.00     0.107 A 
HETATM    2  C3  UNL     1      19.182   1.606  50.797  1.00  0.00     0.012 A 
HETATM    3  C4  UNL     1      18.269   0.699  51.118  1.00  0.00     0.001 A 
HETATM    4  C5  UNL     1      18.387  -0.328  52.111  1.00  0.00     0.023 A 
HETATM    5  C6  UNL     1      19.034  -1.001  53.078  1.00  0.00     0.034 A 
HETATM    6 CL1  UNL     1      18.254  -2.384  53.889  1.00  0.00    -0.084 Cl
HETATM    7  C7  UNL     1      20.361  -0.650  53.535  1.00  0.00     0.028 A 
HETATM    8  C8  UNL     1      21.512  -0.118  53.729  1.00  0.00     0.054 A 
HETATM    9  C9  UNL     1      21.976   1.028  52.974  1.00  0.00     0.147 A 
HETATM   10  N2  UNL     1      20.836   0.963  52.314  1.00  0.00    -0.251 NA
HETATM   11  N3  UNL     1      22.854   2.048  52.591  1.00  0.00    -0.225 NA
HETATM   12  C10 UNL     1      23.931   2.462  53.105  1.00  0.00     0.206 C 
HETATM   13  N4  UNL     1      24.417   3.542  52.285  1.00  0.00    -0.360 N 
HETATM   14  C11 UNL     1      23.722   4.399  51.345  1.00  0.00     0.395 C 
HETATM   15  N5  UNL     1      23.142   3.627  50.334  1.00  0.00     0.106 NA
HETATM   16  C12 UNL     1      23.910   3.227  49.211  1.00  0.00     0.275 C 
HETATM   17  C13 UNL     1      22.867   2.576  48.281  1.00  0.00     0.037 C 
HETATM   18  C14 UNL     1      21.526   2.837  49.054  1.00  0.00     0.018 C 
HETATM   19  C15 UNL     1      21.975   4.191  49.662  1.00  0.00     0.279 C 
HETATM   20  C16 UNL     1      21.560   1.830  50.153  1.00  0.00     0.049 C 
HETATM   21  H9  UNL     1      25.443   3.657  52.456  1.00  0.00     0.162 HD
ENDROOT
BRANCH   1  22
HETATM   22  C1  UNL     1      20.581   3.242  51.892  1.00  0.00     0.117 C 
HETATM   23  N1  UNL     1      19.364   3.628  52.135  1.00  0.00    -0.314 NA
HETATM   24  H1  UNL     1      18.586   3.002  51.850  1.00  0.00     0.185 HD
ENDBRANCH   1  22
TORSDOF 1
ENDMDL
MODEL 6
REMARK VINA RESULT:      -7.2      6.922     10.255
REMARK  1 active torsions:
REMARK  status: ('A' for Active; 'I' for Inactive)
REMARK    1  A    between atoms: C1_2  and  C2_3 
ROOT
HETATM    1  C2  UNL     1      27.359   8.586  48.734  1.00  0.00     0.107 A 
HETATM    2  C3  UNL     1      26.062   8.235  49.358  1.00  0.00     0.012 A 
HETATM    3  C4  UNL     1      25.435   7.116  49.694  1.00  0.00     0.001 A 
HETATM    4  C5  UNL     1      25.914   5.775  49.522  1.00  0.00     0.023 A 
HETATM    5  C6  UNL     1      26.819   4.859  49.139  1.00  0.00     0.034 A 
HETATM    6 CL1  UNL     1      26.484   3.120  49.351  1.00  0.00    -0.084 Cl
HETATM    7  C7  UNL     1      28.100   5.203  48.563  1.00  0.00     0.028 A 
HETATM    8  C8  UNL     1      29.135   5.796  48.091  1.00  0.00     0.054 A 
HETATM    9  C9  UNL     1      29.236   7.238  48.009  1.00  0.00     0.147 A 
HETATM   10  N2  UNL     1      28.014   7.279  48.506  1.00  0.00    -0.251 NA
HETATM   11  N3  UNL     1      29.829   8.475  47.730  1.00  0.00    -0.225 NA
HETATM   12  C10 UNL     1      31.008   8.780  47.394  1.00  0.00     0.206 C 
HETATM   13  N4  UNL     1      31.058  10.211  47.233  1.00  0.00    -0.360 N 
HETATM   14  C11 UNL     1      30.195  11.249  47.759  1.00  0.00     0.395 C 
HETATM   15  N5  UNL     1      28.882  11.045  47.325  1.00  0.00     0.106 NA
HETATM   16  C12 UNL     1      28.469  11.518  46.053  1.00  0.00     0.275 C 
HETATM   17  C13 UNL     1      26.950  11.258  46.053  1.00  0.00     0.037 C 
HETATM   18  C14 UNL     1      26.705  10.729  47.510  1.00  0.00     0.018 C 
HETATM   19  C15 UNL     1      27.818  11.590  48.162  1.00  0.00     0.279 C 
HETATM   20  C16 UNL     1      27.209   9.327  47.457  1.00  0.00     0.049 C 
HETATM   21  H9  UNL     1      31.875  10.450  46.625  1.00  0.00     0.162 HD
ENDROOT
BRANCH   1  22
HETATM   22  C1  UNL     1      28.215   9.280  49.685  1.00  0.00     0.117 C 
HETATM   23  N1  UNL     1      27.618   9.343  50.838  1.00  0.00    -0.314 NA
HETATM   24  H1  UNL     1      26.674   8.919  50.925  1.00  0.00     0.185 HD
ENDBRANCH   1  22
TORSDOF 1
ENDMDL
MODEL 7
REMARK VINA RESULT:      -7.2      3.077      6.640
REMARK  1 active torsions:
REMARK  status: ('A' for Active; 'I' for Inactive)
REMARK    1  A    between atoms: C1_2  and  C2_3 
ROOT
HETATM    1  C2  UNL     1      23.564   3.772  51.021  1.00  0.00     0.107 A 
HETATM    2  C3  UNL     1      22.697   3.008  51.948  1.00  0.00     0.012 A 
HETATM    3  C4  UNL     1      22.825   1.923  52.700  1.00  0.00     0.001 A 
HETATM    4  C5  UNL     1      23.990   1.098  52.833  1.00  0.00     0.023 A 
HETATM    5  C6  UNL     1      25.263   0.759  52.567  1.00  0.00     0.034 A 
HETATM    6 CL1  UNL     1      25.988  -0.682  53.326  1.00  0.00    -0.084 Cl
HETATM    7  C7  UNL     1      26.121   1.526  51.690  1.00  0.00     0.028 A 
HETATM    8  C8  UNL     1      26.632   2.384  50.886  1.00  0.00     0.054 A 
HETATM    9  C9  UNL     1      25.885   3.516  50.377  1.00  0.00     0.147 A 
HETATM   10  N2  UNL     1      24.856   3.050  51.059  1.00  0.00    -0.251 NA
HETATM   11  N3  UNL     1      25.662   4.692  49.651  1.00  0.00    -0.225 NA
HETATM   12  C10 UNL     1      26.455   5.454  49.030  1.00  0.00     0.206 C 
HETATM   13  N4  UNL     1      25.674   6.522  48.461  1.00  0.00    -0.360 N 
HETATM   14  C11 UNL     1      24.363   7.026  48.818  1.00  0.00     0.395 C 
HETATM   15  N5  UNL     1      23.413   6.006  48.711  1.00  0.00     0.106 NA
HETATM   16  C12 UNL     1      22.821   5.711  47.456  1.00  0.00     0.275 C 
HETATM   17  C13 UNL     1      21.729   4.682  47.812  1.00  0.00     0.037 C 
HETATM   18  C14 UNL     1      21.813   4.640  49.379  1.00  0.00     0.018 C 
HETATM   19  C15 UNL     1      22.217   6.128  49.539  1.00  0.00     0.279 C 
HETATM   20  C16 UNL     1      23.033   3.823  49.637  1.00  0.00     0.049 C 
HETATM   21  H9  UNL     1      26.212   6.945  47.669  1.00  0.00     0.162 HD
ENDROOT
BRANCH   1  22
HETATM   22  C1  UNL     1      23.851   5.094  51.558  1.00  0.00     0.117 C 
HETATM   23  N1  UNL     1      23.680   5.083  52.847  1.00  0.00    -0.314 NA
HETATM   24  H1  UNL     1      23.382   4.195  53.294  1.00  0.00     0.185 HD
ENDBRANCH   1  22
TORSDOF 1
ENDMDL
MODEL 8
REMARK VINA RESULT:      -7.0      7.124      9.741
REMARK  1 active torsions:
REMARK  status: ('A' for Active; 'I' for Inactive)
REMARK    1  A    between atoms: C1_2  and  C2_3 
ROOT
HETATM    1  C2  UNL     1      29.161   7.073  48.199  1.00  0.00     0.107 A 
HETATM    2  C3  UNL     1      28.328   5.850  48.129  1.00  0.00     0.012 A 
HETATM    3  C4  UNL     1      27.149   5.468  48.601  1.00  0.00     0.001 A 
HETATM    4  C5  UNL     1      26.252   6.242  49.408  1.00  0.00     0.023 A 
HETATM    5  C6  UNL     1      25.877   7.350  50.069  1.00  0.00     0.034 A 
HETATM    6 CL1  UNL     1      24.321   7.397  50.937  1.00  0.00    -0.084 Cl
HETATM    7  C7  UNL     1      26.673   8.557  50.107  1.00  0.00     0.028 A 
HETATM    8  C8  UNL     1      27.571   9.463  49.966  1.00  0.00     0.054 A 
HETATM    9  C9  UNL     1      28.782   9.245  49.202  1.00  0.00     0.147 A 
HETATM   10  N2  UNL     1      28.347   8.016  49.000  1.00  0.00    -0.251 NA
HETATM   11  N3  UNL     1      30.016   9.566  48.624  1.00  0.00    -0.225 NA
HETATM   12  C10 UNL     1      30.625  10.667  48.509  1.00  0.00     0.206 C 
HETATM   13  N4  UNL     1      31.866  10.407  47.824  1.00  0.00    -0.360 N 
HETATM   14  C11 UNL     1      32.259   9.303  46.972  1.00  0.00     0.395 C 
HETATM   15  N5  UNL     1      32.164   8.099  47.675  1.00  0.00     0.106 NA
HETATM   16  C12 UNL     1      33.230   7.673  48.509  1.00  0.00     0.275 C 
HETATM   17  C13 UNL     1      32.805   6.252  48.931  1.00  0.00     0.037 C 
HETATM   18  C14 UNL     1      31.492   6.039  48.098  1.00  0.00     0.018 C 
HETATM   19  C15 UNL     1      31.954   6.889  46.886  1.00  0.00     0.279 C 
HETATM   20  C16 UNL     1      30.479   6.845  48.838  1.00  0.00     0.049 C 
HETATM   21  H9  UNL     1      32.531  11.187  48.031  1.00  0.00     0.162 HD
ENDROOT
BRANCH   1  22
HETATM   22  C1  UNL     1      29.276   7.692  46.886  1.00  0.00     0.117 C 
HETATM   23  N1  UNL     1      28.089   7.954  46.426  1.00  0.00    -0.314 NA
HETATM   24  H1  UNL     1      27.270   7.706  47.013  1.00  0.00     0.185 HD
ENDBRANCH   1  22
TORSDOF 1
ENDMDL
MODEL 9
REMARK VINA RESULT:      -7.0      8.706     11.068
REMARK  1 active torsions:
REMARK  status: ('A' for Active; 'I' for Inactive)
REMARK    1  A    between atoms: C1_2  and  C2_3 
ROOT
HETATM    1  C2  UNL     1      30.968   6.449  47.754  1.00  0.00     0.107 A 
HETATM    2  C3  UNL     1      30.873   4.972  47.694  1.00  0.00     0.012 A 
HETATM    3  C4  UNL     1      31.615   3.985  47.210  1.00  0.00     0.001 A 
HETATM    4  C5  UNL     1      32.872   4.105  46.530  1.00  0.00     0.023 A 
HETATM    5  C6  UNL     1      33.905   4.798  46.022  1.00  0.00     0.034 A 
HETATM    6 CL1  UNL     1      35.245   3.948  45.209  1.00  0.00    -0.084 Cl
HETATM    7  C7  UNL     1      34.016   6.238  46.113  1.00  0.00     0.028 A 
HETATM    8  C8  UNL     1      33.845   7.488  46.341  1.00  0.00     0.054 A 
HETATM    9  C9  UNL     1      32.684   8.001  47.039  1.00  0.00     0.147 A 
HETATM   10  N2  UNL     1      32.260   6.753  47.098  1.00  0.00    -0.251 NA
HETATM   11  N3  UNL     1      31.850   8.964  47.618  1.00  0.00    -0.225 NA
HETATM   12  C10 UNL     1      32.028  10.193  47.853  1.00  0.00     0.206 C 
HETATM   13  N4  UNL     1      30.826  10.697  48.466  1.00  0.00    -0.360 N 
HETATM   14  C11 UNL     1      29.762  10.004  49.163  1.00  0.00     0.395 C 
HETATM   15  N5  UNL     1      29.173   9.058  48.319  1.00  0.00     0.106 NA
HETATM   16  C12 UNL     1      28.156   9.447  47.411  1.00  0.00     0.275 C 
HETATM   17  C13 UNL     1      27.668   8.106  46.827  1.00  0.00     0.037 C 
HETATM   18  C14 UNL     1      28.492   7.064  47.663  1.00  0.00     0.018 C 
HETATM   19  C15 UNL     1      28.526   7.916  48.957  1.00  0.00     0.279 C 
HETATM   20  C16 UNL     1      29.852   7.133  47.056  1.00  0.00     0.049 C 
HETATM   21  H9  UNL     1      30.796  11.735  48.339  1.00  0.00     0.162 HD
ENDROOT
BRANCH   1  22
HETATM   22  C1  UNL     1      31.125   6.898  49.130  1.00  0.00     0.117 C 
HETATM   23  N1  UNL     1      31.293   5.868  49.904  1.00  0.00    -0.314 NA
HETATM   24  H1  UNL     1      31.293   4.924  49.471  1.00  0.00     0.185 HD
ENDBRANCH   1  22
TORSDOF 1
ENDMDL
