MODEL 1
REMARK VINA RESULT:      -7.6      0.000      0.000
REMARK  6 active torsions:
REMARK  status: ('A' for Active; 'I' for Inactive)
REMARK    1  A    between atoms: O1_2  and  C2_3 
REMARK    2  A    between atoms: C6_8  and  C7_9 
REMARK    3  A    between atoms: C7_9  and  O2_10 
REMARK    4  A    between atoms: C8_11  and  N2_12 
REMARK    5  A    between atoms: N2_12  and  C9_13 
REMARK    6  A    between atoms: C17_22  and  O3_23 
ROOT
HETATM    1  C2  UNL     1      26.486   0.213  54.181  1.00  0.00     0.103 A 
HETATM    2  C3  UNL     1      25.399  -0.602  53.942  1.00  0.00     0.072 A 
HETATM    3  C4  UNL     1      24.245  -0.021  53.442  1.00  0.00     0.071 A 
HETATM    4  N1  UNL     1      23.200  -0.811  53.213  1.00  0.00    -0.260 NA
HETATM    5  C5  UNL     1      22.082  -0.263  52.730  1.00  0.00     0.129 A 
HETATM    6  C6  UNL     1      21.973   1.076  52.462  1.00  0.00     0.010 A 
HETATM    7  C8  UNL     1      23.039   1.927  52.687  1.00  0.00     0.055 A 
HETATM    8  C15 UNL     1      24.190   1.337  53.189  1.00  0.00     0.023 A 
HETATM    9  C16 UNL     1      25.313   2.095  53.450  1.00  0.00     0.055 A 
HETATM   10  C17 UNL     1      26.492   1.572  53.950  1.00  0.00     0.102 A 
ENDROOT
BRANCH   7  11
HETATM   11  N2  UNL     1      23.029   3.305  52.444  1.00  0.00    -0.355 N 
HETATM   12  H9  UNL     1      22.654   3.685  53.339  1.00  0.00     0.166 HD
BRANCH  11  13
HETATM   13  C9  UNL     1      23.397   4.086  51.344  1.00  0.00     0.033 A 
HETATM   14  C10 UNL     1      23.602   3.437  50.147  1.00  0.00     0.029 A 
HETATM   15  C11 UNL     1      23.966   4.129  49.018  1.00  0.00     0.004 A 
HETATM   16  C12 UNL     1      24.116   5.508  49.142  1.00  0.00     0.019 A 
HETATM   17  C13 UNL     1      23.909   6.161  50.357  1.00  0.00     0.013 A 
HETATM   18 BR1  UNL     1      24.149   8.070  50.400  1.00  0.00    -0.051 Br
HETATM   19  C14 UNL     1      23.542   5.451  51.487  1.00  0.00     0.048 A 
ENDBRANCH  11  13
ENDBRANCH   7  11
BRANCH   6  20
HETATM   20  C7  UNL     1      20.716   1.644  51.926  1.00  0.00     0.206 C 
BRANCH  20  21
HETATM   21  O2  UNL     1      20.204   2.529  52.895  1.00  0.00    -0.396 OA
HETATM   22  H8  UNL     1      20.310   3.455  52.551  1.00  0.00     0.209 HD
ENDBRANCH  20  21
ENDBRANCH   6  20
BRANCH  10  23
HETATM   23  O3  UNL     1      27.640   2.255  54.232  1.00  0.00    -0.353 OA
HETATM   24  C18 UNL     1      28.675   2.572  53.352  1.00  0.00     0.210 C 
ENDBRANCH  10  23
BRANCH   1  25
HETATM   25  O1  UNL     1      27.624  -0.413  54.684  1.00  0.00    -0.353 OA
HETATM   26  C1  UNL     1      28.576  -0.987  53.818  1.00  0.00     0.210 C 
ENDBRANCH   1  25
TORSDOF 6
ENDMDL
MODEL 2
REMARK VINA RESULT:      -7.5      2.869      3.755
REMARK  6 active torsions:
REMARK  status: ('A' for Active; 'I' for Inactive)
REMARK    1  A    between atoms: O1_2  and  C2_3 
REMARK    2  A    between atoms: C6_8  and  C7_9 
REMARK    3  A    between atoms: C7_9  and  O2_10 
REMARK    4  A    between atoms: C8_11  and  N2_12 
REMARK    5  A    between atoms: N2_12  and  C9_13 
REMARK    6  A    between atoms: C17_22  and  O3_23 
ROOT
HETATM    1  C2  UNL     1      27.252   0.834  53.209  1.00  0.00     0.103 A 
HETATM    2  C3  UNL     1      26.794   0.068  54.261  1.00  0.00     0.072 A 
HETATM    3  C4  UNL     1      25.453  -0.279  54.282  1.00  0.00     0.071 A 
HETATM    4  N1  UNL     1      25.017  -1.017  55.297  1.00  0.00    -0.260 NA
HETATM    5  C5  UNL     1      23.726  -1.358  55.328  1.00  0.00     0.129 A 
HETATM    6  C6  UNL     1      22.839  -0.977  54.356  1.00  0.00     0.010 A 
HETATM    7  C8  UNL     1      23.256  -0.209  53.285  1.00  0.00     0.055 A 
HETATM    8  C15 UNL     1      24.601   0.134  53.273  1.00  0.00     0.023 A 
HETATM    9  C16 UNL     1      25.123   0.898  52.250  1.00  0.00     0.055 A 
HETATM   10  C17 UNL     1      26.452   1.275  52.176  1.00  0.00     0.102 A 
ENDROOT
BRANCH   7  11
HETATM   11  N2  UNL     1      22.432   0.228  52.243  1.00  0.00    -0.355 N 
HETATM   12  H9  UNL     1      22.649  -0.455  51.487  1.00  0.00     0.166 HD
BRANCH  11  13
HETATM   13  C9  UNL     1      21.519   1.281  52.121  1.00  0.00     0.033 A 
HETATM   14  C10 UNL     1      21.995   2.558  52.322  1.00  0.00     0.029 A 
HETATM   15  C11 UNL     1      21.166   3.648  52.222  1.00  0.00     0.004 A 
HETATM   16  C12 UNL     1      19.830   3.400  51.910  1.00  0.00     0.019 A 
HETATM   17  C13 UNL     1      19.353   2.105  51.709  1.00  0.00     0.013 A 
HETATM   18 BR1  UNL     1      17.488   1.894  51.284  1.00  0.00    -0.051 Br
HETATM   19  C14 UNL     1      20.201   1.016  51.813  1.00  0.00     0.048 A 
ENDBRANCH  11  13
ENDBRANCH   7  11
BRANCH   6  20
HETATM   20  C7  UNL     1      21.416  -1.377  54.427  1.00  0.00     0.206 C 
BRANCH  20  21
HETATM   21  O2  UNL     1      20.700  -0.298  54.983  1.00  0.00    -0.396 OA
HETATM   22  H8  UNL     1      20.673  -0.423  55.968  1.00  0.00     0.209 HD
ENDBRANCH  20  21
ENDBRANCH   6  20
BRANCH  10  23
HETATM   23  O3  UNL     1      27.041   2.026  51.200  1.00  0.00    -0.353 OA
HETATM   24  C18 UNL     1      26.438   2.994  50.395  1.00  0.00     0.210 C 
ENDBRANCH  10  23
BRANCH   1  25
HETATM   25  O1  UNL     1      28.606   1.159  53.229  1.00  0.00    -0.353 OA
HETATM   26  C1  UNL     1      29.556   0.263  53.759  1.00  0.00     0.210 C 
ENDBRANCH   1  25
TORSDOF 6
ENDMDL
MODEL 3
REMARK VINA RESULT:      -7.5      2.210      3.173
REMARK  6 active torsions:
REMARK  status: ('A' for Active; 'I' for Inactive)
REMARK    1  A    between atoms: O1_2  and  C2_3 
REMARK    2  A    between atoms: C6_8  and  C7_9 
REMARK    3  A    between atoms: C7_9  and  O2_10 
REMARK    4  A    between atoms: C8_11  and  N2_12 
REMARK    5  A    between atoms: N2_12  and  C9_13 
REMARK    6  A    between atoms: C17_22  and  O3_23 
ROOT
HETATM    1  C2  UNL     1      27.263   0.867  53.213  1.00  0.00     0.103 A 
HETATM    2  C3  UNL     1      26.809   0.083  54.255  1.00  0.00     0.072 A 
HETATM    3  C4  UNL     1      25.467  -0.259  54.279  1.00  0.00     0.071 A 
HETATM    4  N1  UNL     1      25.036  -1.013  55.284  1.00  0.00    -0.260 NA
HETATM    5  C5  UNL     1      23.744  -1.351  55.319  1.00  0.00     0.129 A 
HETATM    6  C6  UNL     1      22.851  -0.949  54.360  1.00  0.00     0.010 A 
HETATM    7  C8  UNL     1      23.264  -0.164  53.300  1.00  0.00     0.055 A 
HETATM    8  C15 UNL     1      24.610   0.175  53.284  1.00  0.00     0.023 A 
HETATM    9  C16 UNL     1      25.127   0.955  52.271  1.00  0.00     0.055 A 
HETATM   10  C17 UNL     1      26.457   1.329  52.195  1.00  0.00     0.102 A 
ENDROOT
BRANCH   7  11
HETATM   11  N2  UNL     1      22.434   0.295  52.272  1.00  0.00    -0.355 N 
HETATM   12  H9  UNL     1      22.519  -0.463  51.563  1.00  0.00     0.166 HD
BRANCH  11  13
HETATM   13  C9  UNL     1      21.647   1.441  52.115  1.00  0.00     0.033 A 
HETATM   14  C10 UNL     1      20.280   1.275  52.118  1.00  0.00     0.029 A 
HETATM   15  C11 UNL     1      19.435   2.347  51.970  1.00  0.00     0.004 A 
HETATM   16  C12 UNL     1      20.024   3.601  51.819  1.00  0.00     0.019 A 
HETATM   17  C13 UNL     1      21.409   3.764  51.816  1.00  0.00     0.013 A 
HETATM   18 BR1  UNL     1      22.101   5.546  51.599  1.00  0.00    -0.051 Br
HETATM   19  C14 UNL     1      22.249   2.674  51.966  1.00  0.00     0.048 A 
ENDBRANCH  11  13
ENDBRANCH   7  11
BRANCH   6  20
HETATM   20  C7  UNL     1      21.428  -1.346  54.434  1.00  0.00     0.206 C 
BRANCH  20  21
HETATM   21  O2  UNL     1      20.725  -0.288  55.045  1.00  0.00    -0.396 OA
HETATM   22  H8  UNL     1      21.327   0.134  55.714  1.00  0.00     0.209 HD
ENDBRANCH  20  21
ENDBRANCH   6  20
BRANCH  10  23
HETATM   23  O3  UNL     1      27.041   2.095  51.228  1.00  0.00    -0.353 OA
HETATM   24  C18 UNL     1      26.418   3.015  50.383  1.00  0.00     0.210 C 
ENDBRANCH  10  23
BRANCH   1  25
HETATM   25  O1  UNL     1      28.618   1.186  53.230  1.00  0.00    -0.353 OA
HETATM   26  C1  UNL     1      29.556   0.328  53.838  1.00  0.00     0.210 C 
ENDBRANCH   1  25
TORSDOF 6
ENDMDL
MODEL 4
REMARK VINA RESULT:      -7.3      3.365      6.250
REMARK  6 active torsions:
REMARK  status: ('A' for Active; 'I' for Inactive)
REMARK    1  A    between atoms: O1_2  and  C2_3 
REMARK    2  A    between atoms: C6_8  and  C7_9 
REMARK    3  A    between atoms: C7_9  and  O2_10 
REMARK    4  A    between atoms: C8_11  and  N2_12 
REMARK    5  A    between atoms: N2_12  and  C9_13 
REMARK    6  A    between atoms: C17_22  and  O3_23 
ROOT
HETATM    1  C2  UNL     1      20.972   0.545  51.959  1.00  0.00     0.103 A 
HETATM    2  C3  UNL     1      21.182   1.130  50.726  1.00  0.00     0.072 A 
HETATM    3  C4  UNL     1      22.382   1.788  50.512  1.00  0.00     0.071 A 
HETATM    4  N1  UNL     1      22.580   2.349  49.324  1.00  0.00    -0.260 NA
HETATM    5  C5  UNL     1      23.733   2.986  49.104  1.00  0.00     0.129 A 
HETATM    6  C6  UNL     1      24.715   3.081  50.055  1.00  0.00     0.010 A 
HETATM    7  C8  UNL     1      24.545   2.509  51.302  1.00  0.00     0.055 A 
HETATM    8  C15 UNL     1      23.340   1.853  51.508  1.00  0.00     0.023 A 
HETATM    9  C16 UNL     1      23.066   1.247  52.717  1.00  0.00     0.055 A 
HETATM   10  C17 UNL     1      21.887   0.577  52.989  1.00  0.00     0.102 A 
ENDROOT
BRANCH   7  11
HETATM   11  N2  UNL     1      25.485   2.549  52.337  1.00  0.00    -0.355 N 
HETATM   12  H9  UNL     1      25.216   3.415  52.848  1.00  0.00     0.166 HD
BRANCH  11  13
HETATM   13  C9  UNL     1      26.547   1.713  52.698  1.00  0.00     0.033 A 
HETATM   14  C10 UNL     1      27.664   2.308  53.241  1.00  0.00     0.029 A 
HETATM   15  C11 UNL     1      28.752   1.562  53.623  1.00  0.00     0.004 A 
HETATM   16  C12 UNL     1      28.670   0.183  53.435  1.00  0.00     0.019 A 
HETATM   17  C13 UNL     1      27.537  -0.414  52.883  1.00  0.00     0.013 A 
HETATM   18 BR1  UNL     1      27.546  -2.328  52.674  1.00  0.00    -0.051 Br
HETATM   19  C14 UNL     1      26.448   0.351  52.503  1.00  0.00     0.048 A 
ENDBRANCH  11  13
ENDBRANCH   7  11
BRANCH   6  20
HETATM   20  C7  UNL     1      25.980   3.795  49.772  1.00  0.00     0.206 C 
BRANCH  20  21
HETATM   21  O2  UNL     1      25.964   4.995  50.512  1.00  0.00    -0.396 OA
HETATM   22  H8  UNL     1      26.260   4.788  51.437  1.00  0.00     0.209 HD
ENDBRANCH  20  21
ENDBRANCH   6  20
BRANCH  10  23
HETATM   23  O3  UNL     1      21.546  -0.045  54.155  1.00  0.00    -0.353 OA
HETATM   24  C18 UNL     1      22.287  -0.996  54.858  1.00  0.00     0.210 C 
ENDBRANCH  10  23
BRANCH   1  25
HETATM   25  O1  UNL     1      19.752  -0.105  52.130  1.00  0.00    -0.353 OA
HETATM   26  C1  UNL     1      18.545   0.510  51.743  1.00  0.00     0.210 C 
ENDBRANCH   1  25
TORSDOF 6
ENDMDL
MODEL 5
REMARK VINA RESULT:      -7.2      2.160      5.397
REMARK  6 active torsions:
REMARK  status: ('A' for Active; 'I' for Inactive)
REMARK    1  A    between atoms: O1_2  and  C2_3 
REMARK    2  A    between atoms: C6_8  and  C7_9 
REMARK    3  A    between atoms: C7_9  and  O2_10 
REMARK    4  A    between atoms: C8_11  and  N2_12 
REMARK    5  A    between atoms: N2_12  and  C9_13 
REMARK    6  A    between atoms: C17_22  and  O3_23 
ROOT
HETATM    1  C2  UNL     1      19.810  -0.781  53.418  1.00  0.00     0.103 A 
HETATM    2  C3  UNL     1      20.619  -1.334  54.390  1.00  0.00     0.072 A 
HETATM    3  C4  UNL     1      21.972  -1.040  54.358  1.00  0.00     0.071 A 
HETATM    4  N1  UNL     1      22.747  -1.575  55.296  1.00  0.00    -0.260 NA
HETATM    5  C5  UNL     1      24.054  -1.298  55.277  1.00  0.00     0.129 A 
HETATM    6  C6  UNL     1      24.622  -0.487  54.330  1.00  0.00     0.010 A 
HETATM    7  C8  UNL     1      23.848   0.087  53.340  1.00  0.00     0.055 A 
HETATM    8  C15 UNL     1      22.493  -0.214  53.378  1.00  0.00     0.023 A 
HETATM    9  C16 UNL     1      21.630   0.306  52.436  1.00  0.00     0.055 A 
HETATM   10  C17 UNL     1      20.271   0.048  52.417  1.00  0.00     0.102 A 
ENDROOT
BRANCH   7  11
HETATM   11  N2  UNL     1      24.330   0.929  52.332  1.00  0.00    -0.355 N 
HETATM   12  H9  UNL     1      24.983   0.304  51.814  1.00  0.00     0.166 HD
BRANCH  11  13
HETATM   13  C9  UNL     1      24.082   2.265  52.000  1.00  0.00     0.033 A 
HETATM   14  C10 UNL     1      23.994   3.168  53.036  1.00  0.00     0.029 A 
HETATM   15  C11 UNL     1      23.753   4.499  52.798  1.00  0.00     0.004 A 
HETATM   16  C12 UNL     1      23.603   4.887  51.468  1.00  0.00     0.019 A 
HETATM   17  C13 UNL     1      23.692   3.968  50.423  1.00  0.00     0.013 A 
HETATM   18 BR1  UNL     1      23.467   4.627  48.629  1.00  0.00    -0.051 Br
HETATM   19  C14 UNL     1      23.936   2.630  50.677  1.00  0.00     0.048 A 
ENDBRANCH  11  13
ENDBRANCH   7  11
BRANCH   6  20
HETATM   20  C7  UNL     1      26.074  -0.205  54.345  1.00  0.00     0.206 C 
BRANCH  20  21
HETATM   21  O2  UNL     1      26.242   1.129  54.771  1.00  0.00    -0.396 OA
HETATM   22  H8  UNL     1      26.721   1.115  55.641  1.00  0.00     0.209 HD
ENDBRANCH  20  21
ENDBRANCH   6  20
BRANCH  10  23
HETATM   23  O3  UNL     1      19.356   0.524  51.523  1.00  0.00    -0.353 OA
HETATM   24  C18 UNL     1      19.606   1.054  50.256  1.00  0.00     0.210 C 
ENDBRANCH  10  23
BRANCH   1  25
HETATM   25  O1  UNL     1      18.457  -1.104  53.488  1.00  0.00    -0.353 OA
HETATM   26  C1  UNL     1      18.042  -2.432  53.709  1.00  0.00     0.210 C 
ENDBRANCH   1  25
TORSDOF 6
ENDMDL
MODEL 6
REMARK VINA RESULT:      -7.1      2.907      4.518
REMARK  6 active torsions:
REMARK  status: ('A' for Active; 'I' for Inactive)
REMARK    1  A    between atoms: O1_2  and  C2_3 
REMARK    2  A    between atoms: C6_8  and  C7_9 
REMARK    3  A    between atoms: C7_9  and  O2_10 
REMARK    4  A    between atoms: C8_11  and  N2_12 
REMARK    5  A    between atoms: N2_12  and  C9_13 
REMARK    6  A    between atoms: C17_22  and  O3_23 
ROOT
HETATM    1  C2  UNL     1      27.081  -0.015  53.651  1.00  0.00     0.103 A 
HETATM    2  C3  UNL     1      27.553   0.859  52.692  1.00  0.00     0.072 A 
HETATM    3  C4  UNL     1      26.652   1.729  52.102  1.00  0.00     0.071 A 
HETATM    4  N1  UNL     1      27.112   2.568  51.179  1.00  0.00    -0.260 NA
HETATM    5  C5  UNL     1      26.254   3.413  50.602  1.00  0.00     0.129 A 
HETATM    6  C6  UNL     1      24.923   3.447  50.925  1.00  0.00     0.010 A 
HETATM    7  C8  UNL     1      24.409   2.589  51.880  1.00  0.00     0.055 A 
HETATM    8  C15 UNL     1      25.318   1.720  52.466  1.00  0.00     0.023 A 
HETATM    9  C16 UNL     1      24.911   0.822  53.430  1.00  0.00     0.055 A 
HETATM   10  C17 UNL     1      25.764  -0.071  54.055  1.00  0.00     0.102 A 
ENDROOT
BRANCH   7  11
HETATM   11  N2  UNL     1      23.069   2.547  52.281  1.00  0.00    -0.355 N 
HETATM   12  H9  UNL     1      23.039   3.270  53.029  1.00  0.00     0.166 HD
BRANCH  11  13
HETATM   13  C9  UNL     1      21.970   1.787  51.868  1.00  0.00     0.033 A 
HETATM   14  C10 UNL     1      21.596   1.881  50.546  1.00  0.00     0.029 A 
HETATM   15  C11 UNL     1      20.528   1.170  50.058  1.00  0.00     0.004 A 
HETATM   16  C12 UNL     1      19.847   0.353  50.959  1.00  0.00     0.019 A 
HETATM   17  C13 UNL     1      20.229   0.261  52.297  1.00  0.00     0.013 A 
HETATM   18 BR1  UNL     1      19.209  -0.901  53.442  1.00  0.00    -0.051 Br
HETATM   19  C14 UNL     1      21.308   0.985  52.775  1.00  0.00     0.048 A 
ENDBRANCH  11  13
ENDBRANCH   7  11
BRANCH   6  20
HETATM   20  C7  UNL     1      24.004   4.400  50.263  1.00  0.00     0.206 C 
BRANCH  20  21
HETATM   21  O2  UNL     1      23.553   5.304  51.245  1.00  0.00    -0.396 OA
HETATM   22  H8  UNL     1      22.892   4.831  51.817  1.00  0.00     0.209 HD
ENDBRANCH  20  21
ENDBRANCH   6  20
BRANCH  10  23
HETATM   23  O3  UNL     1      25.438  -0.985  55.015  1.00  0.00    -0.353 OA
HETATM   24  C18 UNL     1      24.160  -1.330  55.458  1.00  0.00     0.210 C 
ENDBRANCH  10  23
BRANCH   1  25
HETATM   25  O1  UNL     1      28.021  -0.872  54.218  1.00  0.00    -0.353 OA
HETATM   26  C1  UNL     1      29.326  -0.960  53.695  1.00  0.00     0.210 C 
ENDBRANCH   1  25
TORSDOF 6
ENDMDL
MODEL 7
REMARK VINA RESULT:      -7.0      6.732      9.162
REMARK  6 active torsions:
REMARK  status: ('A' for Active; 'I' for Inactive)
REMARK    1  A    between atoms: O1_2  and  C2_3 
REMARK    2  A    between atoms: C6_8  and  C7_9 
REMARK    3  A    between atoms: C7_9  and  O2_10 
REMARK    4  A    between atoms: C8_11  and  N2_12 
REMARK    5  A    between atoms: N2_12  and  C9_13 
REMARK    6  A    between atoms: C17_22  and  O3_23 
ROOT
HETATM    1  C2  UNL     1      32.933   6.455  47.747  1.00  0.00     0.103 A 
HETATM    2  C3  UNL     1      32.806   7.630  48.460  1.00  0.00     0.072 A 
HETATM    3  C4  UNL     1      31.530   8.091  48.738  1.00  0.00     0.071 A 
HETATM    4  N1  UNL     1      31.414   9.223  49.424  1.00  0.00    -0.260 NA
HETATM    5  C5  UNL     1      30.189   9.677  49.699  1.00  0.00     0.129 A 
HETATM    6  C6  UNL     1      29.052   9.023  49.301  1.00  0.00     0.010 A 
HETATM    7  C8  UNL     1      29.135   7.843  48.586  1.00  0.00     0.055 A 
HETATM    8  C15 UNL     1      30.417   7.389  48.312  1.00  0.00     0.023 A 
HETATM    9  C16 UNL     1      30.613   6.221  47.604  1.00  0.00     0.055 A 
HETATM   10  C17 UNL     1      31.863   5.712  47.296  1.00  0.00     0.102 A 
ENDROOT
BRANCH   7  11
HETATM   11  N2  UNL     1      28.038   7.099  48.138  1.00  0.00    -0.355 N 
HETATM   12  H9  UNL     1      27.944   7.416  47.150  1.00  0.00     0.166 HD
BRANCH  11  13
HETATM   13  C9  UNL     1      27.207   6.154  48.748  1.00  0.00     0.033 A 
HETATM   14  C10 UNL     1      27.584   4.832  48.663  1.00  0.00     0.029 A 
HETATM   15  C11 UNL     1      26.825   3.840  49.235  1.00  0.00     0.004 A 
HETATM   16  C12 UNL     1      25.666   4.234  49.900  1.00  0.00     0.019 A 
HETATM   17  C13 UNL     1      25.289   5.574  49.983  1.00  0.00     0.013 A 
HETATM   18 BR1  UNL     1      23.665   5.991  50.929  1.00  0.00    -0.051 Br
HETATM   19  C14 UNL     1      26.063   6.563  49.402  1.00  0.00     0.048 A 
ENDBRANCH  11  13
ENDBRANCH   7  11
BRANCH   6  20
HETATM   20  C7  UNL     1      27.713   9.560  49.628  1.00  0.00     0.206 C 
BRANCH  20  21
HETATM   21  O2  UNL     1      27.623   9.650  51.032  1.00  0.00    -0.396 OA
HETATM   22  H8  UNL     1      28.197  10.405  51.328  1.00  0.00     0.209 HD
ENDBRANCH  20  21
ENDBRANCH   6  20
BRANCH  10  23
HETATM   23  O3  UNL     1      32.136   4.568  46.604  1.00  0.00    -0.353 OA
HETATM   24  C18 UNL     1      32.390   3.300  47.127  1.00  0.00     0.210 C 
ENDBRANCH  10  23
BRANCH   1  25
HETATM   25  O1  UNL     1      34.234   6.029  47.490  1.00  0.00    -0.353 OA
HETATM   26  C1  UNL     1      35.264   6.249  48.426  1.00  0.00     0.210 C 
ENDBRANCH   1  25
TORSDOF 6
ENDMDL
MODEL 8
REMARK VINA RESULT:      -6.9      1.649      4.594
REMARK  6 active torsions:
REMARK  status: ('A' for Active; 'I' for Inactive)
REMARK    1  A    between atoms: O1_2  and  C2_3 
REMARK    2  A    between atoms: C6_8  and  C7_9 
REMARK    3  A    between atoms: C7_9  and  O2_10 
REMARK    4  A    between atoms: C8_11  and  N2_12 
REMARK    5  A    between atoms: N2_12  and  C9_13 
REMARK    6  A    between atoms: C17_22  and  O3_23 
ROOT
HETATM    1  C2  UNL     1      21.682  -0.007  53.316  1.00  0.00     0.103 A 
HETATM    2  C3  UNL     1      22.821  -0.727  53.619  1.00  0.00     0.072 A 
HETATM    3  C4  UNL     1      24.046  -0.092  53.499  1.00  0.00     0.071 A 
HETATM    4  N1  UNL     1      25.139  -0.789  53.791  1.00  0.00    -0.260 NA
HETATM    5  C5  UNL     1      26.326  -0.188  53.680  1.00  0.00     0.129 A 
HETATM    6  C6  UNL     1      26.458   1.115  53.276  1.00  0.00     0.010 A 
HETATM    7  C8  UNL     1      25.344   1.871  52.964  1.00  0.00     0.055 A 
HETATM    8  C15 UNL     1      24.121   1.227  53.087  1.00  0.00     0.023 A 
HETATM    9  C16 UNL     1      22.945   1.888  52.800  1.00  0.00     0.055 A 
HETATM   10  C17 UNL     1      21.694   1.307  52.901  1.00  0.00     0.102 A 
ENDROOT
BRANCH   7  11
HETATM   11  N2  UNL     1      25.373   3.206  52.546  1.00  0.00    -0.355 N 
HETATM   12  H9  UNL     1      25.367   3.721  53.451  1.00  0.00     0.166 HD
BRANCH  11  13
HETATM   13  C9  UNL     1      25.404   3.814  51.287  1.00  0.00     0.033 A 
HETATM   14  C10 UNL     1      26.455   3.496  50.456  1.00  0.00     0.029 A 
HETATM   15  C11 UNL     1      26.562   4.049  49.204  1.00  0.00     0.004 A 
HETATM   16  C12 UNL     1      25.563   4.940  48.818  1.00  0.00     0.019 A 
HETATM   17  C13 UNL     1      24.501   5.260  49.664  1.00  0.00     0.013 A 
HETATM   18 BR1  UNL     1      23.183   6.504  49.016  1.00  0.00    -0.051 Br
HETATM   19  C14 UNL     1      24.405   4.694  50.924  1.00  0.00     0.048 A 
ENDBRANCH  11  13
ENDBRANCH   7  11
BRANCH   6  20
HETATM   20  C7  UNL     1      27.793   1.744  53.167  1.00  0.00     0.206 C 
BRANCH  20  21
HETATM   21  O2  UNL     1      27.864   2.759  54.142  1.00  0.00    -0.396 OA
HETATM   22  H8  UNL     1      27.376   3.553  53.796  1.00  0.00     0.209 HD
ENDBRANCH  20  21
ENDBRANCH   6  20
BRANCH  10  23
HETATM   23  O3  UNL     1      20.491   1.895  52.637  1.00  0.00    -0.353 OA
HETATM   24  C18 UNL     1      20.230   2.920  51.726  1.00  0.00     0.210 C 
ENDBRANCH  10  23
BRANCH   1  25
HETATM   25  O1  UNL     1      20.473  -0.685  53.452  1.00  0.00    -0.353 OA
HETATM   26  C1  UNL     1      20.376  -1.836  54.259  1.00  0.00     0.210 C 
ENDBRANCH   1  25
TORSDOF 6
ENDMDL
MODEL 9
REMARK VINA RESULT:      -6.9      3.080      6.142
REMARK  6 active torsions:
REMARK  status: ('A' for Active; 'I' for Inactive)
REMARK    1  A    between atoms: O1_2  and  C2_3 
REMARK    2  A    between atoms: C6_8  and  C7_9 
REMARK    3  A    between atoms: C7_9  and  O2_10 
REMARK    4  A    between atoms: C8_11  and  N2_12 
REMARK    5  A    between atoms: N2_12  and  C9_13 
REMARK    6  A    between atoms: C17_22  and  O3_23 
ROOT
HETATM    1  C2  UNL     1      24.779   4.443  50.442  1.00  0.00     0.103 A 
HETATM    2  C3  UNL     1      25.810   3.529  50.371  1.00  0.00     0.072 A 
HETATM    3  C4  UNL     1      25.757   2.419  51.197  1.00  0.00     0.071 A 
HETATM    4  N1  UNL     1      26.753   1.542  51.125  1.00  0.00    -0.260 NA
HETATM    5  C5  UNL     1      26.713   0.466  51.916  1.00  0.00     0.129 A 
HETATM    6  C6  UNL     1      25.687   0.235  52.796  1.00  0.00     0.010 A 
HETATM    7  C8  UNL     1      24.635   1.125  52.898  1.00  0.00     0.055 A 
HETATM    8  C15 UNL     1      24.697   2.235  52.067  1.00  0.00     0.023 A 
HETATM    9  C16 UNL     1      23.698   3.187  52.088  1.00  0.00     0.055 A 
HETATM   10  C17 UNL     1      23.698   4.315  51.287  1.00  0.00     0.102 A 
ENDROOT
BRANCH   7  11
HETATM   11  N2  UNL     1      23.543   0.980  53.760  1.00  0.00    -0.355 N 
HETATM   12  H9  UNL     1      23.812   1.584  54.564  1.00  0.00     0.166 HD
BRANCH  11  13
HETATM   13  C9  UNL     1      22.351   0.252  53.680  1.00  0.00     0.033 A 
HETATM   14  C10 UNL     1      22.225  -0.848  54.499  1.00  0.00     0.029 A 
HETATM   15  C11 UNL     1      21.088  -1.618  54.485  1.00  0.00     0.004 A 
HETATM   16  C12 UNL     1      20.076  -1.234  53.608  1.00  0.00     0.019 A 
HETATM   17  C13 UNL     1      20.208  -0.120  52.780  1.00  0.00     0.013 A 
HETATM   18 BR1  UNL     1      18.739   0.307  51.612  1.00  0.00    -0.051 Br
HETATM   19  C14 UNL     1      21.360   0.647  52.805  1.00  0.00     0.048 A 
ENDBRANCH  11  13
ENDBRANCH   7  11
BRANCH   6  20
HETATM   20  C7  UNL     1      25.680  -0.970  53.654  1.00  0.00     0.206 C 
BRANCH  20  21
HETATM   21  O2  UNL     1      25.917  -0.547  54.978  1.00  0.00    -0.396 OA
HETATM   22  H8  UNL     1      25.345   0.246  55.154  1.00  0.00     0.209 HD
ENDBRANCH  20  21
ENDBRANCH   6  20
BRANCH  10  23
HETATM   23  O3  UNL     1      22.749   5.296  51.251  1.00  0.00    -0.353 OA
HETATM   24  C18 UNL     1      21.365   5.136  51.169  1.00  0.00     0.210 C 
ENDBRANCH  10  23
BRANCH   1  25
HETATM   25  O1  UNL     1      24.874   5.544  49.594  1.00  0.00    -0.353 OA
HETATM   26  C1  UNL     1      26.129   6.021  49.167  1.00  0.00     0.210 C 
ENDBRANCH   1  25
TORSDOF 6
ENDMDL
