MODEL 1
REMARK VINA RESULT:      -8.3      0.000      0.000
REMARK  4 active torsions:
REMARK  status: ('A' for Active; 'I' for Inactive)
REMARK    1  A    between atoms: O1_2  and  C2_3 
REMARK    2  A    between atoms: C7_8  and  O2_9 
REMARK    3  A    between atoms: C11_15  and  N3_16 
REMARK    4  A    between atoms: N3_16  and  C12_17 
ROOT
HETATM    1  C2  UNL     1      25.126   5.529  50.370  1.00  0.00     0.076 C 
HETATM    2  C3  UNL     1      24.354   4.607  50.920  1.00  0.00     0.034 C 
HETATM    3  C4  UNL     1      24.511   3.185  50.461  1.00  0.00     0.077 A 
HETATM    4  C5  UNL     1      25.932   2.929  50.138  1.00  0.00    -0.002 C 
HETATM    5  C6  UNL     1      26.687   3.890  49.611  1.00  0.00     0.009 C 
HETATM    6  C7  UNL     1      26.141   5.245  49.327  1.00  0.00     0.197 C 
HETATM    7  C8  UNL     1      23.636   3.064  49.266  1.00  0.00     0.115 A 
HETATM    8  N1  UNL     1      22.612   2.281  49.086  1.00  0.00    -0.256 NA
HETATM    9  C9  UNL     1      22.192   1.375  50.127  1.00  0.00     0.232 A 
HETATM   10  N2  UNL     1      22.853   1.360  51.239  1.00  0.00    -0.243 NA
HETATM   11  C10 UNL     1      23.977   2.213  51.449  1.00  0.00     0.072 A 
HETATM   12  C11 UNL     1      24.565   2.102  52.631  1.00  0.00     0.112 C 
ENDROOT
BRANCH  12  13
HETATM   13  N3  UNL     1      25.693   2.822  53.109  1.00  0.00    -0.391 N 
HETATM   14  H12 UNL     1      25.824   3.872  53.001  1.00  0.00     0.159 HD
BRANCH  13  15
HETATM   15  C12 UNL     1      26.876   2.383  53.811  1.00  0.00     0.098 A 
HETATM   16  C13 UNL     1      28.104   2.254  52.983  1.00  0.00     0.046 A 
HETATM   17  C14 UNL     1      27.459   1.047  53.631  1.00  0.00     0.017 A 
HETATM   18  C15 UNL     1      28.229   0.458  54.754  1.00  0.00    -0.015 C 
HETATM   19  C19 UNL     1      26.891   0.005  52.750  1.00  0.00    -0.015 C 
HETATM   20  C16 UNL     1      28.909  -0.647  54.553  1.00  0.00    -0.026 C 
HETATM   21  C17 UNL     1      28.924  -1.327  53.214  1.00  0.00     0.053 C 
HETATM   22  C18 UNL     1      27.619  -1.095  52.584  1.00  0.00    -0.026 C 
ENDBRANCH  13  15
ENDBRANCH  12  13
BRANCH   1  23
HETATM   23  O1  UNL     1      24.975   6.842  50.797  1.00  0.00    -0.357 OA
HETATM   24  C1  UNL     1      23.679   7.422  50.808  1.00  0.00     0.209 C 
ENDBRANCH   1  23
BRANCH   6  25
HETATM   25  O2  UNL     1      27.167   6.207  49.358  1.00  0.00    -0.385 OA
HETATM   26  H8  UNL     1      28.045   5.846  49.087  1.00  0.00     0.210 HD
ENDBRANCH   6  25
TORSDOF 4
ENDMDL
MODEL 2
REMARK VINA RESULT:      -8.1      2.472      5.763
REMARK  4 active torsions:
REMARK  status: ('A' for Active; 'I' for Inactive)
REMARK    1  A    between atoms: O1_2  and  C2_3 
REMARK    2  A    between atoms: C7_8  and  O2_9 
REMARK    3  A    between atoms: C11_15  and  N3_16 
REMARK    4  A    between atoms: N3_16  and  C12_17 
ROOT
HETATM    1  C2  UNL     1      25.648   0.733  52.714  1.00  0.00     0.076 C 
HETATM    2  C3  UNL     1      24.474   0.278  52.312  1.00  0.00     0.034 C 
HETATM    3  C4  UNL     1      23.237   0.962  52.822  1.00  0.00     0.077 A 
HETATM    4  C5  UNL     1      23.506   2.409  52.982  1.00  0.00    -0.002 C 
HETATM    5  C6  UNL     1      24.709   2.832  53.361  1.00  0.00     0.009 C 
HETATM    6  C7  UNL     1      25.820   1.880  53.639  1.00  0.00     0.197 C 
HETATM    7  C8  UNL     1      22.936   0.303  54.120  1.00  0.00     0.115 A 
HETATM    8  N1  UNL     1      21.874  -0.364  54.464  1.00  0.00    -0.256 NA
HETATM    9  C9  UNL     1      20.788  -0.543  53.531  1.00  0.00     0.232 A 
HETATM   10  N2  UNL     1      20.896  -0.029  52.350  1.00  0.00    -0.243 NA
HETATM   11  C10 UNL     1      22.055   0.704  51.959  1.00  0.00     0.072 A 
HETATM   12  C11 UNL     1      22.042   1.176  50.722  1.00  0.00     0.112 C 
ENDROOT
BRANCH  12  13
HETATM   13  N3  UNL     1      23.054   1.934  50.072  1.00  0.00    -0.391 N 
HETATM   14  H12 UNL     1      23.923   1.514  49.624  1.00  0.00     0.159 HD
BRANCH  13  15
HETATM   15  C12 UNL     1      23.187   3.354  49.852  1.00  0.00     0.098 A 
HETATM   16  C13 UNL     1      23.551   3.759  48.469  1.00  0.00     0.046 A 
HETATM   17  C14 UNL     1      24.484   4.009  49.635  1.00  0.00     0.017 A 
HETATM   18  C15 UNL     1      24.629   5.433  50.022  1.00  0.00    -0.015 C 
HETATM   19  C19 UNL     1      25.784   3.303  49.649  1.00  0.00    -0.015 C 
HETATM   20  C16 UNL     1      25.713   6.085  49.670  1.00  0.00    -0.026 C 
HETATM   21  C17 UNL     1      26.808   5.422  48.887  1.00  0.00     0.053 C 
HETATM   22  C18 UNL     1      26.849   4.011  49.288  1.00  0.00    -0.026 C 
ENDBRANCH  13  15
ENDBRANCH  12  13
BRANCH   1  23
HETATM   23  O1  UNL     1      26.789   0.097  52.241  1.00  0.00    -0.357 OA
HETATM   24  C1  UNL     1      27.072  -1.226  52.673  1.00  0.00     0.209 C 
ENDBRANCH   1  23
BRANCH   6  25
HETATM   25  O2  UNL     1      27.065   2.502  53.432  1.00  0.00    -0.385 OA
HETATM   26  H8  UNL     1      27.467   2.284  52.556  1.00  0.00     0.210 HD
ENDBRANCH   6  25
TORSDOF 4
ENDMDL
MODEL 3
REMARK VINA RESULT:      -8.0      2.732      3.714
REMARK  4 active torsions:
REMARK  status: ('A' for Active; 'I' for Inactive)
REMARK    1  A    between atoms: O1_2  and  C2_3 
REMARK    2  A    between atoms: C7_8  and  O2_9 
REMARK    3  A    between atoms: C11_15  and  N3_16 
REMARK    4  A    between atoms: N3_16  and  C12_17 
ROOT
HETATM    1  C2  UNL     1      21.795   3.132  51.833  1.00  0.00     0.076 C 
HETATM    2  C3  UNL     1      21.843   2.136  52.701  1.00  0.00     0.034 C 
HETATM    3  C4  UNL     1      21.540   0.750  52.208  1.00  0.00     0.077 A 
HETATM    4  C5  UNL     1      22.031   0.605  50.820  1.00  0.00    -0.002 C 
HETATM    5  C6  UNL     1      21.992   1.637  49.981  1.00  0.00     0.009 C 
HETATM    6  C7  UNL     1      21.459   2.964  50.398  1.00  0.00     0.197 C 
HETATM    7  C8  UNL     1      20.061   0.622  52.294  1.00  0.00     0.115 A 
HETATM    8  N1  UNL     1      19.360  -0.220  52.996  1.00  0.00    -0.256 NA
HETATM    9  C9  UNL     1      20.012  -1.198  53.832  1.00  0.00     0.232 A 
HETATM   10  N2  UNL     1      21.304  -1.217  53.871  1.00  0.00    -0.243 NA
HETATM   11  C10 UNL     1      22.086  -0.300  53.107  1.00  0.00     0.072 A 
HETATM   12  C11 UNL     1      23.398  -0.422  53.237  1.00  0.00     0.112 C 
ENDROOT
BRANCH  12  13
HETATM   13  N3  UNL     1      24.408   0.351  52.602  1.00  0.00    -0.391 N 
HETATM   14  H12 UNL     1      24.388   0.637  51.578  1.00  0.00     0.159 HD
BRANCH  13  15
HETATM   15  C12 UNL     1      25.634   0.919  53.111  1.00  0.00     0.098 A 
HETATM   16  C13 UNL     1      26.716   1.112  52.110  1.00  0.00     0.046 A 
HETATM   17  C14 UNL     1      26.870   0.141  53.261  1.00  0.00     0.017 A 
HETATM   18  C15 UNL     1      27.843   0.557  54.301  1.00  0.00    -0.015 C 
HETATM   19  C19 UNL     1      26.989  -1.299  52.945  1.00  0.00    -0.015 C 
HETATM   20  C16 UNL     1      29.028  -0.007  54.331  1.00  0.00    -0.026 C 
HETATM   21  C17 UNL     1      29.420  -1.063  53.338  1.00  0.00     0.053 C 
HETATM   22  C18 UNL     1      28.210  -1.819  52.994  1.00  0.00    -0.026 C 
ENDBRANCH  13  15
ENDBRANCH  12  13
BRANCH   1  23
HETATM   23  O1  UNL     1      22.075   4.411  52.294  1.00  0.00    -0.357 OA
HETATM   24  C1  UNL     1      23.399   4.724  52.701  1.00  0.00     0.209 C 
ENDBRANCH   1  23
BRANCH   6  25
HETATM   25  O2  UNL     1      22.038   3.991  49.629  1.00  0.00    -0.385 OA
HETATM   26  H8  UNL     1      21.436   4.334  48.925  1.00  0.00     0.210 HD
ENDBRANCH   6  25
TORSDOF 4
ENDMDL
MODEL 4
REMARK VINA RESULT:      -7.9      2.493      5.731
REMARK  4 active torsions:
REMARK  status: ('A' for Active; 'I' for Inactive)
REMARK    1  A    between atoms: O1_2  and  C2_3 
REMARK    2  A    between atoms: C7_8  and  O2_9 
REMARK    3  A    between atoms: C11_15  and  N3_16 
REMARK    4  A    between atoms: N3_16  and  C12_17 
ROOT
HETATM    1  C2  UNL     1      25.749   2.608  51.320  1.00  0.00     0.076 C 
HETATM    2  C3  UNL     1      26.416   1.600  51.855  1.00  0.00     0.034 C 
HETATM    3  C4  UNL     1      26.512   1.528  53.352  1.00  0.00     0.077 A 
HETATM    4  C5  UNL     1      25.261   2.046  53.949  1.00  0.00    -0.002 C 
HETATM    5  C6  UNL     1      24.600   3.044  53.368  1.00  0.00     0.009 C 
HETATM    6  C7  UNL     1      25.086   3.675  52.110  1.00  0.00     0.197 C 
HETATM    7  C8  UNL     1      27.688   2.365  53.707  1.00  0.00     0.115 A 
HETATM    8  N1  UNL     1      28.785   2.009  54.310  1.00  0.00    -0.256 NA
HETATM    9  C9  UNL     1      28.979   0.643  54.729  1.00  0.00     0.232 A 
HETATM   10  N2  UNL     1      28.043  -0.217  54.491  1.00  0.00    -0.243 NA
HETATM   11  C10 UNL     1      26.836   0.159  53.831  1.00  0.00     0.072 A 
HETATM   12  C11 UNL     1      25.959  -0.816  53.644  1.00  0.00     0.112 C 
ENDROOT
BRANCH  12  13
HETATM   13  N3  UNL     1      24.685  -0.729  53.019  1.00  0.00    -0.391 N 
HETATM   14  H12 UNL     1      24.525  -0.819  51.971  1.00  0.00     0.159 HD
BRANCH  13  15
HETATM   15  C12 UNL     1      23.368  -0.514  53.567  1.00  0.00     0.098 A 
HETATM   16  C13 UNL     1      22.287  -1.358  52.993  1.00  0.00     0.046 A 
HETATM   17  C14 UNL     1      22.291   0.146  52.817  1.00  0.00     0.017 A 
HETATM   18  C15 UNL     1      21.239   0.864  53.577  1.00  0.00    -0.015 C 
HETATM   19  C19 UNL     1      22.441   0.685  51.448  1.00  0.00    -0.015 C 
HETATM   20  C16 UNL     1      20.176   1.301  52.943  1.00  0.00    -0.026 C 
HETATM   21  C17 UNL     1      20.001   1.090  51.467  1.00  0.00     0.053 C 
HETATM   22  C18 UNL     1      21.334   1.117  50.854  1.00  0.00    -0.026 C 
ENDBRANCH  13  15
ENDBRANCH  12  13
BRANCH   1  23
HETATM   23  O1  UNL     1      25.664   2.671  49.935  1.00  0.00    -0.357 OA
HETATM   24  C1  UNL     1      26.591   3.476  49.222  1.00  0.00     0.209 C 
ENDBRANCH   1  23
BRANCH   6  25
HETATM   25  O2  UNL     1      24.012   4.231  51.391  1.00  0.00    -0.385 OA
HETATM   26  H8  UNL     1      24.302   4.744  50.598  1.00  0.00     0.210 HD
ENDBRANCH   6  25
TORSDOF 4
ENDMDL
MODEL 5
REMARK VINA RESULT:      -7.9      3.157      5.082
REMARK  4 active torsions:
REMARK  status: ('A' for Active; 'I' for Inactive)
REMARK    1  A    between atoms: O1_2  and  C2_3 
REMARK    2  A    between atoms: C7_8  and  O2_9 
REMARK    3  A    between atoms: C11_15  and  N3_16 
REMARK    4  A    between atoms: N3_16  and  C12_17 
ROOT
HETATM    1  C2  UNL     1      21.969   2.873  50.664  1.00  0.00     0.076 C 
HETATM    2  C3  UNL     1      23.247   2.560  50.530  1.00  0.00     0.034 C 
HETATM    3  C4  UNL     1      24.274   3.560  50.980  1.00  0.00     0.077 A 
HETATM    4  C5  UNL     1      23.764   4.287  52.164  1.00  0.00    -0.002 C 
HETATM    5  C6  UNL     1      22.467   4.561  52.279  1.00  0.00     0.009 C 
HETATM    6  C7  UNL     1      21.487   4.155  51.234  1.00  0.00     0.197 C 
HETATM    7  C8  UNL     1      24.474   4.461  49.815  1.00  0.00     0.115 A 
HETATM    8  N1  UNL     1      25.564   4.681  49.138  1.00  0.00    -0.256 NA
HETATM    9  C9  UNL     1      26.791   4.008  49.487  1.00  0.00     0.232 A 
HETATM   10  N2  UNL     1      26.783   3.184  50.483  1.00  0.00    -0.243 NA
HETATM   11  C10 UNL     1      25.596   2.933  51.234  1.00  0.00     0.072 A 
HETATM   12  C11 UNL     1      25.721   2.065  52.227  1.00  0.00     0.112 C 
ENDROOT
BRANCH  12  13
HETATM   13  N3  UNL     1      24.713   1.629  53.129  1.00  0.00    -0.391 N 
HETATM   14  H12 UNL     1      24.093   2.282  53.695  1.00  0.00     0.159 HD
BRANCH  13  15
HETATM   15  C12 UNL     1      24.279   0.305  53.505  1.00  0.00     0.098 A 
HETATM   16  C13 UNL     1      23.606  -0.478  52.436  1.00  0.00     0.046 A 
HETATM   17  C14 UNL     1      22.864  -0.048  53.684  1.00  0.00     0.017 A 
HETATM   18  C15 UNL     1      22.526  -1.151  54.617  1.00  0.00    -0.015 C 
HETATM   19  C19 UNL     1      21.744   0.906  53.534  1.00  0.00    -0.015 C 
HETATM   20  C16 UNL     1      21.294  -1.603  54.654  1.00  0.00    -0.026 C 
HETATM   21  C17 UNL     1      20.221  -1.029  53.774  1.00  0.00     0.053 C 
HETATM   22  C18 UNL     1      20.518   0.395  53.583  1.00  0.00    -0.026 C 
ENDBRANCH  13  15
ENDBRANCH  12  13
BRANCH   1  23
HETATM   23  O1  UNL     1      21.024   1.946  50.246  1.00  0.00    -0.357 OA
HETATM   24  C1  UNL     1      21.409   0.932  49.328  1.00  0.00     0.209 C 
ENDBRANCH   1  23
BRANCH   6  25
HETATM   25  O2  UNL     1      20.206   3.997  51.795  1.00  0.00    -0.385 OA
HETATM   26  H8  UNL     1      20.223   3.886  52.777  1.00  0.00     0.210 HD
ENDBRANCH   6  25
TORSDOF 4
ENDMDL
MODEL 6
REMARK VINA RESULT:      -7.6      3.147      4.632
REMARK  4 active torsions:
REMARK  status: ('A' for Active; 'I' for Inactive)
REMARK    1  A    between atoms: O1_2  and  C2_3 
REMARK    2  A    between atoms: C7_8  and  O2_9 
REMARK    3  A    between atoms: C11_15  and  N3_16 
REMARK    4  A    between atoms: N3_16  and  C12_17 
ROOT
HETATM    1  C2  UNL     1      21.056   2.927  51.568  1.00  0.00     0.076 C 
HETATM    2  C3  UNL     1      20.493   2.079  52.411  1.00  0.00     0.034 C 
HETATM    3  C4  UNL     1      20.237   0.676  51.940  1.00  0.00     0.077 A 
HETATM    4  C5  UNL     1      21.318   0.264  51.017  1.00  0.00    -0.002 C 
HETATM    5  C6  UNL     1      21.882   1.151  50.201  1.00  0.00     0.009 C 
HETATM    6  C7  UNL     1      21.453   2.577  50.182  1.00  0.00     0.197 C 
HETATM    7  C8  UNL     1      18.915   0.728  51.264  1.00  0.00     0.115 A 
HETATM    8  N1  UNL     1      17.823   0.088  51.568  1.00  0.00    -0.256 NA
HETATM    9  C9  UNL     1      17.792  -0.814  52.692  1.00  0.00     0.232 A 
HETATM   10  N2  UNL     1      18.869  -0.971  53.390  1.00  0.00    -0.243 NA
HETATM   11  C10 UNL     1      20.073  -0.276  53.069  1.00  0.00     0.072 A 
HETATM   12  C11 UNL     1      21.103  -0.522  53.864  1.00  0.00     0.112 C 
ENDROOT
BRANCH  12  13
HETATM   13  N3  UNL     1      22.412   0.026  53.781  1.00  0.00    -0.391 N 
HETATM   14  H12 UNL     1      22.650   1.043  53.983  1.00  0.00     0.159 HD
BRANCH  13  15
HETATM   15  C12 UNL     1      23.677  -0.576  53.433  1.00  0.00     0.098 A 
HETATM   16  C13 UNL     1      24.700  -0.590  54.512  1.00  0.00     0.046 A 
HETATM   17  C14 UNL     1      24.905   0.206  53.240  1.00  0.00     0.017 A 
HETATM   18  C15 UNL     1      25.947  -0.331  52.331  1.00  0.00    -0.015 C 
HETATM   19  C19 UNL     1      24.978   1.679  53.347  1.00  0.00    -0.015 C 
HETATM   20  C16 UNL     1      27.121   0.255  52.286  1.00  0.00    -0.026 C 
HETATM   21  C17 UNL     1      27.432   1.455  53.133  1.00  0.00     0.053 C 
HETATM   22  C18 UNL     1      26.190   2.220  53.292  1.00  0.00    -0.026 C 
ENDBRANCH  13  15
ENDBRANCH  12  13
BRANCH   1  23
HETATM   23  O1  UNL     1      21.290   4.224  52.008  1.00  0.00    -0.357 OA
HETATM   24  C1  UNL     1      22.542   4.537  52.600  1.00  0.00     0.209 C 
ENDBRANCH   1  23
BRANCH   6  25
HETATM   25  O2  UNL     1      22.506   3.402  49.744  1.00  0.00    -0.385 OA
HETATM   26  H8  UNL     1      23.133   3.647  50.467  1.00  0.00     0.210 HD
ENDBRANCH   6  25
TORSDOF 4
ENDMDL
MODEL 7
REMARK VINA RESULT:      -7.6      1.792      2.214
REMARK  4 active torsions:
REMARK  status: ('A' for Active; 'I' for Inactive)
REMARK    1  A    between atoms: O1_2  and  C2_3 
REMARK    2  A    between atoms: C7_8  and  O2_9 
REMARK    3  A    between atoms: C11_15  and  N3_16 
REMARK    4  A    between atoms: N3_16  and  C12_17 
ROOT
HETATM    1  C2  UNL     1      23.695   4.689  50.747  1.00  0.00     0.076 C 
HETATM    2  C3  UNL     1      23.072   3.903  51.608  1.00  0.00     0.034 C 
HETATM    3  C4  UNL     1      22.210   2.799  51.066  1.00  0.00     0.077 A 
HETATM    4  C5  UNL     1      22.811   2.276  49.818  1.00  0.00    -0.002 C 
HETATM    5  C6  UNL     1      23.455   3.092  48.988  1.00  0.00     0.009 C 
HETATM    6  C7  UNL     1      23.596   4.546  49.274  1.00  0.00     0.197 C 
HETATM    7  C8  UNL     1      20.883   3.424  50.827  1.00  0.00     0.115 A 
HETATM    8  N1  UNL     1      19.735   3.121  51.361  1.00  0.00    -0.256 NA
HETATM    9  C9  UNL     1      19.637   2.051  52.323  1.00  0.00     0.232 A 
HETATM   10  N2  UNL     1      20.709   1.404  52.643  1.00  0.00    -0.243 NA
HETATM   11  C10 UNL     1      21.973   1.726  52.066  1.00  0.00     0.072 A 
HETATM   12  C11 UNL     1      22.995   0.991  52.480  1.00  0.00     0.112 C 
ENDROOT
BRANCH  12  13
HETATM   13  N3  UNL     1      24.354   1.091  52.078  1.00  0.00    -0.391 N 
HETATM   14  H12 UNL     1      24.703   0.905  51.091  1.00  0.00     0.159 HD
BRANCH  13  15
HETATM   15  C12 UNL     1      25.543   1.441  52.818  1.00  0.00     0.098 A 
HETATM   16  C13 UNL     1      26.789   1.558  52.016  1.00  0.00     0.046 A 
HETATM   17  C14 UNL     1      26.631   0.488  53.076  1.00  0.00     0.017 A 
HETATM   18  C15 UNL     1      27.466   0.683  54.286  1.00  0.00    -0.015 C 
HETATM   19  C19 UNL     1      26.617  -0.925  52.640  1.00  0.00    -0.015 C 
HETATM   20  C16 UNL     1      28.551  -0.042  54.437  1.00  0.00    -0.026 C 
HETATM   21  C17 UNL     1      28.963  -1.062  53.415  1.00  0.00     0.053 C 
HETATM   22  C18 UNL     1      27.739  -1.613  52.821  1.00  0.00    -0.026 C 
ENDBRANCH  13  15
ENDBRANCH  12  13
BRANCH   1  23
HETATM   23  O1  UNL     1      24.490   5.709  51.254  1.00  0.00    -0.357 OA
HETATM   24  C1  UNL     1      23.984   7.036  51.270  1.00  0.00     0.209 C 
ENDBRANCH   1  23
BRANCH   6  25
HETATM   25  O2  UNL     1      24.745   5.063  48.647  1.00  0.00    -0.385 OA
HETATM   26  H8  UNL     1      24.916   6.010  48.870  1.00  0.00     0.210 HD
ENDBRANCH   6  25
TORSDOF 4
ENDMDL
MODEL 8
REMARK VINA RESULT:      -7.5      2.640      6.127
REMARK  4 active torsions:
REMARK  status: ('A' for Active; 'I' for Inactive)
REMARK    1  A    between atoms: O1_2  and  C2_3 
REMARK    2  A    between atoms: C7_8  and  O2_9 
REMARK    3  A    between atoms: C11_15  and  N3_16 
REMARK    4  A    between atoms: N3_16  and  C12_17 
ROOT
HETATM    1  C2  UNL     1      23.177   3.395  50.501  1.00  0.00     0.076 C 
HETATM    2  C3  UNL     1      23.818   2.283  50.818  1.00  0.00     0.034 C 
HETATM    3  C4  UNL     1      24.679   2.287  52.049  1.00  0.00     0.077 A 
HETATM    4  C5  UNL     1      24.064   3.159  53.075  1.00  0.00    -0.002 C 
HETATM    5  C6  UNL     1      23.403   4.256  52.717  1.00  0.00     0.009 C 
HETATM    6  C7  UNL     1      23.256   4.650  51.288  1.00  0.00     0.197 C 
HETATM    7  C8  UNL     1      25.999   2.801  51.597  1.00  0.00     0.115 A 
HETATM    8  N1  UNL     1      27.155   2.206  51.630  1.00  0.00    -0.256 NA
HETATM    9  C9  UNL     1      27.275   0.868  52.156  1.00  0.00     0.232 A 
HETATM   10  N2  UNL     1      26.211   0.276  52.590  1.00  0.00    -0.243 NA
HETATM   11  C10 UNL     1      24.937   0.916  52.560  1.00  0.00     0.072 A 
HETATM   12  C11 UNL     1      23.927   0.201  53.032  1.00  0.00     0.112 C 
ENDROOT
BRANCH  12  13
HETATM   13  N3  UNL     1      22.561   0.584  53.121  1.00  0.00    -0.391 N 
HETATM   14  H12 UNL     1      22.208   1.420  53.676  1.00  0.00     0.159 HD
BRANCH  13  15
HETATM   15  C12 UNL     1      21.370   0.008  52.543  1.00  0.00     0.098 A 
HETATM   16  C13 UNL     1      21.184   0.244  51.087  1.00  0.00     0.046 A 
HETATM   17  C14 UNL     1      20.224   0.817  52.108  1.00  0.00     0.017 A 
HETATM   18  C15 UNL     1      18.878   0.194  52.115  1.00  0.00    -0.015 C 
HETATM   19  C19 UNL     1      20.147   2.288  52.242  1.00  0.00    -0.015 C 
HETATM   20  C16 UNL     1      17.874   0.833  51.561  1.00  0.00    -0.026 C 
HETATM   21  C17 UNL     1      18.057   2.179  50.922  1.00  0.00     0.053 C 
HETATM   22  C18 UNL     1      19.109   2.883  51.665  1.00  0.00    -0.026 C 
ENDBRANCH  13  15
ENDBRANCH  12  13
BRANCH   1  23
HETATM   23  O1  UNL     1      22.383   3.386  49.362  1.00  0.00    -0.357 OA
HETATM   24  C1  UNL     1      22.661   2.448  48.333  1.00  0.00     0.209 C 
ENDBRANCH   1  23
BRANCH   6  25
HETATM   25  O2  UNL     1      22.095   5.424  51.106  1.00  0.00    -0.385 OA
HETATM   26  H8  UNL     1      22.280   6.317  50.727  1.00  0.00     0.210 HD
ENDBRANCH   6  25
TORSDOF 4
ENDMDL
MODEL 9
REMARK VINA RESULT:      -7.4      2.708      4.090
REMARK  4 active torsions:
REMARK  status: ('A' for Active; 'I' for Inactive)
REMARK    1  A    between atoms: O1_2  and  C2_3 
REMARK    2  A    between atoms: C7_8  and  O2_9 
REMARK    3  A    between atoms: C11_15  and  N3_16 
REMARK    4  A    between atoms: N3_16  and  C12_17 
ROOT
HETATM    1  C2  UNL     1      22.456   3.064  50.216  1.00  0.00     0.076 C 
HETATM    2  C3  UNL     1      23.573   3.422  49.606  1.00  0.00     0.034 C 
HETATM    3  C4  UNL     1      24.415   4.493  50.238  1.00  0.00     0.077 A 
HETATM    4  C5  UNL     1      24.328   4.380  51.711  1.00  0.00    -0.002 C 
HETATM    5  C6  UNL     1      23.195   3.990  52.290  1.00  0.00     0.009 C 
HETATM    6  C7  UNL     1      21.983   3.656  51.491  1.00  0.00     0.197 C 
HETATM    7  C8  UNL     1      23.850   5.775  49.742  1.00  0.00     0.115 A 
HETATM    8  N1  UNL     1      24.434   6.699  49.035  1.00  0.00    -0.256 NA
HETATM    9  C9  UNL     1      25.810   6.551  48.630  1.00  0.00     0.232 A 
HETATM   10  N2  UNL     1      26.448   5.483  48.983  1.00  0.00    -0.243 NA
HETATM   11  C10 UNL     1      25.820   4.462  49.757  1.00  0.00     0.072 A 
HETATM   12  C11 UNL     1      26.581   3.417  50.049  1.00  0.00     0.112 C 
ENDROOT
BRANCH  12  13
HETATM   13  N3  UNL     1      26.221   2.264  50.798  1.00  0.00    -0.391 N 
HETATM   14  H12 UNL     1      25.381   1.648  50.582  1.00  0.00     0.159 HD
BRANCH  13  15
HETATM   15  C12 UNL     1      26.827   1.653  51.956  1.00  0.00     0.098 A 
HETATM   16  C13 UNL     1      26.931   0.170  51.920  1.00  0.00     0.046 A 
HETATM   17  C14 UNL     1      26.062   0.875  52.940  1.00  0.00     0.017 A 
HETATM   18  C15 UNL     1      26.563   0.814  54.334  1.00  0.00    -0.015 C 
HETATM   19  C19 UNL     1      24.600   0.662  52.874  1.00  0.00    -0.015 C 
HETATM   20  C16 UNL     1      26.001  -0.018  55.180  1.00  0.00    -0.026 C 
HETATM   21  C17 UNL     1      24.863  -0.907  54.768  1.00  0.00     0.053 C 
HETATM   22  C18 UNL     1      24.082  -0.186  53.755  1.00  0.00    -0.026 C 
ENDBRANCH  13  15
ENDBRANCH  12  13
BRANCH   1  23
HETATM   23  O1  UNL     1      21.681   2.074  49.627  1.00  0.00    -0.357 OA
HETATM   24  C1  UNL     1      20.836   2.415  48.537  1.00  0.00     0.209 C 
ENDBRANCH   1  23
BRANCH   6  25
HETATM   25  O2  UNL     1      21.168   2.746  52.189  1.00  0.00    -0.385 OA
HETATM   26  H8  UNL     1      20.980   1.923  51.677  1.00  0.00     0.210 HD
ENDBRANCH   6  25
TORSDOF 4
ENDMDL
