MODEL 1
REMARK VINA RESULT:      -7.2      0.000      0.000
REMARK  4 active torsions:
REMARK  status: ('A' for Active; 'I' for Inactive)
REMARK    1  A    between atoms: O1_2  and  C2_3 
REMARK    2  A    between atoms: C5_6  and  N1_7 
REMARK    3  A    between atoms: N1_7  and  C6_8 
REMARK    4  A    between atoms: C15_19  and  O3_20 
ROOT
HETATM    1  C2  UNL     1      27.017  -0.773  53.559  1.00  0.00     0.078 C 
HETATM    2  C3  UNL     1      26.166  -0.562  52.538  1.00  0.00     0.047 C 
HETATM    3  C4  UNL     1      25.504   0.741  52.775  1.00  0.00     0.003 C 
HETATM    4  C5  UNL     1      24.371   1.293  52.426  1.00  0.00     0.043 C 
HETATM    5  C12 UNL     1      23.979   2.591  52.882  1.00  0.00     0.054 C 
HETATM    6  C13 UNL     1      24.859   3.194  53.695  1.00  0.00     0.138 C 
HETATM    7  O2  UNL     1      26.069   2.663  54.110  1.00  0.00    -0.350 OA
HETATM    8  C14 UNL     1      26.549   1.486  53.569  1.00  0.00     0.198 C 
HETATM    9  C15 UNL     1      26.944   0.402  54.511  1.00  0.00     0.211 C 
ENDROOT
BRANCH   4  10
HETATM   10  N1  UNL     1      23.514   0.491  51.606  1.00  0.00    -0.356 N 
HETATM   11  H5  UNL     1      23.516   0.100  50.650  1.00  0.00     0.166 HD
BRANCH  10  12
HETATM   12  C6  UNL     1      22.309   0.100  52.250  1.00  0.00     0.033 A 
HETATM   13  C7  UNL     1      22.480  -0.568  53.470  1.00  0.00     0.029 A 
HETATM   14  C8  UNL     1      21.416  -1.010  54.223  1.00  0.00     0.004 A 
HETATM   15  C9  UNL     1      20.122  -0.803  53.788  1.00  0.00     0.019 A 
HETATM   16  C10 UNL     1      19.969  -0.145  52.585  1.00  0.00     0.013 A 
HETATM   17 BR1  UNL     1      18.229   0.205  51.876  1.00  0.00    -0.051 Br
HETATM   18  C11 UNL     1      21.007   0.309  51.810  1.00  0.00     0.048 A 
ENDBRANCH  10  12
ENDBRANCH   4  10
BRANCH   1  19
HETATM   19  O1  UNL     1      27.709  -1.992  53.447  1.00  0.00    -0.357 OA
HETATM   20  C1  UNL     1      29.095  -1.943  53.102  1.00  0.00     0.209 C 
ENDBRANCH   1  19
BRANCH   9  21
HETATM   21  O3  UNL     1      28.197   0.575  55.066  1.00  0.00    -0.381 OA
HETATM   22  C16 UNL     1      29.077   1.332  54.324  1.00  0.00     0.202 C 
ENDBRANCH   9  21
TORSDOF 4
ENDMDL
MODEL 2
REMARK VINA RESULT:      -7.0      2.736      3.520
REMARK  4 active torsions:
REMARK  status: ('A' for Active; 'I' for Inactive)
REMARK    1  A    between atoms: O1_2  and  C2_3 
REMARK    2  A    between atoms: C5_6  and  N1_7 
REMARK    3  A    between atoms: N1_7  and  C6_8 
REMARK    4  A    between atoms: C15_19  and  O3_20 
ROOT
HETATM    1  C2  UNL     1      25.318  -0.420  54.504  1.00  0.00     0.078 C 
HETATM    2  C3  UNL     1      24.389   0.033  53.643  1.00  0.00     0.047 C 
HETATM    3  C4  UNL     1      25.051   1.014  52.752  1.00  0.00     0.003 C 
HETATM    4  C5  UNL     1      24.666   2.041  52.039  1.00  0.00     0.043 C 
HETATM    5  C12 UNL     1      25.587   2.855  51.309  1.00  0.00     0.054 C 
HETATM    6  C13 UNL     1      26.873   2.487  51.415  1.00  0.00     0.138 C 
HETATM    7  O2  UNL     1      27.348   1.419  52.159  1.00  0.00    -0.350 OA
HETATM    8  C14 UNL     1      26.478   0.523  52.747  1.00  0.00     0.198 C 
HETATM    9  C15 UNL     1      26.639   0.256  54.203  1.00  0.00     0.211 C 
ENDROOT
BRANCH   4  10
HETATM   10  N1  UNL     1      23.266   2.339  52.084  1.00  0.00    -0.356 N 
HETATM   11  H5  UNL     1      22.572   2.651  52.782  1.00  0.00     0.166 HD
BRANCH  10  12
HETATM   12  C6  UNL     1      22.607   2.170  50.836  1.00  0.00     0.033 A 
HETATM   13  C7  UNL     1      21.880   0.979  50.707  1.00  0.00     0.029 A 
HETATM   14  C8  UNL     1      21.180   0.663  49.565  1.00  0.00     0.004 A 
HETATM   15  C9  UNL     1      21.175   1.529  48.489  1.00  0.00     0.019 A 
HETATM   16  C10 UNL     1      21.895   2.698  48.630  1.00  0.00     0.013 A 
HETATM   17 BR1  UNL     1      21.964   3.982  47.216  1.00  0.00    -0.051 Br
HETATM   18  C11 UNL     1      22.603   3.045  49.755  1.00  0.00     0.048 A 
ENDBRANCH  10  12
ENDBRANCH   4  10
BRANCH   1  19
HETATM   19  O1  UNL     1      24.805  -1.364  55.411  1.00  0.00    -0.357 OA
HETATM   20  C1  UNL     1      23.385  -1.497  55.503  1.00  0.00     0.209 C 
ENDBRANCH   1  19
BRANCH   9  21
HETATM   21  O3  UNL     1      27.649  -0.641  54.497  1.00  0.00    -0.381 OA
HETATM   22  C16 UNL     1      28.907  -0.098  54.626  1.00  0.00     0.202 C 
ENDBRANCH   9  21
TORSDOF 4
ENDMDL
MODEL 3
REMARK VINA RESULT:      -7.0      3.344      5.029
REMARK  4 active torsions:
REMARK  status: ('A' for Active; 'I' for Inactive)
REMARK    1  A    between atoms: O1_2  and  C2_3 
REMARK    2  A    between atoms: C5_6  and  N1_7 
REMARK    3  A    between atoms: N1_7  and  C6_8 
REMARK    4  A    between atoms: C15_19  and  O3_20 
ROOT
HETATM    1  C2  UNL     1      26.799   0.963  53.690  1.00  0.00     0.078 C 
HETATM    2  C3  UNL     1      25.974   2.017  53.835  1.00  0.00     0.047 C 
HETATM    3  C4  UNL     1      24.644   1.613  53.324  1.00  0.00     0.003 C 
HETATM    4  C5  UNL     1      23.604   2.232  52.828  1.00  0.00     0.043 C 
HETATM    5  C12 UNL     1      22.452   1.531  52.351  1.00  0.00     0.054 C 
HETATM    6  C13 UNL     1      22.523   0.195  52.447  1.00  0.00     0.138 C 
HETATM    7  O2  UNL     1      23.596  -0.522  52.952  1.00  0.00    -0.350 OA
HETATM    8  C14 UNL     1      24.653   0.123  53.562  1.00  0.00     0.198 C 
HETATM    9  C15 UNL     1      26.026  -0.184  53.073  1.00  0.00     0.211 C 
ENDROOT
BRANCH   4  10
HETATM   10  N1  UNL     1      23.713   3.656  52.736  1.00  0.00    -0.356 N 
HETATM   11  H5  UNL     1      23.620   4.473  53.360  1.00  0.00     0.166 HD
BRANCH  10  12
HETATM   12  C6  UNL     1      24.040   4.120  51.432  1.00  0.00     0.033 A 
HETATM   13  C7  UNL     1      22.952   4.568  50.673  1.00  0.00     0.029 A 
HETATM   14  C8  UNL     1      23.096   5.052  49.393  1.00  0.00     0.004 A 
HETATM   15  C9  UNL     1      24.346   5.111  48.807  1.00  0.00     0.019 A 
HETATM   16  C10 UNL     1      25.409   4.666  49.567  1.00  0.00     0.013 A 
HETATM   17 BR1  UNL     1      27.189   4.698  48.872  1.00  0.00    -0.051 Br
HETATM   18  C11 UNL     1      25.300   4.178  50.845  1.00  0.00     0.048 A 
ENDBRANCH  10  12
ENDBRANCH   4  10
BRANCH   1  19
HETATM   19  O1  UNL     1      28.103   1.227  54.141  1.00  0.00    -0.357 OA
HETATM   20  C1  UNL     1      28.732   2.431  53.697  1.00  0.00     0.209 C 
ENDBRANCH   1  19
BRANCH   9  21
HETATM   21  O3  UNL     1      26.547  -1.361  53.574  1.00  0.00    -0.381 OA
HETATM   22  C16 UNL     1      27.134  -2.194  52.648  1.00  0.00     0.202 C 
ENDBRANCH   9  21
TORSDOF 4
ENDMDL
MODEL 4
REMARK VINA RESULT:      -7.0      1.978      2.840
REMARK  4 active torsions:
REMARK  status: ('A' for Active; 'I' for Inactive)
REMARK    1  A    between atoms: O1_2  and  C2_3 
REMARK    2  A    between atoms: C5_6  and  N1_7 
REMARK    3  A    between atoms: N1_7  and  C6_8 
REMARK    4  A    between atoms: C15_19  and  O3_20 
ROOT
HETATM    1  C2  UNL     1      25.406  -0.418  54.424  1.00  0.00     0.078 C 
HETATM    2  C3  UNL     1      24.385   0.142  53.751  1.00  0.00     0.047 C 
HETATM    3  C4  UNL     1      24.966   1.074  52.757  1.00  0.00     0.003 C 
HETATM    4  C5  UNL     1      24.561   2.148  52.131  1.00  0.00     0.043 C 
HETATM    5  C12 UNL     1      25.409   2.884  51.246  1.00  0.00     0.054 C 
HETATM    6  C13 UNL     1      26.650   2.391  51.111  1.00  0.00     0.138 C 
HETATM    7  O2  UNL     1      27.144   1.266  51.750  1.00  0.00    -0.350 OA
HETATM    8  C14 UNL     1      26.311   0.446  52.485  1.00  0.00     0.198 C 
HETATM    9  C15 UNL     1      26.711   0.132  53.886  1.00  0.00     0.211 C 
ENDROOT
BRANCH   4  10
HETATM   10  N1  UNL     1      23.230   2.580  52.435  1.00  0.00    -0.356 N 
HETATM   11  H5  UNL     1      22.768   3.241  53.080  1.00  0.00     0.166 HD
BRANCH  10  12
HETATM   12  C6  UNL     1      22.230   1.942  51.651  1.00  0.00     0.033 A 
HETATM   13  C7  UNL     1      22.469   1.946  50.271  1.00  0.00     0.029 A 
HETATM   14  C8  UNL     1      21.602   1.367  49.371  1.00  0.00     0.004 A 
HETATM   15  C9  UNL     1      20.447   0.754  49.814  1.00  0.00     0.019 A 
HETATM   16  C10 UNL     1      20.224   0.758  51.177  1.00  0.00     0.013 A 
HETATM   17 BR1  UNL     1      18.664  -0.061  51.916  1.00  0.00    -0.051 Br
HETATM   18  C11 UNL     1      21.067   1.325  52.100  1.00  0.00     0.048 A 
ENDBRANCH  10  12
ENDBRANCH   4  10
BRANCH   1  19
HETATM   19  O1  UNL     1      24.977  -1.328  55.406  1.00  0.00    -0.357 OA
HETATM   20  C1  UNL     1      23.570  -1.473  55.611  1.00  0.00     0.209 C 
ENDBRANCH   1  19
BRANCH   9  21
HETATM   21  O3  UNL     1      27.662  -0.864  53.984  1.00  0.00    -0.381 OA
HETATM   22  C16 UNL     1      28.957  -0.434  54.171  1.00  0.00     0.202 C 
ENDBRANCH   9  21
TORSDOF 4
ENDMDL
MODEL 5
REMARK VINA RESULT:      -6.9      2.973      4.658
REMARK  4 active torsions:
REMARK  status: ('A' for Active; 'I' for Inactive)
REMARK    1  A    between atoms: O1_2  and  C2_3 
REMARK    2  A    between atoms: C5_6  and  N1_7 
REMARK    3  A    between atoms: N1_7  and  C6_8 
REMARK    4  A    between atoms: C15_19  and  O3_20 
ROOT
HETATM    1  C2  UNL     1      27.080   0.813  53.599  1.00  0.00     0.078 C 
HETATM    2  C3  UNL     1      26.381   1.945  53.798  1.00  0.00     0.047 C 
HETATM    3  C4  UNL     1      24.985   1.684  53.377  1.00  0.00     0.003 C 
HETATM    4  C5  UNL     1      23.984   2.409  52.951  1.00  0.00     0.043 C 
HETATM    5  C12 UNL     1      22.737   1.834  52.552  1.00  0.00     0.054 C 
HETATM    6  C13 UNL     1      22.676   0.497  52.644  1.00  0.00     0.138 C 
HETATM    7  O2  UNL     1      23.699  -0.329  53.078  1.00  0.00    -0.350 OA
HETATM    8  C14 UNL     1      24.856   0.199  53.616  1.00  0.00     0.198 C 
HETATM    9  C15 UNL     1      26.155  -0.245  53.036  1.00  0.00     0.211 C 
ENDROOT
BRANCH   4  10
HETATM   10  N1  UNL     1      24.234   3.815  52.849  1.00  0.00    -0.356 N 
HETATM   11  H5  UNL     1      24.529   4.587  53.468  1.00  0.00     0.166 HD
BRANCH  10  12
HETATM   12  C6  UNL     1      24.028   4.338  51.544  1.00  0.00     0.033 A 
HETATM   13  C7  UNL     1      24.977   3.945  50.592  1.00  0.00     0.029 A 
HETATM   14  C8  UNL     1      24.922   4.359  49.280  1.00  0.00     0.004 A 
HETATM   15  C9  UNL     1      23.905   5.193  48.856  1.00  0.00     0.019 A 
HETATM   16  C10 UNL     1      22.977   5.573  49.805  1.00  0.00     0.013 A 
HETATM   17 BR1  UNL     1      21.521   6.721  49.344  1.00  0.00    -0.051 Br
HETATM   18  C11 UNL     1      23.003   5.178  51.119  1.00  0.00     0.048 A 
ENDBRANCH  10  12
ENDBRANCH   4  10
BRANCH   1  19
HETATM   19  O1  UNL     1      28.432   0.938  53.962  1.00  0.00    -0.357 OA
HETATM   20  C1  UNL     1      29.011   2.244  53.941  1.00  0.00     0.209 C 
ENDBRANCH   1  19
BRANCH   9  21
HETATM   21  O3  UNL     1      26.582  -1.473  53.503  1.00  0.00    -0.381 OA
HETATM   22  C16 UNL     1      27.210  -2.276  52.577  1.00  0.00     0.202 C 
ENDBRANCH   9  21
TORSDOF 4
ENDMDL
MODEL 6
REMARK VINA RESULT:      -6.7      4.033      6.557
REMARK  4 active torsions:
REMARK  status: ('A' for Active; 'I' for Inactive)
REMARK    1  A    between atoms: O1_2  and  C2_3 
REMARK    2  A    between atoms: C5_6  and  N1_7 
REMARK    3  A    between atoms: N1_7  and  C6_8 
REMARK    4  A    between atoms: C15_19  and  O3_20 
ROOT
HETATM    1  C2  UNL     1      21.967   2.227  51.496  1.00  0.00     0.078 C 
HETATM    2  C3  UNL     1      22.957   2.544  52.351  1.00  0.00     0.047 C 
HETATM    3  C4  UNL     1      24.158   2.856  51.543  1.00  0.00     0.003 C 
HETATM    4  C5  UNL     1      25.451   2.828  51.738  1.00  0.00     0.043 C 
HETATM    5  C12 UNL     1      26.388   3.140  50.703  1.00  0.00     0.054 C 
HETATM    6  C13 UNL     1      25.840   3.458  49.521  1.00  0.00     0.138 C 
HETATM    7  O2  UNL     1      24.483   3.497  49.245  1.00  0.00    -0.350 OA
HETATM    8  C14 UNL     1      23.551   3.356  50.255  1.00  0.00     0.198 C 
HETATM    9  C15 UNL     1      22.492   2.323  50.079  1.00  0.00     0.211 C 
ENDROOT
BRANCH   4  10
HETATM   10  N1  UNL     1      25.875   2.405  53.038  1.00  0.00    -0.356 N 
HETATM   11  H5  UNL     1      25.862   2.770  54.004  1.00  0.00     0.166 HD
BRANCH  10  12
HETATM   12  C6  UNL     1      26.496   1.126  53.048  1.00  0.00     0.033 A 
HETATM   13  C7  UNL     1      25.646   0.054  52.752  1.00  0.00     0.029 A 
HETATM   14  C8  UNL     1      26.088  -1.250  52.716  1.00  0.00     0.004 A 
HETATM   15  C9  UNL     1      27.413  -1.542  52.976  1.00  0.00     0.019 A 
HETATM   16  C10 UNL     1      28.239  -0.475  53.267  1.00  0.00     0.013 A 
HETATM   17 BR1  UNL     1      30.093  -0.747  53.642  1.00  0.00    -0.051 Br
HETATM   18  C11 UNL     1      27.830   0.835  53.311  1.00  0.00     0.048 A 
ENDBRANCH  10  12
ENDBRANCH   4  10
BRANCH   1  19
HETATM   19  O1  UNL     1      20.766   1.905  52.150  1.00  0.00    -0.357 OA
HETATM   20  C1  UNL     1      20.836   1.051  53.293  1.00  0.00     0.209 C 
ENDBRANCH   1  19
BRANCH   9  21
HETATM   21  O3  UNL     1      21.449   2.727  49.269  1.00  0.00    -0.381 OA
HETATM   22  C16 UNL     1      21.083   1.839  48.282  1.00  0.00     0.202 C 
ENDBRANCH   9  21
TORSDOF 4
ENDMDL
MODEL 7
REMARK VINA RESULT:      -6.5      3.876      6.455
REMARK  4 active torsions:
REMARK  status: ('A' for Active; 'I' for Inactive)
REMARK    1  A    between atoms: O1_2  and  C2_3 
REMARK    2  A    between atoms: C5_6  and  N1_7 
REMARK    3  A    between atoms: N1_7  and  C6_8 
REMARK    4  A    between atoms: C15_19  and  O3_20 
ROOT
HETATM    1  C2  UNL     1      20.706   0.366  52.882  1.00  0.00     0.078 C 
HETATM    2  C3  UNL     1      21.299   0.710  51.724  1.00  0.00     0.047 C 
HETATM    3  C4  UNL     1      22.746   0.868  51.997  1.00  0.00     0.003 C 
HETATM    4  C5  UNL     1      23.732   1.538  51.460  1.00  0.00     0.043 C 
HETATM    5  C12 UNL     1      25.052   1.531  52.011  1.00  0.00     0.054 C 
HETATM    6  C13 UNL     1      25.198   0.790  53.120  1.00  0.00     0.138 C 
HETATM    7  O2  UNL     1      24.195   0.065  53.744  1.00  0.00    -0.350 OA
HETATM    8  C14 UNL     1      22.954  -0.076  53.155  1.00  0.00     0.198 C 
HETATM    9  C15 UNL     1      21.758   0.283  53.968  1.00  0.00     0.211 C 
ENDROOT
BRANCH   4  10
HETATM   10  N1  UNL     1      23.396   2.332  50.317  1.00  0.00    -0.356 N 
HETATM   11  H5  UNL     1      22.805   2.248  49.474  1.00  0.00     0.166 HD
BRANCH  10  12
HETATM   12  C6  UNL     1      24.034   3.601  50.295  1.00  0.00     0.033 A 
HETATM   13  C7  UNL     1      23.444   4.574  51.111  1.00  0.00     0.029 A 
HETATM   14  C8  UNL     1      23.941   5.854  51.209  1.00  0.00     0.004 A 
HETATM   15  C9  UNL     1      25.060   6.223  50.488  1.00  0.00     0.019 A 
HETATM   16  C10 UNL     1      25.631   5.254  49.688  1.00  0.00     0.013 A 
HETATM   17 BR1  UNL     1      27.185   5.638  48.643  1.00  0.00    -0.051 Br
HETATM   18  C11 UNL     1      25.162   3.970  49.568  1.00  0.00     0.048 A 
ENDBRANCH  10  12
ENDBRANCH   4  10
BRANCH   1  19
HETATM   19  O1  UNL     1      19.318   0.189  52.751  1.00  0.00    -0.357 OA
HETATM   20  C1  UNL     1      18.787   0.029  51.434  1.00  0.00     0.209 C 
ENDBRANCH   1  19
BRANCH   9  21
HETATM   21  O3  UNL     1      21.372  -0.701  54.857  1.00  0.00    -0.381 OA
HETATM   22  C16 UNL     1      21.471  -1.994  54.392  1.00  0.00     0.202 C 
ENDBRANCH   9  21
TORSDOF 4
ENDMDL
MODEL 8
REMARK VINA RESULT:      -6.5      4.311      6.447
REMARK  4 active torsions:
REMARK  status: ('A' for Active; 'I' for Inactive)
REMARK    1  A    between atoms: O1_2  and  C2_3 
REMARK    2  A    between atoms: C5_6  and  N1_7 
REMARK    3  A    between atoms: N1_7  and  C6_8 
REMARK    4  A    between atoms: C15_19  and  O3_20 
ROOT
HETATM    1  C2  UNL     1      23.489   0.195  53.203  1.00  0.00     0.078 C 
HETATM    2  C3  UNL     1      24.285   1.210  52.821  1.00  0.00     0.047 C 
HETATM    3  C4  UNL     1      23.657   1.847  51.640  1.00  0.00     0.003 C 
HETATM    4  C5  UNL     1      24.077   2.549  50.620  1.00  0.00     0.043 C 
HETATM    5  C12 UNL     1      23.200   2.984  49.577  1.00  0.00     0.054 C 
HETATM    6  C13 UNL     1      21.919   2.612  49.723  1.00  0.00     0.138 C 
HETATM    7  O2  UNL     1      21.411   1.863  50.772  1.00  0.00    -0.350 OA
HETATM    8  C14 UNL     1      22.193   1.561  51.870  1.00  0.00     0.198 C 
HETATM    9  C15 UNL     1      22.293   0.131  52.275  1.00  0.00     0.211 C 
ENDROOT
BRANCH   4  10
HETATM   10  N1  UNL     1      25.485   2.806  50.579  1.00  0.00    -0.356 N 
HETATM   11  H5  UNL     1      26.359   2.315  50.825  1.00  0.00     0.166 HD
BRANCH  10  12
HETATM   12  C6  UNL     1      25.817   4.087  50.062  1.00  0.00     0.033 A 
HETATM   13  C7  UNL     1      26.922   4.110  49.203  1.00  0.00     0.029 A 
HETATM   14  C8  UNL     1      27.373   5.270  48.613  1.00  0.00     0.004 A 
HETATM   15  C9  UNL     1      26.734   6.470  48.859  1.00  0.00     0.019 A 
HETATM   16  C10 UNL     1      25.647   6.432  49.708  1.00  0.00     0.013 A 
HETATM   17 BR1  UNL     1      24.675   8.023  50.124  1.00  0.00    -0.051 Br
HETATM   18  C11 UNL     1      25.171   5.294  50.311  1.00  0.00     0.048 A 
ENDBRANCH  10  12
ENDBRANCH   4  10
BRANCH   1  19
HETATM   19  O1  UNL     1      23.986  -0.495  54.322  1.00  0.00    -0.357 OA
HETATM   20  C1  UNL     1      25.404  -0.576  54.480  1.00  0.00     0.209 C 
ENDBRANCH   1  19
BRANCH   9  21
HETATM   21  O3  UNL     1      21.213  -0.318  53.009  1.00  0.00    -0.381 OA
HETATM   22  C16 UNL     1      20.701   0.577  53.922  1.00  0.00     0.202 C 
ENDBRANCH   9  21
TORSDOF 4
ENDMDL
MODEL 9
REMARK VINA RESULT:      -6.4      5.150      6.812
REMARK  4 active torsions:
REMARK  status: ('A' for Active; 'I' for Inactive)
REMARK    1  A    between atoms: O1_2  and  C2_3 
REMARK    2  A    between atoms: C5_6  and  N1_7 
REMARK    3  A    between atoms: N1_7  and  C6_8 
REMARK    4  A    between atoms: C15_19  and  O3_20 
ROOT
HETATM    1  C2  UNL     1      27.916   6.249  48.459  1.00  0.00     0.078 C 
HETATM    2  C3  UNL     1      27.664   4.930  48.557  1.00  0.00     0.047 C 
HETATM    3  C4  UNL     1      26.360   4.777  49.243  1.00  0.00     0.003 C 
HETATM    4  C5  UNL     1      25.785   3.851  49.964  1.00  0.00     0.043 C 
HETATM    5  C12 UNL     1      24.497   4.033  50.559  1.00  0.00     0.054 C 
HETATM    6  C13 UNL     1      23.930   5.226  50.325  1.00  0.00     0.138 C 
HETATM    7  O2  UNL     1      24.488   6.252  49.579  1.00  0.00    -0.350 OA
HETATM    8  C14 UNL     1      25.653   6.055  48.865  1.00  0.00     0.198 C 
HETATM    9  C15 UNL     1      26.770   7.016  49.084  1.00  0.00     0.211 C 
ENDROOT
BRANCH   4  10
HETATM   10  N1  UNL     1      26.552   2.660  50.174  1.00  0.00    -0.356 N 
HETATM   11  H5  UNL     1      27.232   2.086  49.651  1.00  0.00     0.166 HD
BRANCH  10  12
HETATM   12  C6  UNL     1      26.348   2.068  51.450  1.00  0.00     0.033 A 
HETATM   13  C7  UNL     1      27.322   2.377  52.407  1.00  0.00     0.029 A 
HETATM   14  C8  UNL     1      27.272   1.889  53.694  1.00  0.00     0.004 A 
HETATM   15  C9  UNL     1      26.237   1.062  54.085  1.00  0.00     0.019 A 
HETATM   16  C10 UNL     1      25.285   0.765  53.130  1.00  0.00     0.013 A 
HETATM   17 BR1  UNL     1      23.801  -0.365  53.547  1.00  0.00    -0.051 Br
HETATM   18  C11 UNL     1      25.305   1.235  51.841  1.00  0.00     0.048 A 
ENDBRANCH  10  12
ENDBRANCH   4  10
BRANCH   1  19
HETATM   19  O1  UNL     1      29.139   6.523  47.822  1.00  0.00    -0.357 OA
HETATM   20  C1  UNL     1      30.192   5.568  47.961  1.00  0.00     0.209 C 
ENDBRANCH   1  19
BRANCH   9  21
HETATM   21  O3  UNL     1      26.629   8.203  48.392  1.00  0.00    -0.381 OA
HETATM   22  C16 UNL     1      26.714   9.349  49.151  1.00  0.00     0.202 C 
ENDBRANCH   9  21
TORSDOF 4
ENDMDL
