MODEL 1
REMARK VINA RESULT:      -7.2      0.000      0.000
REMARK  12 active torsions:
REMARK  status: ('A' for Active; 'I' for Inactive)
REMARK    1  A    between atoms: C2_2  and  C3_3 
REMARK    2  A    between atoms: C3_3  and  C4_4 
REMARK    3  A    between atoms: C4_4  and  C5_5 
REMARK    4  A    between atoms: C5_5  and  C6_6 
REMARK    5  A    between atoms: C6_6  and  C7_7 
REMARK    6  A    between atoms: C7_7  and  C8_8 
REMARK    7  A    between atoms: C8_8  and  C9_9 
REMARK    8  A    between atoms: C9_9  and  N1_10 
REMARK       I    between atoms: N1_10  and  C10_11 
REMARK    9  A    between atoms: C10_11  and  C11_13 
REMARK   10  A    between atoms: C11_13  and  O2_14 
REMARK   11  A    between atoms: O2_14  and  C12_15 
REMARK   12  A    between atoms: C14_17  and  O3_18 
ROOT
HETATM    1  C11 UNL     1      22.764  -0.839  54.134  1.00  0.00     0.278 C 
ENDROOT
BRANCH   1   2
HETATM    2  C10 UNL     1      21.500  -0.183  53.726  1.00  0.00     0.241 C 
HETATM    3  N1  UNL     1      21.577   1.069  53.061  1.00  0.00    -0.359 N 
HETATM    4  H20 UNL     1      22.537   1.489  52.880  1.00  0.00     0.162 HD
HETATM    5  O1  UNL     1      20.403  -0.741  53.973  1.00  0.00    -0.271 OA
BRANCH   3   6
HETATM    6  C9  UNL     1      20.418   1.823  52.606  1.00  0.00     0.122 C 
BRANCH   6   7
HETATM    7  C8  UNL     1      20.840   3.266  52.471  1.00  0.00     0.020 C 
BRANCH   7   8
HETATM    8  C7  UNL     1      22.222   3.331  51.888  1.00  0.00     0.002 C 
BRANCH   8   9
HETATM    9  C6  UNL     1      22.969   4.502  52.474  1.00  0.00     0.000 C 
BRANCH   9  10
HETATM   10  C5  UNL     1      23.826   5.191  51.426  1.00  0.00     0.000 C 
BRANCH  10  11
HETATM   11  C4  UNL     1      24.452   4.214  50.468  1.00  0.00     0.000 C 
BRANCH  11  12
HETATM   12  C3  UNL     1      25.433   4.890  49.530  1.00  0.00    -0.000 C 
BRANCH  12  13
HETATM   13  C2  UNL     1      26.627   3.955  49.379  1.00  0.00    -0.005 C 
HETATM   14  C1  UNL     1      26.461   2.811  50.378  1.00  0.00     0.005 C 
ENDBRANCH  12  13
ENDBRANCH  11  12
ENDBRANCH  10  11
ENDBRANCH   9  10
ENDBRANCH   8   9
ENDBRANCH   7   8
ENDBRANCH   6   7
ENDBRANCH   3   6
ENDBRANCH   1   2
BRANCH   1  15
HETATM   15  O2  UNL     1      23.694  -0.698  53.098  1.00  0.00    -0.342 OA
BRANCH  15  16
HETATM   16  C12 UNL     1      24.999  -0.256  53.298  1.00  0.00     0.074 A 
HETATM   17  C13 UNL     1      25.187   1.080  53.585  1.00  0.00     0.074 A 
HETATM   18  C14 UNL     1      26.464   1.564  53.791  1.00  0.00     0.085 A 
HETATM   19  C15 UNL     1      27.523   0.688  53.703  1.00  0.00     0.081 A 
HETATM   20  C16 UNL     1      28.760   1.230  53.918  1.00  0.00     0.189 A 
HETATM   21  C19 UNL     1      27.289  -0.643  53.413  1.00  0.00     0.094 A 
HETATM   22  O4  UNL     1      28.949   2.432  54.177  1.00  0.00    -0.287 OA
HETATM   23  C17 UNL     1      29.855   0.379  53.836  1.00  0.00     0.080 A 
HETATM   24  C18 UNL     1      29.543  -0.934  53.544  1.00  0.00     0.146 A 
HETATM   25  O5  UNL     1      28.347  -1.441  53.339  1.00  0.00    -0.322 OA
HETATM   26  C20 UNL     1      26.026  -1.172  53.199  1.00  0.00     0.075 A 
BRANCH  18  27
HETATM   27  O3  UNL     1      26.597   2.913  54.077  1.00  0.00    -0.360 OA
HETATM   28  H24 UNL     1      27.527   3.324  53.975  1.00  0.00     0.217 HD
ENDBRANCH  18  27
ENDBRANCH  15  16
ENDBRANCH   1  15
TORSDOF 12
ENDMDL
MODEL 2
REMARK VINA RESULT:      -7.0      1.529      2.464
REMARK  12 active torsions:
REMARK  status: ('A' for Active; 'I' for Inactive)
REMARK    1  A    between atoms: C2_2  and  C3_3 
REMARK    2  A    between atoms: C3_3  and  C4_4 
REMARK    3  A    between atoms: C4_4  and  C5_5 
REMARK    4  A    between atoms: C5_5  and  C6_6 
REMARK    5  A    between atoms: C6_6  and  C7_7 
REMARK    6  A    between atoms: C7_7  and  C8_8 
REMARK    7  A    between atoms: C8_8  and  C9_9 
REMARK    8  A    between atoms: C9_9  and  N1_10 
REMARK       I    between atoms: N1_10  and  C10_11 
REMARK    9  A    between atoms: C10_11  and  C11_13 
REMARK   10  A    between atoms: C11_13  and  O2_14 
REMARK   11  A    between atoms: O2_14  and  C12_15 
REMARK   12  A    between atoms: C14_17  and  O3_18 
ROOT
HETATM    1  C11 UNL     1      22.638   0.581  53.045  1.00  0.00     0.278 C 
ENDROOT
BRANCH   1   2
HETATM    2  C10 UNL     1      22.330   0.881  51.628  1.00  0.00     0.241 C 
HETATM    3  N1  UNL     1      23.000   1.972  51.012  1.00  0.00    -0.359 N 
HETATM    4  H20 UNL     1      23.695   2.532  51.589  1.00  0.00     0.162 HD
HETATM    5  O1  UNL     1      21.497   0.175  51.009  1.00  0.00    -0.271 OA
BRANCH   3   6
HETATM    6  C9  UNL     1      22.794   2.380  49.630  1.00  0.00     0.122 C 
BRANCH   6   7
HETATM    7  C8  UNL     1      23.958   3.257  49.237  1.00  0.00     0.020 C 
BRANCH   7   8
HETATM    8  C7  UNL     1      24.836   3.489  50.432  1.00  0.00     0.002 C 
BRANCH   8   9
HETATM    9  C6  UNL     1      26.269   3.641  49.990  1.00  0.00     0.000 C 
BRANCH   9  10
HETATM   10  C5  UNL     1      26.426   4.792  49.011  1.00  0.00     0.000 C 
BRANCH  10  11
HETATM   11  C4  UNL     1      26.072   6.119  49.629  1.00  0.00     0.000 C 
BRANCH  11  12
HETATM   12  C3  UNL     1      25.303   7.003  48.668  1.00  0.00    -0.000 C 
BRANCH  12  13
HETATM   13  C2  UNL     1      24.055   7.482  49.400  1.00  0.00    -0.005 C 
HETATM   14  C1  UNL     1      24.213   7.136  50.880  1.00  0.00     0.005 C 
ENDBRANCH  12  13
ENDBRANCH  11  12
ENDBRANCH  10  11
ENDBRANCH   9  10
ENDBRANCH   8   9
ENDBRANCH   7   8
ENDBRANCH   6   7
ENDBRANCH   3   6
ENDBRANCH   1   2
BRANCH   1  15
HETATM   15  O2  UNL     1      23.645  -0.389  53.087  1.00  0.00    -0.342 OA
BRANCH  15  16
HETATM   16  C12 UNL     1      24.990  -0.086  53.281  1.00  0.00     0.074 A 
HETATM   17  C13 UNL     1      25.315   1.218  53.590  1.00  0.00     0.074 A 
HETATM   18  C14 UNL     1      26.636   1.565  53.792  1.00  0.00     0.085 A 
HETATM   19  C15 UNL     1      27.600   0.588  53.678  1.00  0.00     0.081 A 
HETATM   20  C16 UNL     1      28.888   0.998  53.890  1.00  0.00     0.189 A 
HETATM   21  C19 UNL     1      27.229  -0.707  53.368  1.00  0.00     0.094 A 
HETATM   22  O4  UNL     1      29.200   2.168  54.168  1.00  0.00    -0.287 OA
HETATM   23  C17 UNL     1      29.889   0.041  53.783  1.00  0.00     0.080 A 
HETATM   24  C18 UNL     1      29.442  -1.228  53.471  1.00  0.00     0.146 A 
HETATM   25  O5  UNL     1      28.199  -1.607  53.270  1.00  0.00    -0.322 OA
HETATM   26  C20 UNL     1      25.918  -1.100  53.156  1.00  0.00     0.075 A 
BRANCH  18  27
HETATM   27  O3  UNL     1      26.909   2.888  54.099  1.00  0.00    -0.360 OA
HETATM   28  H24 UNL     1      26.200   3.403  54.626  1.00  0.00     0.217 HD
ENDBRANCH  18  27
ENDBRANCH  15  16
ENDBRANCH   1  15
TORSDOF 12
ENDMDL
MODEL 3
REMARK VINA RESULT:      -7.0      1.850      3.147
REMARK  12 active torsions:
REMARK  status: ('A' for Active; 'I' for Inactive)
REMARK    1  A    between atoms: C2_2  and  C3_3 
REMARK    2  A    between atoms: C3_3  and  C4_4 
REMARK    3  A    between atoms: C4_4  and  C5_5 
REMARK    4  A    between atoms: C5_5  and  C6_6 
REMARK    5  A    between atoms: C6_6  and  C7_7 
REMARK    6  A    between atoms: C7_7  and  C8_8 
REMARK    7  A    between atoms: C8_8  and  C9_9 
REMARK    8  A    between atoms: C9_9  and  N1_10 
REMARK       I    between atoms: N1_10  and  C10_11 
REMARK    9  A    between atoms: C10_11  and  C11_13 
REMARK   10  A    between atoms: C11_13  and  O2_14 
REMARK   11  A    between atoms: O2_14  and  C12_15 
REMARK   12  A    between atoms: C14_17  and  O3_18 
ROOT
HETATM    1  C11 UNL     1      22.319   0.715  52.610  1.00  0.00     0.278 C 
ENDROOT
BRANCH   1   2
HETATM    2  C10 UNL     1      21.975   1.173  51.244  1.00  0.00     0.241 C 
HETATM    3  N1  UNL     1      22.293   2.509  50.884  1.00  0.00    -0.359 N 
HETATM    4  H20 UNL     1      22.765   3.131  51.606  1.00  0.00     0.162 HD
HETATM    5  O1  UNL     1      21.419   0.381  50.444  1.00  0.00    -0.271 OA
BRANCH   3   6
HETATM    6  C9  UNL     1      22.011   3.091  49.580  1.00  0.00     0.122 C 
BRANCH   6   7
HETATM    7  C8  UNL     1      23.331   3.283  48.873  1.00  0.00     0.020 C 
BRANCH   7   8
HETATM    8  C7  UNL     1      24.361   3.758  49.857  1.00  0.00     0.002 C 
BRANCH   8   9
HETATM    9  C6  UNL     1      25.654   3.013  49.642  1.00  0.00     0.000 C 
BRANCH   9  10
HETATM   10  C5  UNL     1      26.810   3.970  49.406  1.00  0.00     0.000 C 
BRANCH  10  11
HETATM   11  C4  UNL     1      26.355   5.402  49.307  1.00  0.00     0.000 C 
BRANCH  11  12
HETATM   12  C3  UNL     1      27.210   6.202  48.344  1.00  0.00    -0.000 C 
BRANCH  12  13
HETATM   13  C2  UNL     1      28.584   5.544  48.310  1.00  0.00    -0.005 C 
HETATM   14  C1  UNL     1      29.608   6.607  47.916  1.00  0.00     0.005 C 
ENDBRANCH  12  13
ENDBRANCH  11  12
ENDBRANCH  10  11
ENDBRANCH   9  10
ENDBRANCH   8   9
ENDBRANCH   7   8
ENDBRANCH   6   7
ENDBRANCH   3   6
ENDBRANCH   1   2
BRANCH   1  15
HETATM   15  O2  UNL     1      23.308   1.557  53.127  1.00  0.00    -0.342 OA
BRANCH  15  16
HETATM   16  C12 UNL     1      24.636   1.168  53.287  1.00  0.00     0.074 A 
HETATM   17  C13 UNL     1      24.920  -0.180  53.226  1.00  0.00     0.074 A 
HETATM   18  C14 UNL     1      26.222  -0.613  53.380  1.00  0.00     0.085 A 
HETATM   19  C15 UNL     1      27.209   0.325  53.591  1.00  0.00     0.081 A 
HETATM   20  C16 UNL     1      28.476  -0.169  53.734  1.00  0.00     0.189 A 
HETATM   21  C19 UNL     1      26.878   1.666  53.644  1.00  0.00     0.094 A 
HETATM   22  O4  UNL     1      28.752  -1.381  53.683  1.00  0.00    -0.287 OA
HETATM   23  C17 UNL     1      29.499   0.745  53.950  1.00  0.00     0.080 A 
HETATM   24  C18 UNL     1      29.093   2.064  53.990  1.00  0.00     0.146 A 
HETATM   25  O5  UNL     1      27.869   2.525  53.850  1.00  0.00    -0.322 OA
HETATM   26  C20 UNL     1      25.587   2.145  53.496  1.00  0.00     0.075 A 
BRANCH  18  27
HETATM   27  O3  UNL     1      26.455  -1.977  53.310  1.00  0.00    -0.360 OA
HETATM   28  H24 UNL     1      26.007  -2.565  54.016  1.00  0.00     0.217 HD
ENDBRANCH  18  27
ENDBRANCH  15  16
ENDBRANCH   1  15
TORSDOF 12
ENDMDL
MODEL 4
REMARK VINA RESULT:      -6.9      2.291      3.323
REMARK  12 active torsions:
REMARK  status: ('A' for Active; 'I' for Inactive)
REMARK    1  A    between atoms: C2_2  and  C3_3 
REMARK    2  A    between atoms: C3_3  and  C4_4 
REMARK    3  A    between atoms: C4_4  and  C5_5 
REMARK    4  A    between atoms: C5_5  and  C6_6 
REMARK    5  A    between atoms: C6_6  and  C7_7 
REMARK    6  A    between atoms: C7_7  and  C8_8 
REMARK    7  A    between atoms: C8_8  and  C9_9 
REMARK    8  A    between atoms: C9_9  and  N1_10 
REMARK       I    between atoms: N1_10  and  C10_11 
REMARK    9  A    between atoms: C10_11  and  C11_13 
REMARK   10  A    between atoms: C11_13  and  O2_14 
REMARK   11  A    between atoms: O2_14  and  C12_15 
REMARK   12  A    between atoms: C14_17  and  O3_18 
ROOT
HETATM    1  C11 UNL     1      23.010   1.664  52.830  1.00  0.00     0.278 C 
ENDROOT
BRANCH   1   2
HETATM    2  C10 UNL     1      22.683   2.293  51.529  1.00  0.00     0.241 C 
HETATM    3  N1  UNL     1      23.738   2.504  50.603  1.00  0.00    -0.359 N 
HETATM    4  H20 UNL     1      24.721   2.204  50.875  1.00  0.00     0.162 HD
HETATM    5  O1  UNL     1      21.498   2.620  51.277  1.00  0.00    -0.271 OA
BRANCH   3   6
HETATM    6  C9  UNL     1      23.562   3.111  49.291  1.00  0.00     0.122 C 
BRANCH   6   7
HETATM    7  C8  UNL     1      24.611   4.186  49.144  1.00  0.00     0.020 C 
BRANCH   7   8
HETATM    8  C7  UNL     1      25.930   3.670  49.641  1.00  0.00     0.002 C 
BRANCH   8   9
HETATM    9  C6  UNL     1      27.050   4.507  49.077  1.00  0.00     0.000 C 
BRANCH   9  10
HETATM   10  C5  UNL     1      26.661   5.974  49.003  1.00  0.00     0.000 C 
BRANCH  10  11
HETATM   11  C4  UNL     1      27.580   6.765  48.112  1.00  0.00     0.000 C 
BRANCH  11  12
HETATM   12  C3  UNL     1      28.967   6.156  48.047  1.00  0.00    -0.000 C 
BRANCH  12  13
HETATM   13  C2  UNL     1      29.957   7.308  47.919  1.00  0.00    -0.005 C 
HETATM   14  C1  UNL     1      30.449   7.350  46.473  1.00  0.00     0.005 C 
ENDBRANCH  12  13
ENDBRANCH  11  12
ENDBRANCH  10  11
ENDBRANCH   9  10
ENDBRANCH   8   9
ENDBRANCH   7   8
ENDBRANCH   6   7
ENDBRANCH   3   6
ENDBRANCH   1   2
BRANCH   1  15
HETATM   15  O2  UNL     1      23.815   0.545  52.596  1.00  0.00    -0.342 OA
BRANCH  15  16
HETATM   16  C12 UNL     1      25.168   0.496  52.921  1.00  0.00     0.074 A 
HETATM   17  C13 UNL     1      25.757   1.652  53.389  1.00  0.00     0.074 A 
HETATM   18  C14 UNL     1      27.097   1.651  53.724  1.00  0.00     0.085 A 
HETATM   19  C15 UNL     1      27.812   0.483  53.579  1.00  0.00     0.081 A 
HETATM   20  C16 UNL     1      29.133   0.549  53.928  1.00  0.00     0.189 A 
HETATM   21  C19 UNL     1      27.181  -0.653  53.106  1.00  0.00     0.094 A 
HETATM   22  O4  UNL     1      29.681   1.581  54.351  1.00  0.00    -0.287 OA
HETATM   23  C17 UNL     1      29.889  -0.609  53.795  1.00  0.00     0.080 A 
HETATM   24  C18 UNL     1      29.191  -1.700  53.318  1.00  0.00     0.146 A 
HETATM   25  O5  UNL     1      27.919  -1.749  52.986  1.00  0.00    -0.322 OA
HETATM   26  C20 UNL     1      25.841  -0.698  52.758  1.00  0.00     0.075 A 
BRANCH  18  27
HETATM   27  O3  UNL     1      27.640   2.837  54.189  1.00  0.00    -0.360 OA
HETATM   28  H24 UNL     1      28.038   3.475  53.496  1.00  0.00     0.217 HD
ENDBRANCH  18  27
ENDBRANCH  15  16
ENDBRANCH   1  15
TORSDOF 12
ENDMDL
MODEL 5
REMARK VINA RESULT:      -6.8      2.082      4.112
REMARK  12 active torsions:
REMARK  status: ('A' for Active; 'I' for Inactive)
REMARK    1  A    between atoms: C2_2  and  C3_3 
REMARK    2  A    between atoms: C3_3  and  C4_4 
REMARK    3  A    between atoms: C4_4  and  C5_5 
REMARK    4  A    between atoms: C5_5  and  C6_6 
REMARK    5  A    between atoms: C6_6  and  C7_7 
REMARK    6  A    between atoms: C7_7  and  C8_8 
REMARK    7  A    between atoms: C8_8  and  C9_9 
REMARK    8  A    between atoms: C9_9  and  N1_10 
REMARK       I    between atoms: N1_10  and  C10_11 
REMARK    9  A    between atoms: C10_11  and  C11_13 
REMARK   10  A    between atoms: C11_13  and  O2_14 
REMARK   11  A    between atoms: O2_14  and  C12_15 
REMARK   12  A    between atoms: C14_17  and  O3_18 
ROOT
HETATM    1  C11 UNL     1      23.423   2.626  52.977  1.00  0.00     0.278 C 
ENDROOT
BRANCH   1   2
HETATM    2  C10 UNL     1      22.521   2.981  51.857  1.00  0.00     0.241 C 
HETATM    3  N1  UNL     1      22.753   2.379  50.592  1.00  0.00    -0.359 N 
HETATM    4  H20 UNL     1      23.563   1.697  50.495  1.00  0.00     0.162 HD
HETATM    5  O1  UNL     1      21.584   3.794  52.047  1.00  0.00    -0.271 OA
BRANCH   3   6
HETATM    6  C9  UNL     1      21.948   2.636  49.407  1.00  0.00     0.122 C 
BRANCH   6   7
HETATM    7  C8  UNL     1      21.472   1.303  48.882  1.00  0.00     0.020 C 
BRANCH   7   8
HETATM    8  C7  UNL     1      20.916   0.489  50.014  1.00  0.00     0.002 C 
BRANCH   8   9
HETATM    9  C6  UNL     1      19.523   0.961  50.345  1.00  0.00     0.000 C 
BRANCH   9  10
HETATM   10  C5  UNL     1      19.317   1.066  51.847  1.00  0.00     0.000 C 
BRANCH  10  11
HETATM   11  C4  UNL     1      19.719  -0.192  52.568  1.00  0.00     0.000 C 
BRANCH  11  12
HETATM   12  C3  UNL     1      20.643   0.095  53.735  1.00  0.00    -0.000 C 
BRANCH  12  13
HETATM   13  C2  UNL     1      21.112  -1.250  54.276  1.00  0.00    -0.005 C 
HETATM   14  C1  UNL     1      22.436  -1.030  55.008  1.00  0.00     0.005 C 
ENDBRANCH  12  13
ENDBRANCH  11  12
ENDBRANCH  10  11
ENDBRANCH   9  10
ENDBRANCH   8   9
ENDBRANCH   7   8
ENDBRANCH   6   7
ENDBRANCH   3   6
ENDBRANCH   1   2
BRANCH   1  15
HETATM   15  O2  UNL     1      23.946   1.350  52.742  1.00  0.00    -0.342 OA
BRANCH  15  16
HETATM   16  C12 UNL     1      25.273   1.010  52.991  1.00  0.00     0.074 A 
HETATM   17  C13 UNL     1      26.129   2.017  53.387  1.00  0.00     0.074 A 
HETATM   18  C14 UNL     1      27.454   1.726  53.646  1.00  0.00     0.085 A 
HETATM   19  C15 UNL     1      27.886   0.427  53.499  1.00  0.00     0.081 A 
HETATM   20  C16 UNL     1      29.208   0.207  53.771  1.00  0.00     0.189 A 
HETATM   21  C19 UNL     1      26.993  -0.551  53.100  1.00  0.00     0.094 A 
HETATM   22  O4  UNL     1      29.995   1.101  54.128  1.00  0.00    -0.287 OA
HETATM   23  C17 UNL     1      29.682  -1.091  53.633  1.00  0.00     0.080 A 
HETATM   24  C18 UNL     1      28.734  -2.011  53.232  1.00  0.00     0.146 A 
HETATM   25  O5  UNL     1      27.464  -1.785  52.974  1.00  0.00    -0.322 OA
HETATM   26  C20 UNL     1      25.657  -0.306  52.830  1.00  0.00     0.075 A 
BRANCH  18  27
HETATM   27  O3  UNL     1      28.272   2.773  54.041  1.00  0.00    -0.360 OA
HETATM   28  H24 UNL     1      28.272   3.019  55.033  1.00  0.00     0.217 HD
ENDBRANCH  18  27
ENDBRANCH  15  16
ENDBRANCH   1  15
TORSDOF 12
ENDMDL
MODEL 6
REMARK VINA RESULT:      -6.7      1.691      2.015
REMARK  12 active torsions:
REMARK  status: ('A' for Active; 'I' for Inactive)
REMARK    1  A    between atoms: C2_2  and  C3_3 
REMARK    2  A    between atoms: C3_3  and  C4_4 
REMARK    3  A    between atoms: C4_4  and  C5_5 
REMARK    4  A    between atoms: C5_5  and  C6_6 
REMARK    5  A    between atoms: C6_6  and  C7_7 
REMARK    6  A    between atoms: C7_7  and  C8_8 
REMARK    7  A    between atoms: C8_8  and  C9_9 
REMARK    8  A    between atoms: C9_9  and  N1_10 
REMARK       I    between atoms: N1_10  and  C10_11 
REMARK    9  A    between atoms: C10_11  and  C11_13 
REMARK   10  A    between atoms: C11_13  and  O2_14 
REMARK   11  A    between atoms: O2_14  and  C12_15 
REMARK   12  A    between atoms: C14_17  and  O3_18 
ROOT
HETATM    1  C11 UNL     1      22.010   0.456  53.459  1.00  0.00     0.278 C 
ENDROOT
BRANCH   1   2
HETATM    2  C10 UNL     1      21.240   1.226  52.455  1.00  0.00     0.241 C 
HETATM    3  N1  UNL     1      20.832   2.544  52.789  1.00  0.00    -0.359 N 
HETATM    4  H20 UNL     1      21.094   2.930  53.744  1.00  0.00     0.162 HD
HETATM    5  O1  UNL     1      20.968   0.704  51.346  1.00  0.00    -0.271 OA
BRANCH   3   6
HETATM    6  C9  UNL     1      20.070   3.412  51.902  1.00  0.00     0.122 C 
BRANCH   6   7
HETATM    7  C8  UNL     1      21.025   4.435  51.336  1.00  0.00     0.020 C 
BRANCH   7   8
HETATM    8  C7  UNL     1      22.064   4.773  52.367  1.00  0.00     0.002 C 
BRANCH   8   9
HETATM    9  C6  UNL     1      23.420   4.858  51.714  1.00  0.00     0.000 C 
BRANCH   9  10
HETATM   10  C5  UNL     1      23.304   5.220  50.243  1.00  0.00     0.000 C 
BRANCH  10  11
HETATM   11  C4  UNL     1      24.352   4.540  49.404  1.00  0.00     0.000 C 
BRANCH  11  12
HETATM   12  C3  UNL     1      23.965   3.115  49.061  1.00  0.00    -0.000 C 
BRANCH  12  13
HETATM   13  C2  UNL     1      22.607   3.172  48.371  1.00  0.00    -0.005 C 
HETATM   14  C1  UNL     1      22.136   1.738  48.132  1.00  0.00     0.005 C 
ENDBRANCH  12  13
ENDBRANCH  11  12
ENDBRANCH  10  11
ENDBRANCH   9  10
ENDBRANCH   8   9
ENDBRANCH   7   8
ENDBRANCH   6   7
ENDBRANCH   3   6
ENDBRANCH   1   2
BRANCH   1  15
HETATM   15  O2  UNL     1      23.102  -0.141  52.820  1.00  0.00    -0.342 OA
BRANCH  15  16
HETATM   16  C12 UNL     1      24.415   0.290  52.989  1.00  0.00     0.074 A 
HETATM   17  C13 UNL     1      24.825   1.393  52.270  1.00  0.00     0.074 A 
HETATM   18  C14 UNL     1      26.119   1.857  52.405  1.00  0.00     0.085 A 
HETATM   19  C15 UNL     1      26.970   1.197  53.264  1.00  0.00     0.081 A 
HETATM   20  C16 UNL     1      28.236   1.707  53.352  1.00  0.00     0.189 A 
HETATM   21  C19 UNL     1      26.516   0.096  53.966  1.00  0.00     0.094 A 
HETATM   22  O4  UNL     1      28.624   2.700  52.712  1.00  0.00    -0.287 OA
HETATM   23  C17 UNL     1      29.125   1.068  54.207  1.00  0.00     0.080 A 
HETATM   24  C18 UNL     1      28.601  -0.022  54.873  1.00  0.00     0.146 A 
HETATM   25  O5  UNL     1      27.380  -0.502  54.778  1.00  0.00    -0.322 OA
HETATM   26  C20 UNL     1      25.229  -0.405  53.861  1.00  0.00     0.075 A 
BRANCH  18  27
HETATM   27  O3  UNL     1      26.480   2.968  51.661  1.00  0.00    -0.360 OA
HETATM   28  H24 UNL     1      26.611   3.848  52.165  1.00  0.00     0.217 HD
ENDBRANCH  18  27
ENDBRANCH  15  16
ENDBRANCH   1  15
TORSDOF 12
ENDMDL
MODEL 7
REMARK VINA RESULT:      -6.6      3.215      5.215
REMARK  12 active torsions:
REMARK  status: ('A' for Active; 'I' for Inactive)
REMARK    1  A    between atoms: C2_2  and  C3_3 
REMARK    2  A    between atoms: C3_3  and  C4_4 
REMARK    3  A    between atoms: C4_4  and  C5_5 
REMARK    4  A    between atoms: C5_5  and  C6_6 
REMARK    5  A    between atoms: C6_6  and  C7_7 
REMARK    6  A    between atoms: C7_7  and  C8_8 
REMARK    7  A    between atoms: C8_8  and  C9_9 
REMARK    8  A    between atoms: C9_9  and  N1_10 
REMARK       I    between atoms: N1_10  and  C10_11 
REMARK    9  A    between atoms: C10_11  and  C11_13 
REMARK   10  A    between atoms: C11_13  and  O2_14 
REMARK   11  A    between atoms: O2_14  and  C12_15 
REMARK   12  A    between atoms: C14_17  and  O3_18 
ROOT
HETATM    1  C11 UNL     1      23.451   3.655  50.770  1.00  0.00     0.278 C 
ENDROOT
BRANCH   1   2
HETATM    2  C10 UNL     1      24.028   5.016  50.855  1.00  0.00     0.241 C 
HETATM    3  N1  UNL     1      25.039   5.376  49.925  1.00  0.00    -0.359 N 
HETATM    4  H20 UNL     1      25.343   4.658  49.202  1.00  0.00     0.162 HD
HETATM    5  O1  UNL     1      23.618   5.812  51.735  1.00  0.00    -0.271 OA
BRANCH   3   6
HETATM    6  C9  UNL     1      25.694   6.676  49.894  1.00  0.00     0.122 C 
BRANCH   6   7
HETATM    7  C8  UNL     1      26.792   6.607  48.861  1.00  0.00     0.020 C 
BRANCH   7   8
HETATM    8  C7  UNL     1      27.240   5.183  48.701  1.00  0.00     0.002 C 
BRANCH   8   9
HETATM    9  C6  UNL     1      28.710   5.145  48.366  1.00  0.00     0.000 C 
BRANCH   9  10
HETATM   10  C5  UNL     1      29.265   6.544  48.157  1.00  0.00     0.000 C 
BRANCH  10  11
HETATM   11  C4  UNL     1      30.543   6.538  47.362  1.00  0.00     0.000 C 
BRANCH  11  12
HETATM   12  C3  UNL     1      31.595   5.645  47.990  1.00  0.00    -0.000 C 
BRANCH  12  13
HETATM   13  C2  UNL     1      32.035   4.651  46.923  1.00  0.00    -0.005 C 
HETATM   14  C1  UNL     1      32.625   3.430  47.627  1.00  0.00     0.005 C 
ENDBRANCH  12  13
ENDBRANCH  11  12
ENDBRANCH  10  11
ENDBRANCH   9  10
ENDBRANCH   8   9
ENDBRANCH   7   8
ENDBRANCH   6   7
ENDBRANCH   3   6
ENDBRANCH   1   2
BRANCH   1  15
HETATM   15  O2  UNL     1      24.482   2.748  50.504  1.00  0.00    -0.342 OA
BRANCH  15  16
HETATM   16  C12 UNL     1      25.232   2.131  51.501  1.00  0.00     0.074 A 
HETATM   17  C13 UNL     1      24.595   1.208  52.304  1.00  0.00     0.074 A 
HETATM   18  C14 UNL     1      25.300   0.570  53.306  1.00  0.00     0.085 A 
HETATM   19  C15 UNL     1      26.631   0.879  53.476  1.00  0.00     0.081 A 
HETATM   20  C16 UNL     1      27.270   0.213  54.485  1.00  0.00     0.189 A 
HETATM   21  C19 UNL     1      27.229   1.810  52.647  1.00  0.00     0.094 A 
HETATM   22  O4  UNL     1      26.713  -0.622  55.219  1.00  0.00    -0.287 OA
HETATM   23  C17 UNL     1      28.614   0.497  54.688  1.00  0.00     0.080 A 
HETATM   24  C18 UNL     1      29.142   1.436  53.824  1.00  0.00     0.146 A 
HETATM   25  O5  UNL     1      28.514   2.069  52.857  1.00  0.00    -0.322 OA
HETATM   26  C20 UNL     1      26.563   2.474  51.631  1.00  0.00     0.075 A 
BRANCH  18  27
HETATM   27  O3  UNL     1      24.614  -0.348  54.084  1.00  0.00    -0.360 OA
HETATM   28  H24 UNL     1      23.842   0.004  54.654  1.00  0.00     0.217 HD
ENDBRANCH  18  27
ENDBRANCH  15  16
ENDBRANCH   1  15
TORSDOF 12
ENDMDL
MODEL 8
REMARK VINA RESULT:      -6.5      2.425      4.872
REMARK  12 active torsions:
REMARK  status: ('A' for Active; 'I' for Inactive)
REMARK    1  A    between atoms: C2_2  and  C3_3 
REMARK    2  A    between atoms: C3_3  and  C4_4 
REMARK    3  A    between atoms: C4_4  and  C5_5 
REMARK    4  A    between atoms: C5_5  and  C6_6 
REMARK    5  A    between atoms: C6_6  and  C7_7 
REMARK    6  A    between atoms: C7_7  and  C8_8 
REMARK    7  A    between atoms: C8_8  and  C9_9 
REMARK    8  A    between atoms: C9_9  and  N1_10 
REMARK       I    between atoms: N1_10  and  C10_11 
REMARK    9  A    between atoms: C10_11  and  C11_13 
REMARK   10  A    between atoms: C11_13  and  O2_14 
REMARK   11  A    between atoms: O2_14  and  C12_15 
REMARK   12  A    between atoms: C14_17  and  O3_18 
ROOT
HETATM    1  C11 UNL     1      26.032  -0.502  53.843  1.00  0.00     0.278 C 
ENDROOT
BRANCH   1   2
HETATM    2  C10 UNL     1      24.941  -0.853  54.780  1.00  0.00     0.241 C 
HETATM    3  N1  UNL     1      23.607  -0.835  54.294  1.00  0.00    -0.359 N 
HETATM    4  H20 UNL     1      23.440  -0.572  53.277  1.00  0.00     0.162 HD
HETATM    5  O1  UNL     1      25.214  -1.155  55.967  1.00  0.00    -0.271 OA
BRANCH   3   6
HETATM    6  C9  UNL     1      22.440  -1.156  55.102  1.00  0.00     0.122 C 
BRANCH   6   7
HETATM    7  C8  UNL     1      21.268  -1.320  54.165  1.00  0.00     0.020 C 
BRANCH   7   8
HETATM    8  C7  UNL     1      21.512  -0.523  52.916  1.00  0.00     0.002 C 
BRANCH   8   9
HETATM    9  C6  UNL     1      20.639   0.706  52.917  1.00  0.00     0.000 C 
BRANCH   9  10
HETATM   10  C5  UNL     1      20.680   1.414  51.573  1.00  0.00     0.000 C 
BRANCH  10  11
HETATM   11  C4  UNL     1      21.532   0.685  50.569  1.00  0.00     0.000 C 
BRANCH  11  12
HETATM   12  C3  UNL     1      22.251   1.640  49.637  1.00  0.00    -0.000 C 
BRANCH  12  13
HETATM   13  C2  UNL     1      21.419   1.736  48.364  1.00  0.00    -0.005 C 
HETATM   14  C1  UNL     1      21.034   3.200  48.159  1.00  0.00     0.005 C 
ENDBRANCH  12  13
ENDBRANCH  11  12
ENDBRANCH  10  11
ENDBRANCH   9  10
ENDBRANCH   8   9
ENDBRANCH   7   8
ENDBRANCH   6   7
ENDBRANCH   3   6
ENDBRANCH   1   2
BRANCH   1  15
HETATM   15  O2  UNL     1      26.293   0.868  53.955  1.00  0.00    -0.342 OA
BRANCH  15  16
HETATM   16  C12 UNL     1      25.910   1.799  52.993  1.00  0.00     0.074 A 
HETATM   17  C13 UNL     1      24.663   2.376  53.119  1.00  0.00     0.074 A 
HETATM   18  C14 UNL     1      24.241   3.305  52.189  1.00  0.00     0.085 A 
HETATM   19  C15 UNL     1      25.086   3.631  51.152  1.00  0.00     0.081 A 
HETATM   20  C16 UNL     1      24.608   4.557  50.266  1.00  0.00     0.189 A 
HETATM   21  C19 UNL     1      26.328   3.029  51.064  1.00  0.00     0.094 A 
HETATM   22  O4  UNL     1      23.487   5.087  50.363  1.00  0.00    -0.287 OA
HETATM   23  C17 UNL     1      25.431   4.912  49.205  1.00  0.00     0.080 A 
HETATM   24  C18 UNL     1      26.653   4.270  49.184  1.00  0.00     0.146 A 
HETATM   25  O5  UNL     1      27.100   3.381  50.044  1.00  0.00    -0.322 OA
HETATM   26  C20 UNL     1      26.792   2.093  51.973  1.00  0.00     0.075 A 
BRANCH  18  27
HETATM   27  O3  UNL     1      22.981   3.854  52.362  1.00  0.00    -0.360 OA
HETATM   28  H24 UNL     1      22.775   4.721  51.862  1.00  0.00     0.217 HD
ENDBRANCH  18  27
ENDBRANCH  15  16
ENDBRANCH   1  15
TORSDOF 12
ENDMDL
MODEL 9
REMARK VINA RESULT:      -6.5      3.120      4.854
REMARK  12 active torsions:
REMARK  status: ('A' for Active; 'I' for Inactive)
REMARK    1  A    between atoms: C2_2  and  C3_3 
REMARK    2  A    between atoms: C3_3  and  C4_4 
REMARK    3  A    between atoms: C4_4  and  C5_5 
REMARK    4  A    between atoms: C5_5  and  C6_6 
REMARK    5  A    between atoms: C6_6  and  C7_7 
REMARK    6  A    between atoms: C7_7  and  C8_8 
REMARK    7  A    between atoms: C8_8  and  C9_9 
REMARK    8  A    between atoms: C9_9  and  N1_10 
REMARK       I    between atoms: N1_10  and  C10_11 
REMARK    9  A    between atoms: C10_11  and  C11_13 
REMARK   10  A    between atoms: C11_13  and  O2_14 
REMARK   11  A    between atoms: O2_14  and  C12_15 
REMARK   12  A    between atoms: C14_17  and  O3_18 
ROOT
HETATM    1  C11 UNL     1      23.685   3.507  52.770  1.00  0.00     0.278 C 
ENDROOT
BRANCH   1   2
HETATM    2  C10 UNL     1      23.882   3.754  51.323  1.00  0.00     0.241 C 
HETATM    3  N1  UNL     1      25.114   4.319  50.900  1.00  0.00    -0.359 N 
HETATM    4  H20 UNL     1      25.848   4.544  51.635  1.00  0.00     0.162 HD
HETATM    5  O1  UNL     1      22.969   3.461  50.512  1.00  0.00    -0.271 OA
BRANCH   3   6
HETATM    6  C9  UNL     1      25.442   4.616  49.513  1.00  0.00     0.122 C 
BRANCH   6   7
HETATM    7  C8  UNL     1      26.829   4.080  49.249  1.00  0.00     0.020 C 
BRANCH   7   8
HETATM    8  C7  UNL     1      27.639   5.121  48.532  1.00  0.00     0.002 C 
BRANCH   8   9
HETATM    9  C6  UNL     1      26.973   6.467  48.667  1.00  0.00     0.000 C 
BRANCH   9  10
HETATM   10  C5  UNL     1      27.528   7.462  47.661  1.00  0.00     0.000 C 
BRANCH  10  11
HETATM   11  C4  UNL     1      28.939   7.133  47.252  1.00  0.00     0.000 C 
BRANCH  11  12
HETATM   12  C3  UNL     1      29.696   8.364  46.793  1.00  0.00    -0.000 C 
BRANCH  12  13
HETATM   13  C2  UNL     1      29.860   8.252  45.283  1.00  0.00    -0.005 C 
HETATM   14  C1  UNL     1      31.248   7.682  44.997  1.00  0.00     0.005 C 
ENDBRANCH  12  13
ENDBRANCH  11  12
ENDBRANCH  10  11
ENDBRANCH   9  10
ENDBRANCH   8   9
ENDBRANCH   7   8
ENDBRANCH   6   7
ENDBRANCH   3   6
ENDBRANCH   1   2
BRANCH   1  15
HETATM   15  O2  UNL     1      23.791   2.133  53.007  1.00  0.00    -0.342 OA
BRANCH  15  16
HETATM   16  C12 UNL     1      25.009   1.478  53.169  1.00  0.00     0.074 A 
HETATM   17  C13 UNL     1      25.078   0.151  52.797  1.00  0.00     0.074 A 
HETATM   18  C14 UNL     1      26.266  -0.539  52.940  1.00  0.00     0.085 A 
HETATM   19  C15 UNL     1      27.357   0.124  53.455  1.00  0.00     0.081 A 
HETATM   20  C16 UNL     1      28.501  -0.616  53.571  1.00  0.00     0.189 A 
HETATM   21  C19 UNL     1      27.242   1.455  53.815  1.00  0.00     0.094 A 
HETATM   22  O4  UNL     1      28.582  -1.812  53.242  1.00  0.00    -0.287 OA
HETATM   23  C17 UNL     1      29.623   0.018  54.088  1.00  0.00     0.080 A 
HETATM   24  C18 UNL     1      29.433   1.344  54.424  1.00  0.00     0.146 A 
HETATM   25  O5  UNL     1      28.325   2.043  54.307  1.00  0.00    -0.322 OA
HETATM   26  C20 UNL     1      26.073   2.186  53.690  1.00  0.00     0.075 A 
BRANCH  18  27
HETATM   27  O3  UNL     1      26.282  -1.869  52.551  1.00  0.00    -0.360 OA
HETATM   28  H24 UNL     1      25.441  -2.237  52.103  1.00  0.00     0.217 HD
ENDBRANCH  18  27
ENDBRANCH  15  16
ENDBRANCH   1  15
TORSDOF 12
ENDMDL
