MODEL 1
REMARK VINA RESULT:      -8.4      0.000      0.000
REMARK  9 active torsions:
REMARK  status: ('A' for Active; 'I' for Inactive)
REMARK    1  A    between atoms: N1_2  and  C3_4 
REMARK    2  A    between atoms: C3_4  and  C4_5 
REMARK    3  A    between atoms: C5_6  and  C6_7 
REMARK       I    between atoms: C6_7  and  N2_9 
REMARK    4  A    between atoms: C13_19  and  N5_20 
REMARK    5  A    between atoms: N5_20  and  C14_21 
REMARK    6  A    between atoms: C14_21  and  C15_22 
REMARK    7  A    between atoms: C14_21  and  C16_24 
REMARK    8  A    between atoms: C15_22  and  O2_23 
REMARK    9  A    between atoms: C16_24  and  C17_25 
ROOT
HETATM    1  C6  UNL     1      26.936   5.134  48.857  1.00  0.00     0.243 C 
HETATM    2  O1  UNL     1      27.665   4.137  48.952  1.00  0.00    -0.268 OA
HETATM    3  N2  UNL     1      26.163   4.157  49.536  1.00  0.00    -0.344 N 
HETATM    4  C7  UNL     1      26.463   2.828  49.927  1.00  0.00     0.131 C 
HETATM    5  C8  UNL     1      26.000   2.695  51.400  1.00  0.00     0.060 C 
HETATM    6  C9  UNL     1      24.564   2.393  51.364  1.00  0.00    -0.025 A 
HETATM    7  C10 UNL     1      24.052   3.435  50.549  1.00  0.00     0.010 A 
HETATM    8  S1  UNL     1      22.303   3.117  50.456  1.00  0.00    -0.072 SA
HETATM    9  C11 UNL     1      22.317   1.662  51.469  1.00  0.00     0.114 A 
HETATM   10  N3  UNL     1      21.300   0.895  51.821  1.00  0.00    -0.234 NA
HETATM   11  C12 UNL     1      21.517  -0.172  52.603  1.00  0.00     0.236 A 
HETATM   12  N4  UNL     1      22.788  -0.341  52.951  1.00  0.00    -0.224 NA
HETATM   13  C13 UNL     1      23.838   0.413  52.614  1.00  0.00     0.139 A 
HETATM   14  C22 UNL     1      23.633   1.511  51.809  1.00  0.00     0.053 A 
HETATM   15  C23 UNL     1      24.823   4.554  49.912  1.00  0.00     0.172 C 
ENDROOT
BRANCH  13  16
HETATM   16  N5  UNL     1      25.103  -0.017  53.155  1.00  0.00    -0.367 N 
HETATM   17  H16 UNL     1      25.931  -0.388  52.715  1.00  0.00     0.161 HD
BRANCH  16  18
HETATM   18  C14 UNL     1      25.362   0.061  54.574  1.00  0.00     0.107 C 
BRANCH  18  19
HETATM   19  C15 UNL     1      24.946  -1.216  55.245  1.00  0.00     0.189 C 
BRANCH  19  20
HETATM   20  O2  UNL     1      25.299  -1.165  56.605  1.00  0.00    -0.399 OA
HETATM   21  H20 UNL     1      25.679  -0.302  56.840  1.00  0.00     0.209 HD
ENDBRANCH  19  20
ENDBRANCH  18  19
BRANCH  18  22
HETATM   22  C16 UNL     1      26.861   0.191  54.808  1.00  0.00     0.039 C 
BRANCH  22  23
HETATM   23  C17 UNL     1      27.620   0.041  53.517  1.00  0.00     0.032 A 
HETATM   24  C18 UNL     1      28.258  -1.304  53.415  1.00  0.00    -0.018 A 
HETATM   25  C19 UNL     1      29.578  -1.215  53.360  1.00  0.00    -0.004 A 
HETATM   26  C20 UNL     1      29.956   0.191  53.419  1.00  0.00    -0.004 A 
HETATM   27  C21 UNL     1      28.835   0.911  53.509  1.00  0.00    -0.018 A 
ENDBRANCH  22  23
ENDBRANCH  18  22
ENDBRANCH  16  18
ENDBRANCH  13  16
BRANCH   1  28
HETATM   28  C5  UNL     1      26.443   6.462  48.544  1.00  0.00     0.072 C 
HETATM   29  C4  UNL     1      27.140   7.445  48.022  1.00  0.00     0.008 C 
BRANCH  29  30
HETATM   30  C3  UNL     1      28.433   7.912  47.512  1.00  0.00     0.299 C 
BRANCH  30  31
HETATM   31  N1  UNL     1      29.345   8.143  48.599  1.00  0.00     0.083 N 
HETATM   32  C1  UNL     1      30.725   7.938  48.245  1.00  0.00     0.309 C 
HETATM   33  C2  UNL     1      29.115   9.349  49.339  1.00  0.00     0.309 C 
ENDBRANCH  30  31
ENDBRANCH  29  30
ENDBRANCH   1  28
TORSDOF 9
ENDMDL
MODEL 2
REMARK VINA RESULT:      -8.2      2.239      4.910
REMARK  9 active torsions:
REMARK  status: ('A' for Active; 'I' for Inactive)
REMARK    1  A    between atoms: N1_2  and  C3_4 
REMARK    2  A    between atoms: C3_4  and  C4_5 
REMARK    3  A    between atoms: C5_6  and  C6_7 
REMARK       I    between atoms: C6_7  and  N2_9 
REMARK    4  A    between atoms: C13_19  and  N5_20 
REMARK    5  A    between atoms: N5_20  and  C14_21 
REMARK    6  A    between atoms: C14_21  and  C15_22 
REMARK    7  A    between atoms: C14_21  and  C16_24 
REMARK    8  A    between atoms: C15_22  and  O2_23 
REMARK    9  A    between atoms: C16_24  and  C17_25 
ROOT
HETATM    1  C6  UNL     1      26.252   4.891  49.446  1.00  0.00     0.243 C 
HETATM    2  O1  UNL     1      25.177   5.319  49.891  1.00  0.00    -0.268 OA
HETATM    3  N2  UNL     1      25.810   3.919  50.380  1.00  0.00    -0.344 N 
HETATM    4  C7  UNL     1      24.654   3.860  51.198  1.00  0.00     0.131 C 
HETATM    5  C8  UNL     1      24.078   2.431  51.031  1.00  0.00     0.060 C 
HETATM    6  C9  UNL     1      24.817   1.569  51.961  1.00  0.00    -0.025 A 
HETATM    7  C10 UNL     1      26.167   1.835  51.619  1.00  0.00     0.010 A 
HETATM    8  S1  UNL     1      27.122   0.820  52.727  1.00  0.00    -0.072 SA
HETATM    9  C11 UNL     1      25.739   0.104  53.573  1.00  0.00     0.114 A 
HETATM   10  N3  UNL     1      25.744  -0.777  54.559  1.00  0.00    -0.234 NA
HETATM   11  C12 UNL     1      24.580  -1.203  55.070  1.00  0.00     0.236 A 
HETATM   12  N4  UNL     1      23.507  -0.665  54.499  1.00  0.00    -0.224 NA
HETATM   13  C13 UNL     1      23.466   0.225  53.504  1.00  0.00     0.139 A 
HETATM   14  C22 UNL     1      24.653   0.674  52.969  1.00  0.00     0.053 A 
HETATM   15  C23 UNL     1      26.670   2.767  50.555  1.00  0.00     0.172 C 
ENDROOT
BRANCH  13  16
HETATM   16  N5  UNL     1      22.145   0.619  53.085  1.00  0.00    -0.367 N 
HETATM   17  H16 UNL     1      21.719   1.526  52.966  1.00  0.00     0.161 HD
BRANCH  16  18
HETATM   18  C14 UNL     1      21.158  -0.374  52.729  1.00  0.00     0.107 C 
BRANCH  18  19
HETATM   19  C15 UNL     1      20.192  -0.572  53.861  1.00  0.00     0.189 C 
BRANCH  19  20
HETATM   20  O2  UNL     1      20.673  -1.580  54.714  1.00  0.00    -0.399 OA
HETATM   21  H20 UNL     1      21.509  -1.954  54.386  1.00  0.00     0.209 HD
ENDBRANCH  19  20
ENDBRANCH  18  19
BRANCH  18  22
HETATM   22  C16 UNL     1      20.332   0.132  51.553  1.00  0.00     0.039 C 
BRANCH  22  23
HETATM   23  C17 UNL     1      21.041   1.255  50.845  1.00  0.00     0.032 A 
HETATM   24  C18 UNL     1      20.135   2.421  50.631  1.00  0.00    -0.018 A 
HETATM   25  C19 UNL     1      19.953   2.667  49.342  1.00  0.00    -0.004 A 
HETATM   26  C20 UNL     1      20.714   1.696  48.567  1.00  0.00    -0.004 A 
HETATM   27  C21 UNL     1      21.338   0.887  49.427  1.00  0.00    -0.018 A 
ENDBRANCH  22  23
ENDBRANCH  18  22
ENDBRANCH  16  18
ENDBRANCH  13  16
BRANCH   1  28
HETATM   28  C5  UNL     1      27.485   4.768  48.693  1.00  0.00     0.072 C 
HETATM   29  C4  UNL     1      28.237   5.758  48.268  1.00  0.00     0.008 C 
BRANCH  29  30
HETATM   30  C3  UNL     1      28.447   7.207  48.187  1.00  0.00     0.299 C 
BRANCH  30  31
HETATM   31  N1  UNL     1      29.852   7.508  48.184  1.00  0.00     0.083 N 
HETATM   32  C1  UNL     1      30.217   8.558  49.100  1.00  0.00     0.309 C 
HETATM   33  C2  UNL     1      30.718   6.368  48.246  1.00  0.00     0.309 C 
ENDBRANCH  30  31
ENDBRANCH  29  30
ENDBRANCH   1  28
TORSDOF 9
ENDMDL
MODEL 3
REMARK VINA RESULT:      -8.1      3.007      8.743
REMARK  9 active torsions:
REMARK  status: ('A' for Active; 'I' for Inactive)
REMARK    1  A    between atoms: N1_2  and  C3_4 
REMARK    2  A    between atoms: C3_4  and  C4_5 
REMARK    3  A    between atoms: C5_6  and  C6_7 
REMARK       I    between atoms: C6_7  and  N2_9 
REMARK    4  A    between atoms: C13_19  and  N5_20 
REMARK    5  A    between atoms: N5_20  and  C14_21 
REMARK    6  A    between atoms: C14_21  and  C15_22 
REMARK    7  A    between atoms: C14_21  and  C16_24 
REMARK    8  A    between atoms: C15_22  and  O2_23 
REMARK    9  A    between atoms: C16_24  and  C17_25 
ROOT
HETATM    1  C6  UNL     1      24.009   2.083  50.975  1.00  0.00     0.243 C 
HETATM    2  O1  UNL     1      25.095   1.960  51.557  1.00  0.00    -0.268 OA
HETATM    3  N2  UNL     1      24.838   3.110  50.457  1.00  0.00    -0.344 N 
HETATM    4  C7  UNL     1      26.182   3.464  50.740  1.00  0.00     0.131 C 
HETATM    5  C8  UNL     1      26.876   3.658  49.368  1.00  0.00     0.060 C 
HETATM    6  C9  UNL     1      26.574   5.027  48.934  1.00  0.00    -0.025 A 
HETATM    7  C10 UNL     1      25.159   5.074  49.027  1.00  0.00     0.010 A 
HETATM    8  S1  UNL     1      24.728   6.725  48.520  1.00  0.00    -0.072 SA
HETATM    9  C11 UNL     1      26.385   7.273  48.213  1.00  0.00     0.114 A 
HETATM   10  N3  UNL     1      26.796   8.457  47.793  1.00  0.00    -0.234 NA
HETATM   11  C12 UNL     1      28.106   8.678  47.618  1.00  0.00     0.236 A 
HETATM   12  N4  UNL     1      28.876   7.632  47.900  1.00  0.00    -0.224 NA
HETATM   13  C13 UNL     1      28.495   6.424  48.325  1.00  0.00     0.139 A 
HETATM   14  C22 UNL     1      27.153   6.180  48.512  1.00  0.00     0.053 A 
HETATM   15  C23 UNL     1      24.239   3.968  49.457  1.00  0.00     0.172 C 
ENDROOT
BRANCH  13  16
HETATM   16  N5  UNL     1      29.565   5.482  48.538  1.00  0.00    -0.367 N 
HETATM   17  H16 UNL     1      29.572   4.548  48.920  1.00  0.00     0.161 HD
BRANCH  16  18
HETATM   18  C14 UNL     1      30.921   5.809  48.165  1.00  0.00     0.107 C 
BRANCH  18  19
HETATM   19  C15 UNL     1      31.731   6.125  49.388  1.00  0.00     0.189 C 
BRANCH  19  20
HETATM   20  O2  UNL     1      31.266   5.355  50.468  1.00  0.00    -0.399 OA
HETATM   21  H20 UNL     1      30.782   5.901  51.111  1.00  0.00     0.209 HD
ENDBRANCH  19  20
ENDBRANCH  18  19
BRANCH  18  22
HETATM   22  C16 UNL     1      31.578   4.592  47.526  1.00  0.00     0.039 C 
BRANCH  22  23
HETATM   23  C17 UNL     1      33.074   4.753  47.483  1.00  0.00     0.032 A 
HETATM   24  C18 UNL     1      33.536   5.188  46.133  1.00  0.00    -0.018 A 
HETATM   25  C19 UNL     1      34.325   4.284  45.573  1.00  0.00    -0.004 A 
HETATM   26  C20 UNL     1      34.472   3.158  46.487  1.00  0.00    -0.004 A 
HETATM   27  C21 UNL     1      33.755   3.426  47.581  1.00  0.00    -0.018 A 
ENDBRANCH  22  23
ENDBRANCH  18  22
ENDBRANCH  16  18
ENDBRANCH  13  16
BRANCH   1  28
HETATM   28  C5  UNL     1      22.637   1.877  50.550  1.00  0.00     0.072 C 
HETATM   29  C4  UNL     1      21.798   0.992  51.037  1.00  0.00     0.008 C 
BRANCH  29  30
HETATM   30  C3  UNL     1      21.560  -0.093  51.994  1.00  0.00     0.299 C 
BRANCH  30  31
HETATM   31  N1  UNL     1      21.993   0.296  53.308  1.00  0.00     0.083 N 
HETATM   32  C1  UNL     1      20.943   0.263  54.293  1.00  0.00     0.309 C 
HETATM   33  C2  UNL     1      23.212  -0.313  53.750  1.00  0.00     0.309 C 
ENDBRANCH  30  31
ENDBRANCH  29  30
ENDBRANCH   1  28
TORSDOF 9
ENDMDL
MODEL 4
REMARK VINA RESULT:      -8.0      1.500      1.898
REMARK  9 active torsions:
REMARK  status: ('A' for Active; 'I' for Inactive)
REMARK    1  A    between atoms: N1_2  and  C3_4 
REMARK    2  A    between atoms: C3_4  and  C4_5 
REMARK    3  A    between atoms: C5_6  and  C6_7 
REMARK       I    between atoms: C6_7  and  N2_9 
REMARK    4  A    between atoms: C13_19  and  N5_20 
REMARK    5  A    between atoms: N5_20  and  C14_21 
REMARK    6  A    between atoms: C14_21  and  C15_22 
REMARK    7  A    between atoms: C14_21  and  C16_24 
REMARK    8  A    between atoms: C15_22  and  O2_23 
REMARK    9  A    between atoms: C16_24  and  C17_25 
ROOT
HETATM    1  C6  UNL     1      27.924   5.869  48.400  1.00  0.00     0.243 C 
HETATM    2  O1  UNL     1      28.455   4.764  48.579  1.00  0.00    -0.268 OA
HETATM    3  N2  UNL     1      26.884   5.012  48.843  1.00  0.00    -0.344 N 
HETATM    4  C7  UNL     1      26.886   3.641  49.202  1.00  0.00     0.131 C 
HETATM    5  C8  UNL     1      26.106   3.542  50.538  1.00  0.00     0.060 C 
HETATM    6  C9  UNL     1      24.682   3.480  50.188  1.00  0.00    -0.025 A 
HETATM    7  C10 UNL     1      24.520   4.615  49.353  1.00  0.00     0.010 A 
HETATM    8  S1  UNL     1      22.803   4.589  48.884  1.00  0.00    -0.072 SA
HETATM    9  C11 UNL     1      22.379   3.123  49.784  1.00  0.00     0.114 A 
HETATM   10  N3  UNL     1      21.204   2.521  49.871  1.00  0.00    -0.234 NA
HETATM   11  C12 UNL     1      21.084   1.411  50.611  1.00  0.00     0.236 A 
HETATM   12  N4  UNL     1      22.211   1.026  51.201  1.00  0.00    -0.224 NA
HETATM   13  C13 UNL     1      23.411   1.608  51.135  1.00  0.00     0.139 A 
HETATM   14  C22 UNL     1      23.554   2.749  50.377  1.00  0.00     0.053 A 
HETATM   15  C23 UNL     1      25.572   5.612  48.960  1.00  0.00     0.172 C 
ENDROOT
BRANCH  13  16
HETATM   16  N5  UNL     1      24.451   0.962  51.896  1.00  0.00    -0.367 N 
HETATM   17  H16 UNL     1      25.318   0.529  51.616  1.00  0.00     0.161 HD
BRANCH  16  18
HETATM   18  C14 UNL     1      24.359   0.863  53.334  1.00  0.00     0.107 C 
BRANCH  18  19
HETATM   19  C15 UNL     1      23.863  -0.498  53.727  1.00  0.00     0.189 C 
BRANCH  19  20
HETATM   20  O2  UNL     1      22.475  -0.446  53.940  1.00  0.00    -0.399 OA
HETATM   21  H20 UNL     1      22.134  -1.295  54.270  1.00  0.00     0.209 HD
ENDBRANCH  19  20
ENDBRANCH  18  19
BRANCH  18  22
HETATM   22  C16 UNL     1      25.750   0.997  53.940  1.00  0.00     0.039 C 
BRANCH  22  23
HETATM   23  C17 UNL     1      26.812   0.690  52.918  1.00  0.00     0.032 A 
HETATM   24  C18 UNL     1      27.418  -0.653  53.150  1.00  0.00    -0.018 A 
HETATM   25  C19 UNL     1      28.709  -0.564  53.427  1.00  0.00    -0.004 A 
HETATM   26  C20 UNL     1      29.097   0.841  53.410  1.00  0.00    -0.004 A 
HETATM   27  C21 UNL     1      28.011   1.559  53.118  1.00  0.00    -0.018 A 
ENDBRANCH  22  23
ENDBRANCH  18  22
ENDBRANCH  16  18
ENDBRANCH  13  16
BRANCH   1  28
HETATM   28  C5  UNL     1      27.719   7.268  48.077  1.00  0.00     0.072 C 
HETATM   29  C4  UNL     1      28.524   8.261  48.378  1.00  0.00     0.008 C 
BRANCH  29  30
HETATM   30  C3  UNL     1      29.775   8.693  49.012  1.00  0.00     0.299 C 
BRANCH  30  31
HETATM   31  N1  UNL     1      30.892   7.997  48.436  1.00  0.00     0.083 N 
HETATM   32  C1  UNL     1      31.853   8.869  47.812  1.00  0.00     0.309 C 
HETATM   33  C2  UNL     1      31.485   6.999  49.276  1.00  0.00     0.309 C 
ENDBRANCH  30  31
ENDBRANCH  29  30
ENDBRANCH   1  28
TORSDOF 9
ENDMDL
MODEL 5
REMARK VINA RESULT:      -8.0      2.475      5.293
REMARK  9 active torsions:
REMARK  status: ('A' for Active; 'I' for Inactive)
REMARK    1  A    between atoms: N1_2  and  C3_4 
REMARK    2  A    between atoms: C3_4  and  C4_5 
REMARK    3  A    between atoms: C5_6  and  C6_7 
REMARK       I    between atoms: C6_7  and  N2_9 
REMARK    4  A    between atoms: C13_19  and  N5_20 
REMARK    5  A    between atoms: N5_20  and  C14_21 
REMARK    6  A    between atoms: C14_21  and  C15_22 
REMARK    7  A    between atoms: C14_21  and  C16_24 
REMARK    8  A    between atoms: C15_22  and  O2_23 
REMARK    9  A    between atoms: C16_24  and  C17_25 
ROOT
HETATM    1  C6  UNL     1      26.151   5.242  49.209  1.00  0.00     0.243 C 
HETATM    2  O1  UNL     1      24.988   5.518  49.533  1.00  0.00    -0.268 OA
HETATM    3  N2  UNL     1      25.755   4.226  50.116  1.00  0.00    -0.344 N 
HETATM    4  C7  UNL     1      24.540   4.011  50.814  1.00  0.00     0.131 C 
HETATM    5  C8  UNL     1      24.190   2.514  50.623  1.00  0.00     0.060 C 
HETATM    6  C9  UNL     1      24.942   1.773  51.642  1.00  0.00    -0.025 A 
HETATM    7  C10 UNL     1      26.270   2.224  51.432  1.00  0.00     0.010 A 
HETATM    8  S1  UNL     1      27.238   1.363  52.654  1.00  0.00    -0.072 SA
HETATM    9  C11 UNL     1      25.888   0.467  53.373  1.00  0.00     0.114 A 
HETATM   10  N3  UNL     1      25.914  -0.396  54.374  1.00  0.00    -0.234 NA
HETATM   11  C12 UNL     1      24.774  -0.977  54.775  1.00  0.00     0.236 A 
HETATM   12  N4  UNL     1      23.702  -0.602  54.087  1.00  0.00    -0.224 NA
HETATM   13  C13 UNL     1      23.640   0.265  53.072  1.00  0.00     0.139 A 
HETATM   14  C22 UNL     1      24.801   0.873  52.649  1.00  0.00     0.053 A 
HETATM   15  C23 UNL     1      26.745   3.208  50.403  1.00  0.00     0.172 C 
ENDROOT
BRANCH  13  16
HETATM   16  N5  UNL     1      22.327   0.465  52.513  1.00  0.00    -0.367 N 
HETATM   17  H16 UNL     1      21.864   0.048  51.719  1.00  0.00     0.161 HD
BRANCH  16  18
HETATM   18  C14 UNL     1      21.403   1.397  53.116  1.00  0.00     0.107 C 
BRANCH  18  19
HETATM   19  C15 UNL     1      20.771   2.255  52.058  1.00  0.00     0.189 C 
BRANCH  19  20
HETATM   20  O2  UNL     1      20.012   3.268  52.669  1.00  0.00    -0.399 OA
HETATM   21  H20 UNL     1      20.532   3.743  53.340  1.00  0.00     0.209 HD
ENDBRANCH  19  20
ENDBRANCH  18  19
BRANCH  18  22
HETATM   22  C16 UNL     1      20.263   0.628  53.771  1.00  0.00     0.039 C 
BRANCH  22  23
HETATM   23  C17 UNL     1      19.811  -0.510  52.895  1.00  0.00     0.032 A 
HETATM   24  C18 UNL     1      18.507  -0.204  52.237  1.00  0.00    -0.018 A 
HETATM   25  C19 UNL     1      17.561  -1.051  52.614  1.00  0.00    -0.004 A 
HETATM   26  C20 UNL     1      18.132  -2.003  53.557  1.00  0.00    -0.004 A 
HETATM   27  C21 UNL     1      19.421  -1.694  53.718  1.00  0.00    -0.018 A 
ENDBRANCH  22  23
ENDBRANCH  18  22
ENDBRANCH  16  18
ENDBRANCH  13  16
BRANCH   1  28
HETATM   28  C5  UNL     1      27.461   5.288  48.587  1.00  0.00     0.072 C 
HETATM   29  C4  UNL     1      28.093   6.367  48.186  1.00  0.00     0.008 C 
BRANCH  29  30
HETATM   30  C3  UNL     1      28.086   7.827  48.050  1.00  0.00     0.299 C 
BRANCH  30  31
HETATM   31  N1  UNL     1      28.387   8.448  49.310  1.00  0.00     0.083 N 
HETATM   32  C1  UNL     1      29.594   9.234  49.290  1.00  0.00     0.309 C 
HETATM   33  C2  UNL     1      27.284   9.110  49.940  1.00  0.00     0.309 C 
ENDBRANCH  30  31
ENDBRANCH  29  30
ENDBRANCH   1  28
TORSDOF 9
ENDMDL
MODEL 6
REMARK VINA RESULT:      -7.9      3.616      9.070
REMARK  9 active torsions:
REMARK  status: ('A' for Active; 'I' for Inactive)
REMARK    1  A    between atoms: N1_2  and  C3_4 
REMARK    2  A    between atoms: C3_4  and  C4_5 
REMARK    3  A    between atoms: C5_6  and  C6_7 
REMARK       I    between atoms: C6_7  and  N2_9 
REMARK    4  A    between atoms: C13_19  and  N5_20 
REMARK    5  A    between atoms: N5_20  and  C14_21 
REMARK    6  A    between atoms: C14_21  and  C15_22 
REMARK    7  A    between atoms: C14_21  and  C16_24 
REMARK    8  A    between atoms: C15_22  and  O2_23 
REMARK    9  A    between atoms: C16_24  and  C17_25 
ROOT
HETATM    1  C6  UNL     1      19.376  -1.585  53.744  1.00  0.00     0.243 C 
HETATM    2  O1  UNL     1      20.495  -1.892  54.179  1.00  0.00    -0.268 OA
HETATM    3  N2  UNL     1      20.245  -0.542  53.335  1.00  0.00    -0.344 N 
HETATM    4  C7  UNL     1      21.635  -0.343  53.536  1.00  0.00     0.131 C 
HETATM    5  C8  UNL     1      22.219   0.053  52.156  1.00  0.00     0.060 C 
HETATM    6  C9  UNL     1      22.003   1.497  52.008  1.00  0.00    -0.025 A 
HETATM    7  C10 UNL     1      20.613   1.627  52.254  1.00  0.00     0.010 A 
HETATM    8  S1  UNL     1      20.287   3.370  52.097  1.00  0.00    -0.072 SA
HETATM    9  C11 UNL     1      21.953   3.845  51.724  1.00  0.00     0.114 A 
HETATM   10  N3  UNL     1      22.429   5.054  51.482  1.00  0.00    -0.234 NA
HETATM   11  C12 UNL     1      23.733   5.209  51.215  1.00  0.00     0.236 A 
HETATM   12  N4  UNL     1      24.428   4.077  51.223  1.00  0.00    -0.224 NA
HETATM   13  C13 UNL     1      23.980   2.842  51.463  1.00  0.00     0.139 A 
HETATM   14  C22 UNL     1      22.643   2.664  51.742  1.00  0.00     0.053 A 
HETATM   15  C23 UNL     1      19.639   0.529  52.572  1.00  0.00     0.172 C 
ENDROOT
BRANCH  13  16
HETATM   16  N5  UNL     1      24.976   1.802  51.392  1.00  0.00    -0.367 N 
HETATM   17  H16 UNL     1      24.993   0.920  50.902  1.00  0.00     0.161 HD
BRANCH  16  18
HETATM   18  C14 UNL     1      26.230   1.933  52.095  1.00  0.00     0.107 C 
BRANCH  18  19
HETATM   19  C15 UNL     1      25.996   1.909  53.578  1.00  0.00     0.189 C 
BRANCH  19  20
HETATM   20  O2  UNL     1      26.830   2.855  54.198  1.00  0.00    -0.399 OA
HETATM   21  H20 UNL     1      26.776   3.720  53.756  1.00  0.00     0.209 HD
ENDBRANCH  19  20
ENDBRANCH  18  19
BRANCH  18  22
HETATM   22  C16 UNL     1      27.111   0.728  51.788  1.00  0.00     0.039 C 
BRANCH  22  23
HETATM   23  C17 UNL     1      27.165  -0.209  52.965  1.00  0.00     0.032 A 
HETATM   24  C18 UNL     1      28.572  -0.491  53.372  1.00  0.00    -0.018 A 
HETATM   25  C19 UNL     1      28.871  -1.774  53.236  1.00  0.00    -0.004 A 
HETATM   26  C20 UNL     1      27.701  -2.477  52.727  1.00  0.00    -0.004 A 
HETATM   27  C21 UNL     1      26.723  -1.582  52.572  1.00  0.00    -0.018 A 
ENDBRANCH  22  23
ENDBRANCH  18  22
ENDBRANCH  16  18
ENDBRANCH  13  16
BRANCH   1  28
HETATM   28  C5  UNL     1      17.960  -1.609  53.434  1.00  0.00     0.072 C 
HETATM   29  C4  UNL     1      17.197  -2.676  53.366  1.00  0.00     0.008 C 
BRANCH  29  30
HETATM   30  C3  UNL     1      17.096  -4.135  53.482  1.00  0.00     0.299 C 
BRANCH  30  31
HETATM   31  N1  UNL     1      15.738  -4.558  53.276  1.00  0.00     0.083 N 
HETATM   32  C1  UNL     1      15.128  -5.124  54.452  1.00  0.00     0.309 C 
HETATM   33  C2  UNL     1      14.903  -3.613  52.596  1.00  0.00     0.309 C 
ENDBRANCH  30  31
ENDBRANCH  29  30
ENDBRANCH   1  28
TORSDOF 9
ENDMDL
MODEL 7
REMARK VINA RESULT:      -7.8      3.194      5.766
REMARK  9 active torsions:
REMARK  status: ('A' for Active; 'I' for Inactive)
REMARK    1  A    between atoms: N1_2  and  C3_4 
REMARK    2  A    between atoms: C3_4  and  C4_5 
REMARK    3  A    between atoms: C5_6  and  C6_7 
REMARK       I    between atoms: C6_7  and  N2_9 
REMARK    4  A    between atoms: C13_19  and  N5_20 
REMARK    5  A    between atoms: N5_20  and  C14_21 
REMARK    6  A    between atoms: C14_21  and  C15_22 
REMARK    7  A    between atoms: C14_21  and  C16_24 
REMARK    8  A    between atoms: C15_22  and  O2_23 
REMARK    9  A    between atoms: C16_24  and  C17_25 
ROOT
HETATM    1  C6  UNL     1      23.507   6.498  50.142  1.00  0.00     0.243 C 
HETATM    2  O1  UNL     1      22.832   6.513  51.181  1.00  0.00    -0.268 OA
HETATM    3  N2  UNL     1      23.787   5.272  50.798  1.00  0.00    -0.344 N 
HETATM    4  C7  UNL     1      23.314   4.731  52.019  1.00  0.00     0.131 C 
HETATM    5  C8  UNL     1      22.914   3.264  51.716  1.00  0.00     0.060 C 
HETATM    6  C9  UNL     1      24.143   2.467  51.804  1.00  0.00    -0.025 A 
HETATM    7  C10 UNL     1      25.021   3.159  50.931  1.00  0.00     0.010 A 
HETATM    8  S1  UNL     1      26.545   2.241  51.002  1.00  0.00    -0.072 SA
HETATM    9  C11 UNL     1      25.978   1.014  52.149  1.00  0.00     0.114 A 
HETATM   10  N3  UNL     1      26.642  -0.014  52.648  1.00  0.00    -0.234 NA
HETATM   11  C12 UNL     1      26.031  -0.839  53.510  1.00  0.00     0.236 A 
HETATM   12  N4  UNL     1      24.770  -0.513  53.773  1.00  0.00    -0.224 NA
HETATM   13  C13 UNL     1      24.071   0.516  53.287  1.00  0.00     0.139 A 
HETATM   14  C22 UNL     1      24.683   1.375  52.402  1.00  0.00     0.053 A 
HETATM   15  C23 UNL     1      24.721   4.391  50.128  1.00  0.00     0.172 C 
ENDROOT
BRANCH  13  16
HETATM   16  N5  UNL     1      22.709   0.608  53.752  1.00  0.00    -0.367 N 
HETATM   17  H16 UNL     1      22.270   1.209  54.433  1.00  0.00     0.161 HD
BRANCH  16  18
HETATM   18  C14 UNL     1      21.686  -0.256  53.211  1.00  0.00     0.107 C 
BRANCH  18  19
HETATM   19  C15 UNL     1      21.162  -1.169  54.281  1.00  0.00     0.189 C 
BRANCH  19  20
HETATM   20  O2  UNL     1      22.101  -1.254  55.323  1.00  0.00    -0.399 OA
HETATM   21  H20 UNL     1      22.897  -0.730  55.127  1.00  0.00     0.209 HD
ENDBRANCH  19  20
ENDBRANCH  18  19
BRANCH  18  22
HETATM   22  C16 UNL     1      20.500   0.586  52.757  1.00  0.00     0.039 C 
BRANCH  22  23
HETATM   23  C17 UNL     1      20.051   0.181  51.379  1.00  0.00     0.032 A 
HETATM   24  C18 UNL     1      21.172   0.258  50.397  1.00  0.00    -0.018 A 
HETATM   25  C19 UNL     1      20.927   1.147  49.447  1.00  0.00    -0.004 A 
HETATM   26  C20 UNL     1      19.625   1.752  49.694  1.00  0.00    -0.004 A 
HETATM   27  C21 UNL     1      19.122   1.198  50.800  1.00  0.00    -0.018 A 
ENDBRANCH  22  23
ENDBRANCH  18  22
ENDBRANCH  16  18
ENDBRANCH  13  16
BRANCH   1  28
HETATM   28  C5  UNL     1      24.101   6.877  48.874  1.00  0.00     0.072 C 
HETATM   29  C4  UNL     1      23.532   6.794  47.693  1.00  0.00     0.008 C 
BRANCH  29  30
HETATM   30  C3  UNL     1      22.346   6.425  46.914  1.00  0.00     0.299 C 
BRANCH  30  31
HETATM   31  N1  UNL     1      22.174   4.999  46.912  1.00  0.00     0.083 N 
HETATM   32  C1  UNL     1      21.289   4.525  47.944  1.00  0.00     0.309 C 
HETATM   33  C2  UNL     1      21.916   4.420  45.626  1.00  0.00     0.309 C 
ENDBRANCH  30  31
ENDBRANCH  29  30
ENDBRANCH   1  28
TORSDOF 9
ENDMDL
MODEL 8
REMARK VINA RESULT:      -7.7      2.870      8.116
REMARK  9 active torsions:
REMARK  status: ('A' for Active; 'I' for Inactive)
REMARK    1  A    between atoms: N1_2  and  C3_4 
REMARK    2  A    between atoms: C3_4  and  C4_5 
REMARK    3  A    between atoms: C5_6  and  C6_7 
REMARK       I    between atoms: C6_7  and  N2_9 
REMARK    4  A    between atoms: C13_19  and  N5_20 
REMARK    5  A    between atoms: N5_20  and  C14_21 
REMARK    6  A    between atoms: C14_21  and  C15_22 
REMARK    7  A    between atoms: C14_21  and  C16_24 
REMARK    8  A    between atoms: C15_22  and  O2_23 
REMARK    9  A    between atoms: C16_24  and  C17_25 
ROOT
HETATM    1  C6  UNL     1      24.179   2.257  52.827  1.00  0.00     0.243 C 
HETATM    2  O1  UNL     1      24.114   3.354  53.399  1.00  0.00    -0.268 OA
HETATM    3  N2  UNL     1      23.922   3.207  51.806  1.00  0.00    -0.344 N 
HETATM    4  C7  UNL     1      23.749   4.613  51.853  1.00  0.00     0.131 C 
HETATM    5  C8  UNL     1      24.629   5.195  50.717  1.00  0.00     0.060 C 
HETATM    6  C9  UNL     1      23.836   5.108  49.485  1.00  0.00    -0.025 A 
HETATM    7  C10 UNL     1      23.457   3.742  49.460  1.00  0.00     0.010 A 
HETATM    8  S1  UNL     1      22.477   3.572  47.983  1.00  0.00    -0.072 SA
HETATM    9  C11 UNL     1      22.604   5.264  47.472  1.00  0.00     0.114 A 
HETATM   10  N3  UNL     1      22.083   5.842  46.403  1.00  0.00    -0.234 NA
HETATM   11  C12 UNL     1      22.297   7.148  46.187  1.00  0.00     0.236 A 
HETATM   12  N4  UNL     1      23.043   7.736  47.116  1.00  0.00    -0.224 NA
HETATM   13  C13 UNL     1      23.584   7.184  48.205  1.00  0.00     0.139 A 
HETATM   14  C22 UNL     1      23.373   5.844  48.443  1.00  0.00     0.053 A 
HETATM   15  C23 UNL     1      23.810   2.681  50.462  1.00  0.00     0.172 C 
ENDROOT
BRANCH  13  16
HETATM   16  N5  UNL     1      24.360   8.079  49.028  1.00  0.00    -0.367 N 
HETATM   17  H16 UNL     1      24.176   8.491  49.930  1.00  0.00     0.161 HD
BRANCH  16  18
HETATM   18  C14 UNL     1      25.662   8.531  48.599  1.00  0.00     0.107 C 
BRANCH  18  19
HETATM   19  C15 UNL     1      25.973   9.866  49.213  1.00  0.00     0.189 C 
BRANCH  19  20
HETATM   20  O2  UNL     1      26.369   9.684  50.550  1.00  0.00    -0.399 OA
HETATM   21  H20 UNL     1      25.621   9.801  51.160  1.00  0.00     0.209 HD
ENDBRANCH  19  20
ENDBRANCH  18  19
BRANCH  18  22
HETATM   22  C16 UNL     1      26.727   7.572  49.115  1.00  0.00     0.039 C 
BRANCH  22  23
HETATM   23  C17 UNL     1      27.265   6.718  47.998  1.00  0.00     0.032 A 
HETATM   24  C18 UNL     1      27.727   5.392  48.501  1.00  0.00    -0.018 A 
HETATM   25  C19 UNL     1      29.026   5.223  48.308  1.00  0.00    -0.004 A 
HETATM   26  C20 UNL     1      29.563   6.412  47.659  1.00  0.00    -0.004 A 
HETATM   27  C21 UNL     1      28.555   7.269  47.481  1.00  0.00    -0.018 A 
ENDBRANCH  22  23
ENDBRANCH  18  22
ENDBRANCH  16  18
ENDBRANCH  13  16
BRANCH   1  28
HETATM   28  C5  UNL     1      24.327   0.836  52.575  1.00  0.00     0.072 C 
HETATM   29  C4  UNL     1      25.090   0.004  53.246  1.00  0.00     0.008 C 
BRANCH  29  30
HETATM   30  C3  UNL     1      26.044  -0.192  54.342  1.00  0.00     0.299 C 
BRANCH  30  31
HETATM   31  N1  UNL     1      27.392  -0.101  53.853  1.00  0.00     0.083 N 
HETATM   32  C1  UNL     1      28.360   0.177  54.882  1.00  0.00     0.309 C 
HETATM   33  C2  UNL     1      27.788  -1.152  52.963  1.00  0.00     0.309 C 
ENDBRANCH  30  31
ENDBRANCH  29  30
ENDBRANCH   1  28
TORSDOF 9
ENDMDL
MODEL 9
REMARK VINA RESULT:      -7.7      3.635      9.168
REMARK  9 active torsions:
REMARK  status: ('A' for Active; 'I' for Inactive)
REMARK    1  A    between atoms: N1_2  and  C3_4 
REMARK    2  A    between atoms: C3_4  and  C4_5 
REMARK    3  A    between atoms: C5_6  and  C6_7 
REMARK       I    between atoms: C6_7  and  N2_9 
REMARK    4  A    between atoms: C13_19  and  N5_20 
REMARK    5  A    between atoms: N5_20  and  C14_21 
REMARK    6  A    between atoms: C14_21  and  C15_22 
REMARK    7  A    between atoms: C14_21  and  C16_24 
REMARK    8  A    between atoms: C15_22  and  O2_23 
REMARK    9  A    between atoms: C16_24  and  C17_25 
ROOT
HETATM    1  C6  UNL     1      18.673  -0.135  51.750  1.00  0.00     0.243 C 
HETATM    2  O1  UNL     1      19.013   0.481  50.731  1.00  0.00    -0.268 OA
HETATM    3  N2  UNL     1      20.035   0.205  51.946  1.00  0.00    -0.344 N 
HETATM    4  C7  UNL     1      20.955   0.908  51.127  1.00  0.00     0.131 C 
HETATM    5  C8  UNL     1      21.656   1.938  52.050  1.00  0.00     0.060 C 
HETATM    6  C9  UNL     1      22.750   1.225  52.720  1.00  0.00    -0.025 A 
HETATM    7  C10 UNL     1      22.088   0.104  53.281  1.00  0.00     0.010 A 
HETATM    8  S1  UNL     1      23.372  -0.813  54.105  1.00  0.00    -0.072 SA
HETATM    9  C11 UNL     1      24.696   0.289  53.687  1.00  0.00     0.114 A 
HETATM   10  N3  UNL     1      25.976   0.195  54.002  1.00  0.00    -0.234 NA
HETATM   11  C12 UNL     1      26.829   1.142  53.589  1.00  0.00     0.236 A 
HETATM   12  N4  UNL     1      26.263   2.112  52.879  1.00  0.00    -0.224 NA
HETATM   13  C13 UNL     1      24.977   2.238  52.543  1.00  0.00     0.139 A 
HETATM   14  C22 UNL     1      24.086   1.273  52.957  1.00  0.00     0.053 A 
HETATM   15  C23 UNL     1      20.626  -0.226  53.195  1.00  0.00     0.172 C 
ENDROOT
BRANCH  13  16
HETATM   16  N5  UNL     1      24.655   3.411  51.769  1.00  0.00    -0.367 N 
HETATM   17  H16 UNL     1      24.126   4.240  51.994  1.00  0.00     0.161 HD
BRANCH  16  18
HETATM   18  C14 UNL     1      25.129   3.552  50.412  1.00  0.00     0.107 C 
BRANCH  18  19
HETATM   19  C15 UNL     1      23.988   3.393  49.448  1.00  0.00     0.189 C 
BRANCH  19  20
HETATM   20  O2  UNL     1      22.923   4.219  49.846  1.00  0.00    -0.399 OA
HETATM   21  H20 UNL     1      23.143   5.160  49.738  1.00  0.00     0.209 HD
ENDBRANCH  19  20
ENDBRANCH  18  19
BRANCH  18  22
HETATM   22  C16 UNL     1      25.662   4.964  50.206  1.00  0.00     0.039 C 
BRANCH  22  23
HETATM   23  C17 UNL     1      26.166   5.145  48.799  1.00  0.00     0.032 A 
HETATM   24  C18 UNL     1      27.601   4.758  48.681  1.00  0.00    -0.018 A 
HETATM   25  C19 UNL     1      28.357   5.787  48.331  1.00  0.00    -0.004 A 
HETATM   26  C20 UNL     1      27.509   6.962  48.180  1.00  0.00    -0.004 A 
HETATM   27  C21 UNL     1      26.253   6.595  48.448  1.00  0.00    -0.018 A 
ENDBRANCH  22  23
ENDBRANCH  18  22
ENDBRANCH  16  18
ENDBRANCH  13  16
BRANCH   1  28
HETATM   28  C5  UNL     1      17.888  -0.871  52.724  1.00  0.00     0.072 C 
HETATM   29  C4  UNL     1      16.577  -0.895  52.806  1.00  0.00     0.008 C 
BRANCH  29  30
HETATM   30  C3  UNL     1      15.294  -0.434  52.267  1.00  0.00     0.299 C 
BRANCH  30  31
HETATM   31  N1  UNL     1      14.816   0.698  53.012  1.00  0.00     0.083 N 
HETATM   32  C1  UNL     1      15.075   1.960  52.369  1.00  0.00     0.309 C 
HETATM   33  C2  UNL     1      13.480   0.574  53.514  1.00  0.00     0.309 C 
ENDBRANCH  30  31
ENDBRANCH  29  30
ENDBRANCH   1  28
TORSDOF 9
ENDMDL
