MODEL 1
REMARK VINA RESULT:      -7.4      0.000      0.000
REMARK  4 active torsions:
REMARK  status: ('A' for Active; 'I' for Inactive)
REMARK    1  A    between atoms: C4_4  and  C5_6 
REMARK    2  A    between atoms: C6_7  and  C7_8 
REMARK    3  A    between atoms: C7_8  and  N1_9 
REMARK    4  A    between atoms: N1_9  and  C8_10 
ROOT
HETATM    1  C1  UNL     1      28.854  -3.136  53.079  1.00  0.00     0.017 C 
HETATM    2  C2  UNL     1      29.284  -2.029  53.382  1.00  0.00    -0.086 C 
HETATM    3  C3  UNL     1      29.772  -0.726  53.733  1.00  0.00     0.105 C 
HETATM    4  C4  UNL     1      28.868   0.239  53.688  1.00  0.00     0.124 C 
HETATM    5  F1  UNL     1      27.991  -0.717  53.305  1.00  0.00    -0.206 F 
ENDROOT
BRANCH   4   6
HETATM    6  C5  UNL     1      28.974   1.653  53.966  1.00  0.00     0.040 C 
HETATM    7  C6  UNL     1      28.309   2.629  53.397  1.00  0.00    -0.004 C 
BRANCH   7   8
HETATM    8  C7  UNL     1      27.316   2.341  52.336  1.00  0.00     0.148 C 
BRANCH   8   9
HETATM    9  N1  UNL     1      25.996   2.634  52.860  1.00  0.00    -0.371 N 
HETATM   10  H7  UNL     1      25.903   2.974  53.838  1.00  0.00     0.161 HD
BRANCH   9  11
HETATM   11  C8  UNL     1      24.900   2.427  51.966  1.00  0.00     0.137 A 
HETATM   12  N2  UNL     1      24.773   3.120  50.827  1.00  0.00    -0.224 NA
HETATM   13  C9  UNL     1      23.753   2.942  49.973  1.00  0.00     0.235 A 
HETATM   14  N3  UNL     1      22.758   2.035  50.200  1.00  0.00    -0.241 NA
HETATM   15  C10 UNL     1      22.828   1.304  51.332  1.00  0.00     0.072 A 
HETATM   16  C11 UNL     1      21.840   0.376  51.597  1.00  0.00     0.034 A 
HETATM   17  C15 UNL     1      23.894   1.525  52.175  1.00  0.00     0.040 A 
HETATM   18  C12 UNL     1      21.885  -0.389  52.753  1.00  0.00     0.026 A 
HETATM   19  C13 UNL     1      22.939  -0.196  53.622  1.00  0.00     0.035 A 
HETATM   20 CL1  UNL     1      22.971  -1.168  55.063  1.00  0.00    -0.084 Cl
HETATM   21  C14 UNL     1      23.899   0.743  53.310  1.00  0.00     0.041 A 
ENDBRANCH   9  11
ENDBRANCH   8   9
ENDBRANCH   7   8
ENDBRANCH   4   6
TORSDOF 4
ENDMDL
MODEL 2
REMARK VINA RESULT:      -7.2      3.231      6.306
REMARK  4 active torsions:
REMARK  status: ('A' for Active; 'I' for Inactive)
REMARK    1  A    between atoms: C4_4  and  C5_6 
REMARK    2  A    between atoms: C6_7  and  C7_8 
REMARK    3  A    between atoms: C7_8  and  N1_9 
REMARK    4  A    between atoms: N1_9  and  C8_10 
ROOT
HETATM    1  C1  UNL     1      21.612   1.107  48.846  1.00  0.00     0.017 C 
HETATM    2  C2  UNL     1      21.051   1.099  49.936  1.00  0.00    -0.086 C 
HETATM    3  C3  UNL     1      20.402   1.073  51.216  1.00  0.00     0.105 C 
HETATM    4  C4  UNL     1      20.697   0.027  51.970  1.00  0.00     0.124 C 
HETATM    5  F1  UNL     1      21.491  -0.376  50.952  1.00  0.00    -0.206 F 
ENDROOT
BRANCH   4   6
HETATM    6  C5  UNL     1      20.252  -0.345  53.293  1.00  0.00     0.040 C 
HETATM    7  C6  UNL     1      20.914  -1.029  54.194  1.00  0.00    -0.004 C 
BRANCH   7   8
HETATM    8  C7  UNL     1      22.284  -1.517  53.907  1.00  0.00     0.148 C 
BRANCH   8   9
HETATM    9  N1  UNL     1      23.229  -0.558  54.445  1.00  0.00    -0.371 N 
HETATM   10  H7  UNL     1      23.043  -0.130  55.373  1.00  0.00     0.161 HD
BRANCH   9  11
HETATM   11  C8  UNL     1      24.370  -0.270  53.632  1.00  0.00     0.137 A 
HETATM   12  N2  UNL     1      25.407  -1.113  53.542  1.00  0.00    -0.224 NA
HETATM   13  C9  UNL     1      26.487  -0.864  52.786  1.00  0.00     0.235 A 
HETATM   14  N3  UNL     1      26.615   0.276  52.046  1.00  0.00    -0.241 NA
HETATM   15  C10 UNL     1      25.604   1.168  52.094  1.00  0.00     0.072 A 
HETATM   16  C11 UNL     1      25.696   2.333  51.359  1.00  0.00     0.034 A 
HETATM   17  C15 UNL     1      24.517   0.865  52.885  1.00  0.00     0.040 A 
HETATM   18  C12 UNL     1      24.672   3.268  51.390  1.00  0.00     0.026 A 
HETATM   19  C13 UNL     1      23.566   2.999  52.170  1.00  0.00     0.035 A 
HETATM   20 CL1  UNL     1      22.298   4.187  52.191  1.00  0.00    -0.084 Cl
HETATM   21  C14 UNL     1      23.524   1.821  52.885  1.00  0.00     0.041 A 
ENDBRANCH   9  11
ENDBRANCH   8   9
ENDBRANCH   7   8
ENDBRANCH   4   6
TORSDOF 4
ENDMDL
MODEL 3
REMARK VINA RESULT:      -7.2      2.705      3.721
REMARK  4 active torsions:
REMARK  status: ('A' for Active; 'I' for Inactive)
REMARK    1  A    between atoms: C4_4  and  C5_6 
REMARK    2  A    between atoms: C6_7  and  C7_8 
REMARK    3  A    between atoms: C7_8  and  N1_9 
REMARK    4  A    between atoms: N1_9  and  C8_10 
ROOT
HETATM    1  C1  UNL     1      29.713  -2.023  53.528  1.00  0.00     0.017 C 
HETATM    2  C2  UNL     1      29.255  -0.899  53.705  1.00  0.00    -0.086 C 
HETATM    3  C3  UNL     1      28.703   0.410  53.907  1.00  0.00     0.105 C 
HETATM    4  C4  UNL     1      27.388   0.485  53.787  1.00  0.00     0.124 C 
HETATM    5  F1  UNL     1      27.421  -0.843  53.527  1.00  0.00    -0.206 F 
ENDROOT
BRANCH   4   6
HETATM    6  C5  UNL     1      26.485   1.605  53.916  1.00  0.00     0.040 C 
HETATM    7  C6  UNL     1      25.402   1.842  53.216  1.00  0.00    -0.004 C 
BRANCH   7   8
HETATM    8  C7  UNL     1      24.981   0.904  52.149  1.00  0.00     0.148 C 
BRANCH   8   9
HETATM    9  N1  UNL     1      23.533   0.937  52.064  1.00  0.00    -0.371 N 
HETATM   10  H7  UNL     1      23.083   1.533  51.343  1.00  0.00     0.161 HD
BRANCH   9  11
HETATM   11  C8  UNL     1      22.826   0.124  53.003  1.00  0.00     0.137 A 
HETATM   12  N2  UNL     1      23.437  -0.446  54.050  1.00  0.00    -0.224 NA
HETATM   13  C9  UNL     1      22.793  -1.212  54.944  1.00  0.00     0.235 A 
HETATM   14  N3  UNL     1      21.456  -1.473  54.856  1.00  0.00    -0.241 NA
HETATM   15  C10 UNL     1      20.781  -0.928  53.822  1.00  0.00     0.072 A 
HETATM   16  C11 UNL     1      19.427  -1.169  53.698  1.00  0.00     0.034 A 
HETATM   17  C15 UNL     1      21.488  -0.149  52.932  1.00  0.00     0.040 A 
HETATM   18  C12 UNL     1      18.708  -0.623  52.646  1.00  0.00     0.026 A 
HETATM   19  C13 UNL     1      19.383   0.164  51.734  1.00  0.00     0.035 A 
HETATM   20 CL1  UNL     1      18.458   0.836  50.425  1.00  0.00    -0.084 Cl
HETATM   21  C14 UNL     1      20.735   0.373  51.903  1.00  0.00     0.041 A 
ENDBRANCH   9  11
ENDBRANCH   8   9
ENDBRANCH   7   8
ENDBRANCH   4   6
TORSDOF 4
ENDMDL
MODEL 4
REMARK VINA RESULT:      -7.0      3.519      5.977
REMARK  4 active torsions:
REMARK  status: ('A' for Active; 'I' for Inactive)
REMARK    1  A    between atoms: C4_4  and  C5_6 
REMARK    2  A    between atoms: C6_7  and  C7_8 
REMARK    3  A    between atoms: C7_8  and  N1_9 
REMARK    4  A    between atoms: N1_9  and  C8_10 
ROOT
HETATM    1  C1  UNL     1      22.171   6.945  50.819  1.00  0.00     0.017 C 
HETATM    2  C2  UNL     1      23.385   6.974  50.652  1.00  0.00    -0.086 C 
HETATM    3  C3  UNL     1      24.804   6.994  50.444  1.00  0.00     0.105 C 
HETATM    4  C4  UNL     1      25.249   6.136  49.540  1.00  0.00     0.124 C 
HETATM    5  F1  UNL     1      23.957   5.763  49.385  1.00  0.00    -0.206 F 
ENDROOT
BRANCH   4   6
HETATM    6  C5  UNL     1      26.585   5.866  49.064  1.00  0.00     0.040 C 
HETATM    7  C6  UNL     1      27.185   4.702  48.989  1.00  0.00    -0.004 C 
BRANCH   7   8
HETATM    8  C7  UNL     1      26.485   3.470  49.422  1.00  0.00     0.148 C 
BRANCH   8   9
HETATM    9  N1  UNL     1      26.687   3.312  50.850  1.00  0.00    -0.371 N 
HETATM   10  H7  UNL     1      27.593   3.602  51.268  1.00  0.00     0.161 HD
BRANCH   9  11
HETATM   11  C8  UNL     1      25.594   2.756  51.585  1.00  0.00     0.137 A 
HETATM   12  N2  UNL     1      24.386   3.335  51.607  1.00  0.00    -0.224 NA
HETATM   13  C9  UNL     1      23.347   2.831  52.290  1.00  0.00     0.235 A 
HETATM   14  N3  UNL     1      23.440   1.682  53.021  1.00  0.00    -0.241 NA
HETATM   15  C10 UNL     1      24.632   1.050  53.041  1.00  0.00     0.072 A 
HETATM   16  C11 UNL     1      24.766  -0.116  53.769  1.00  0.00     0.034 A 
HETATM   17  C15 UNL     1      25.667   1.608  52.323  1.00  0.00     0.040 A 
HETATM   18  C12 UNL     1      25.979  -0.787  53.808  1.00  0.00     0.026 A 
HETATM   19  C13 UNL     1      27.039  -0.258  53.100  1.00  0.00     0.035 A 
HETATM   20 CL1  UNL     1      28.548  -1.118  53.166  1.00  0.00    -0.084 Cl
HETATM   21  C14 UNL     1      26.853   0.909  52.389  1.00  0.00     0.041 A 
ENDBRANCH   9  11
ENDBRANCH   8   9
ENDBRANCH   7   8
ENDBRANCH   4   6
TORSDOF 4
ENDMDL
MODEL 5
REMARK VINA RESULT:      -6.9      3.193      5.554
REMARK  4 active torsions:
REMARK  status: ('A' for Active; 'I' for Inactive)
REMARK    1  A    between atoms: C4_4  and  C5_6 
REMARK    2  A    between atoms: C6_7  and  C7_8 
REMARK    3  A    between atoms: C7_8  and  N1_9 
REMARK    4  A    between atoms: N1_9  and  C8_10 
ROOT
HETATM    1  C1  UNL     1      28.463   5.290  48.411  1.00  0.00     0.017 C 
HETATM    2  C2  UNL     1      27.306   5.646  48.607  1.00  0.00    -0.086 C 
HETATM    3  C3  UNL     1      25.947   6.045  48.838  1.00  0.00     0.105 C 
HETATM    4  C4  UNL     1      25.101   5.049  49.046  1.00  0.00     0.124 C 
HETATM    5  F1  UNL     1      26.164   4.226  48.892  1.00  0.00    -0.206 F 
ENDROOT
BRANCH   4   6
HETATM    6  C5  UNL     1      23.681   5.050  49.309  1.00  0.00     0.040 C 
HETATM    7  C6  UNL     1      22.931   4.027  49.640  1.00  0.00    -0.004 C 
BRANCH   7   8
HETATM    8  C7  UNL     1      23.526   2.678  49.785  1.00  0.00     0.148 C 
BRANCH   8   9
HETATM    9  N1  UNL     1      22.693   1.911  50.692  1.00  0.00    -0.371 N 
HETATM   10  H7  UNL     1      21.664   1.907  50.553  1.00  0.00     0.161 HD
BRANCH   9  11
HETATM   11  C8  UNL     1      23.375   1.203  51.731  1.00  0.00     0.137 A 
HETATM   12  N2  UNL     1      24.702   1.283  51.891  1.00  0.00    -0.224 NA
HETATM   13  C9  UNL     1      25.362   0.629  52.858  1.00  0.00     0.235 A 
HETATM   14  N3  UNL     1      24.729  -0.177  53.760  1.00  0.00    -0.241 NA
HETATM   15  C10 UNL     1      23.390  -0.301  53.653  1.00  0.00     0.072 A 
HETATM   16  C11 UNL     1      22.713  -1.107  54.547  1.00  0.00     0.034 A 
HETATM   17  C15 UNL     1      22.759   0.392  52.643  1.00  0.00     0.040 A 
HETATM   18  C12 UNL     1      21.337  -1.254  54.460  1.00  0.00     0.026 A 
HETATM   19  C13 UNL     1      20.670  -0.574  53.461  1.00  0.00     0.035 A 
HETATM   20 CL1  UNL     1      18.946  -0.775  53.375  1.00  0.00    -0.084 Cl
HETATM   21  C14 UNL     1      21.393   0.218  52.594  1.00  0.00     0.041 A 
ENDBRANCH   9  11
ENDBRANCH   8   9
ENDBRANCH   7   8
ENDBRANCH   4   6
TORSDOF 4
ENDMDL
MODEL 6
REMARK VINA RESULT:      -6.9      3.390      6.107
REMARK  4 active torsions:
REMARK  status: ('A' for Active; 'I' for Inactive)
REMARK    1  A    between atoms: C4_4  and  C5_6 
REMARK    2  A    between atoms: C6_7  and  C7_8 
REMARK    3  A    between atoms: C7_8  and  N1_9 
REMARK    4  A    between atoms: N1_9  and  C8_10 
ROOT
HETATM    1  C1  UNL     1      22.750   7.634  50.513  1.00  0.00     0.017 C 
HETATM    2  C2  UNL     1      23.932   7.338  50.378  1.00  0.00    -0.086 C 
HETATM    3  C3  UNL     1      25.311   6.979  50.208  1.00  0.00     0.105 C 
HETATM    4  C4  UNL     1      25.530   5.997  49.349  1.00  0.00     0.124 C 
HETATM    5  F1  UNL     1      24.188   5.967  49.173  1.00  0.00    -0.206 F 
ENDROOT
BRANCH   4   6
HETATM    6  C5  UNL     1      26.757   5.367  48.920  1.00  0.00     0.040 C 
HETATM    7  C6  UNL     1      27.124   4.123  49.112  1.00  0.00    -0.004 C 
BRANCH   7   8
HETATM    8  C7  UNL     1      26.240   3.186  49.843  1.00  0.00     0.148 C 
BRANCH   8   9
HETATM    9  N1  UNL     1      26.327   3.492  51.258  1.00  0.00    -0.371 N 
HETATM   10  H7  UNL     1      26.102   4.453  51.582  1.00  0.00     0.161 HD
BRANCH   9  11
HETATM   11  C8  UNL     1      26.726   2.419  52.115  1.00  0.00     0.137 A 
HETATM   12  N2  UNL     1      27.993   2.274  52.527  1.00  0.00    -0.224 NA
HETATM   13  C9  UNL     1      28.389   1.275  53.331  1.00  0.00     0.235 A 
HETATM   14  N3  UNL     1      27.528   0.322  53.793  1.00  0.00    -0.241 NA
HETATM   15  C10 UNL     1      26.237   0.411  53.412  1.00  0.00     0.072 A 
HETATM   16  C11 UNL     1      25.335  -0.535  53.859  1.00  0.00     0.034 A 
HETATM   17  C15 UNL     1      25.880   1.455  52.587  1.00  0.00     0.040 A 
HETATM   18  C12 UNL     1      24.002  -0.469  53.484  1.00  0.00     0.026 A 
HETATM   19  C13 UNL     1      23.607   0.564  52.658  1.00  0.00     0.035 A 
HETATM   20 CL1  UNL     1      21.931   0.623  52.203  1.00  0.00    -0.084 Cl
HETATM   21  C14 UNL     1      24.547   1.482  52.240  1.00  0.00     0.041 A 
ENDBRANCH   9  11
ENDBRANCH   8   9
ENDBRANCH   7   8
ENDBRANCH   4   6
TORSDOF 4
ENDMDL
MODEL 7
REMARK VINA RESULT:      -6.7      2.225      3.287
REMARK  4 active torsions:
REMARK  status: ('A' for Active; 'I' for Inactive)
REMARK    1  A    between atoms: C4_4  and  C5_6 
REMARK    2  A    between atoms: C6_7  and  C7_8 
REMARK    3  A    between atoms: C7_8  and  N1_9 
REMARK    4  A    between atoms: N1_9  and  C8_10 
ROOT
HETATM    1  C1  UNL     1      27.034  -2.332  52.346  1.00  0.00     0.017 C 
HETATM    2  C2  UNL     1      26.864  -1.310  53.001  1.00  0.00    -0.086 C 
HETATM    3  C3  UNL     1      26.657  -0.106  53.754  1.00  0.00     0.105 C 
HETATM    4  C4  UNL     1      26.051   0.868  53.094  1.00  0.00     0.124 C 
HETATM    5  F1  UNL     1      26.018   0.017  52.042  1.00  0.00    -0.206 F 
ENDROOT
BRANCH   4   6
HETATM    6  C5  UNL     1      25.676   2.201  53.502  1.00  0.00     0.040 C 
HETATM    7  C6  UNL     1      24.616   2.879  53.135  1.00  0.00    -0.004 C 
BRANCH   7   8
HETATM    8  C7  UNL     1      23.636   2.286  52.195  1.00  0.00     0.148 C 
BRANCH   8   9
HETATM    9  N1  UNL     1      22.329   2.839  52.495  1.00  0.00    -0.371 N 
HETATM   10  H7  UNL     1      22.250   3.845  52.742  1.00  0.00     0.161 HD
BRANCH   9  11
HETATM   11  C8  UNL     1      21.227   1.931  52.423  1.00  0.00     0.137 A 
HETATM   12  N2  UNL     1      20.135   2.198  51.695  1.00  0.00    -0.224 NA
HETATM   13  C9  UNL     1      19.089   1.361  51.613  1.00  0.00     0.235 A 
HETATM   14  N3  UNL     1      19.055   0.165  52.271  1.00  0.00    -0.241 NA
HETATM   15  C10 UNL     1      20.126  -0.163  53.024  1.00  0.00     0.072 A 
HETATM   16  C11 UNL     1      20.130  -1.364  53.705  1.00  0.00     0.034 A 
HETATM   17  C15 UNL     1      21.174   0.730  53.074  1.00  0.00     0.040 A 
HETATM   18  C12 UNL     1      21.216  -1.727  54.486  1.00  0.00     0.026 A 
HETATM   19  C13 UNL     1      22.286  -0.858  54.561  1.00  0.00     0.035 A 
HETATM   20 CL1  UNL     1      23.634  -1.337  55.547  1.00  0.00    -0.084 Cl
HETATM   21  C14 UNL     1      22.232   0.329  53.862  1.00  0.00     0.041 A 
ENDBRANCH   9  11
ENDBRANCH   8   9
ENDBRANCH   7   8
ENDBRANCH   4   6
TORSDOF 4
ENDMDL
MODEL 8
REMARK VINA RESULT:      -6.7      9.648     11.617
REMARK  4 active torsions:
REMARK  status: ('A' for Active; 'I' for Inactive)
REMARK    1  A    between atoms: C4_4  and  C5_6 
REMARK    2  A    between atoms: C6_7  and  C7_8 
REMARK    3  A    between atoms: C7_8  and  N1_9 
REMARK    4  A    between atoms: N1_9  and  C8_10 
ROOT
HETATM    1  C1  UNL     1      31.509   7.612  44.529  1.00  0.00     0.017 C 
HETATM    2  C2  UNL     1      32.602   7.077  44.672  1.00  0.00    -0.086 C 
HETATM    3  C3  UNL     1      33.874   6.434  44.843  1.00  0.00     0.105 C 
HETATM    4  C4  UNL     1      33.818   5.126  45.030  1.00  0.00     0.124 C 
HETATM    5  F1  UNL     1      32.474   5.256  44.930  1.00  0.00    -0.206 F 
ENDROOT
BRANCH   4   6
HETATM    6  C5  UNL     1      34.863   4.150  45.235  1.00  0.00     0.040 C 
HETATM    7  C6  UNL     1      34.940   3.254  46.189  1.00  0.00    -0.004 C 
BRANCH   7   8
HETATM    8  C7  UNL     1      33.878   3.160  47.217  1.00  0.00     0.148 C 
BRANCH   8   9
HETATM    9  N1  UNL     1      34.372   3.771  48.436  1.00  0.00    -0.371 N 
HETATM   10  H7  UNL     1      34.682   3.161  49.218  1.00  0.00     0.161 HD
BRANCH   9  11
HETATM   11  C8  UNL     1      34.392   5.201  48.464  1.00  0.00     0.137 A 
HETATM   12  N2  UNL     1      35.536   5.892  48.554  1.00  0.00    -0.224 NA
HETATM   13  C9  UNL     1      35.578   7.233  48.581  1.00  0.00     0.235 A 
HETATM   14  N3  UNL     1      34.452   8.002  48.521  1.00  0.00    -0.241 NA
HETATM   15  C10 UNL     1      33.266   7.365  48.430  1.00  0.00     0.072 A 
HETATM   16  C11 UNL     1      32.104   8.109  48.367  1.00  0.00     0.034 A 
HETATM   17  C15 UNL     1      33.276   5.988  48.405  1.00  0.00     0.040 A 
HETATM   18  C12 UNL     1      30.871   7.482  48.274  1.00  0.00     0.026 A 
HETATM   19  C13 UNL     1      30.841   6.102  48.245  1.00  0.00     0.035 A 
HETATM   20 CL1  UNL     1      29.283   5.341  48.128  1.00  0.00    -0.084 Cl
HETATM   21  C14 UNL     1      32.030   5.407  48.312  1.00  0.00     0.041 A 
ENDBRANCH   9  11
ENDBRANCH   8   9
ENDBRANCH   7   8
ENDBRANCH   4   6
TORSDOF 4
ENDMDL
MODEL 9
REMARK VINA RESULT:      -6.7      2.669      4.270
REMARK  4 active torsions:
REMARK  status: ('A' for Active; 'I' for Inactive)
REMARK    1  A    between atoms: C4_4  and  C5_6 
REMARK    2  A    between atoms: C6_7  and  C7_8 
REMARK    3  A    between atoms: C7_8  and  N1_9 
REMARK    4  A    between atoms: N1_9  and  C8_10 
ROOT
HETATM    1  C1  UNL     1      20.834  -1.270  54.128  1.00  0.00     0.017 C 
HETATM    2  C2  UNL     1      21.929  -1.269  54.680  1.00  0.00    -0.086 C 
HETATM    3  C3  UNL     1      23.218  -1.263  55.311  1.00  0.00     0.105 C 
HETATM    4  C4  UNL     1      24.215  -0.860  54.540  1.00  0.00     0.124 C 
HETATM    5  F1  UNL     1      23.285  -0.701  53.568  1.00  0.00    -0.206 F 
ENDROOT
BRANCH   4   6
HETATM    6  C5  UNL     1      25.627  -0.721  54.809  1.00  0.00     0.040 C 
HETATM    7  C6  UNL     1      26.544  -0.225  54.015  1.00  0.00    -0.004 C 
BRANCH   7   8
HETATM    8  C7  UNL     1      26.180   0.273  52.668  1.00  0.00     0.148 C 
BRANCH   8   9
HETATM    9  N1  UNL     1      25.966   1.705  52.756  1.00  0.00    -0.371 N 
HETATM   10  H7  UNL     1      25.952   2.157  53.691  1.00  0.00     0.161 HD
BRANCH   9  11
HETATM   11  C8  UNL     1      25.787   2.395  51.517  1.00  0.00     0.137 A 
HETATM   12  N2  UNL     1      26.769   3.114  50.957  1.00  0.00    -0.224 NA
HETATM   13  C9  UNL     1      26.623   3.769  49.796  1.00  0.00     0.235 A 
HETATM   14  N3  UNL     1      25.454   3.757  49.090  1.00  0.00    -0.241 NA
HETATM   15  C10 UNL     1      24.424   3.051  49.602  1.00  0.00     0.072 A 
HETATM   16  C11 UNL     1      23.225   3.014  48.917  1.00  0.00     0.034 A 
HETATM   17  C15 UNL     1      24.625   2.395  50.797  1.00  0.00     0.040 A 
HETATM   18  C12 UNL     1      22.150   2.298  49.419  1.00  0.00     0.026 A 
HETATM   19  C13 UNL     1      22.314   1.627  50.615  1.00  0.00     0.035 A 
HETATM   20 CL1  UNL     1      20.950   0.737  51.222  1.00  0.00    -0.084 Cl
HETATM   21  C14 UNL     1      23.531   1.696  51.258  1.00  0.00     0.041 A 
ENDBRANCH   9  11
ENDBRANCH   8   9
ENDBRANCH   7   8
ENDBRANCH   4   6
TORSDOF 4
ENDMDL
