MODEL 1
REMARK VINA RESULT:      -9.9      0.000      0.000
REMARK  2 active torsions:
REMARK  status: ('A' for Active; 'I' for Inactive)
REMARK       I    between atoms: N2_16  and  C13_17 
REMARK       I    between atoms: C13_17  and  N3_19 
REMARK    1  A    between atoms: N3_19  and  C14_20 
REMARK    2  A    between atoms: C14_20  and  C15_21 
ROOT
HETATM    1  C1  UNL     1      21.613  -1.661  54.569  1.00  0.00     0.045 C 
HETATM    2  C2  UNL     1      22.424  -0.670  53.829  1.00  0.00    -0.059 C 
HETATM    3  C3  UNL     1      23.654  -0.277  53.721  1.00  0.00     0.035 C 
HETATM    4  C4  UNL     1      23.914   0.817  52.817  1.00  0.00     0.056 C 
HETATM    5  C5  UNL     1      25.014   1.425  52.514  1.00  0.00     0.071 A 
HETATM    6  C6  UNL     1      25.303   2.503  51.598  1.00  0.00     0.259 A 
HETATM    7  O1  UNL     1      24.591   3.085  50.760  1.00  0.00    -0.267 OA
HETATM    8  N1  UNL     1      26.644   2.956  51.678  1.00  0.00    -0.322 N 
HETATM    9  C7  UNL     1      27.281   2.161  52.674  1.00  0.00     0.046 A 
HETATM   10  C8  UNL     1      28.589   2.252  53.095  1.00  0.00     0.033 A 
HETATM   11  C9  UNL     1      28.999   1.392  54.076  1.00  0.00     0.044 A 
HETATM   12  C10 UNL     1      28.136   0.475  54.620  1.00  0.00     0.117 A 
HETATM   13  F1  UNL     1      28.594  -0.350  55.588  1.00  0.00    -0.206 F 
HETATM   14  C11 UNL     1      26.855   0.468  54.131  1.00  0.00     0.057 A 
HETATM   15  C12 UNL     1      26.310   1.267  53.153  1.00  0.00     0.012 A 
HETATM   16  N2  UNL     1      22.596   1.102  52.383  1.00  0.00    -0.290 N 
HETATM   17  C13 UNL     1      21.923   2.278  52.002  1.00  0.00     0.323 C 
HETATM   18  O2  UNL     1      20.770   2.189  51.453  1.00  0.00    -0.247 OA
HETATM   19  N3  UNL     1      22.029   3.684  51.998  1.00  0.00    -0.338 N 
HETATM   20  C20 UNL     1      21.775  -0.043  52.610  1.00  0.00     0.119 C 
HETATM   21  C21 UNL     1      20.350   0.267  52.992  1.00  0.00     0.037 C 
HETATM   22  H5  UNL     1      27.111   3.732  51.121  1.00  0.00     0.169 HD
HETATM   23  H9  UNL     1      22.944   3.951  52.494  1.00  0.00     0.164 HD
ENDROOT
BRANCH  19  24
HETATM   24  C14 UNL     1      21.115   4.658  51.498  1.00  0.00     0.163 C 
BRANCH  24  25
HETATM   25  C15 UNL     1      21.728   5.916  51.016  1.00  0.00    -0.038 A 
HETATM   26  C16 UNL     1      23.094   5.945  51.331  1.00  0.00     0.028 A 
HETATM   27  C17 UNL     1      23.848   7.066  50.959  1.00  0.00     0.116 A 
HETATM   28  N4  UNL     1      23.341   8.129  50.311  1.00  0.00    -0.273 NA
HETATM   29  C18 UNL     1      22.009   8.076  50.016  1.00  0.00     0.116 A 
HETATM   30  C19 UNL     1      21.209   7.005  50.354  1.00  0.00     0.028 A 
ENDBRANCH  24  25
ENDBRANCH  19  24
TORSDOF 2
ENDMDL
MODEL 2
REMARK VINA RESULT:      -9.6      3.041      6.723
REMARK  2 active torsions:
REMARK  status: ('A' for Active; 'I' for Inactive)
REMARK       I    between atoms: N2_16  and  C13_17 
REMARK       I    between atoms: C13_17  and  N3_19 
REMARK    1  A    between atoms: N3_19  and  C14_20 
REMARK    2  A    between atoms: C14_20  and  C15_21 
ROOT
HETATM    1  C1  UNL     1      18.958  -1.115  53.390  1.00  0.00     0.045 C 
HETATM    2  C2  UNL     1      19.993  -0.073  53.221  1.00  0.00    -0.059 C 
HETATM    3  C3  UNL     1      20.131   1.116  52.725  1.00  0.00     0.035 C 
HETATM    4  C4  UNL     1      21.445   1.708  52.804  1.00  0.00     0.056 C 
HETATM    5  C5  UNL     1      21.886   2.851  52.392  1.00  0.00     0.071 A 
HETATM    6  C6  UNL     1      23.185   3.475  52.481  1.00  0.00     0.259 A 
HETATM    7  O1  UNL     1      24.225   3.132  53.072  1.00  0.00    -0.267 OA
HETATM    8  N1  UNL     1      23.264   4.698  51.769  1.00  0.00    -0.322 N 
HETATM    9  C7  UNL     1      21.982   4.910  51.184  1.00  0.00     0.046 A 
HETATM   10  C8  UNL     1      21.595   5.971  50.396  1.00  0.00     0.033 A 
HETATM   11  C9  UNL     1      20.311   5.976  49.927  1.00  0.00     0.044 A 
HETATM   12  C10 UNL     1      19.442   4.959  50.231  1.00  0.00     0.117 A 
HETATM   13  F1  UNL     1      18.184   5.013  49.740  1.00  0.00    -0.206 F 
HETATM   14  C11 UNL     1      19.927   3.950  51.022  1.00  0.00     0.057 A 
HETATM   15  C12 UNL     1      21.186   3.817  51.561  1.00  0.00     0.012 A 
HETATM   16  N2  UNL     1      22.161   0.648  53.412  1.00  0.00    -0.290 N 
HETATM   17  C13 UNL     1      23.486   0.183  53.319  1.00  0.00     0.323 C 
HETATM   18  O2  UNL     1      23.903  -0.688  54.161  1.00  0.00    -0.247 OA
HETATM   19  N3  UNL     1      24.672   0.304  52.566  1.00  0.00    -0.338 N 
HETATM   20  C20 UNL     1      21.238  -0.216  54.074  1.00  0.00     0.119 C 
HETATM   21  C21 UNL     1      21.612  -1.676  54.050  1.00  0.00     0.037 C 
HETATM   22  H5  UNL     1      24.098   5.350  51.670  1.00  0.00     0.169 HD
HETATM   23  H9  UNL     1      24.481   0.974  51.749  1.00  0.00     0.164 HD
ENDROOT
BRANCH  19  24
HETATM   24  C14 UNL     1      25.929  -0.345  52.748  1.00  0.00     0.163 C 
BRANCH  24  25
HETATM   25  C15 UNL     1      27.022   0.517  53.251  1.00  0.00    -0.038 A 
HETATM   26  C16 UNL     1      27.729  -0.136  54.270  1.00  0.00     0.028 A 
HETATM   27  C17 UNL     1      28.803   0.528  54.877  1.00  0.00     0.116 A 
HETATM   28  N4  UNL     1      29.205   1.766  54.543  1.00  0.00    -0.273 NA
HETATM   29  C18 UNL     1      28.500   2.380  53.548  1.00  0.00     0.116 A 
HETATM   30  C19 UNL     1      27.433   1.785  52.908  1.00  0.00     0.028 A 
ENDBRANCH  24  25
ENDBRANCH  19  24
TORSDOF 2
ENDMDL
MODEL 3
REMARK VINA RESULT:      -9.3      2.915      6.255
REMARK  2 active torsions:
REMARK  status: ('A' for Active; 'I' for Inactive)
REMARK       I    between atoms: N2_16  and  C13_17 
REMARK       I    between atoms: C13_17  and  N3_19 
REMARK    1  A    between atoms: N3_19  and  C14_20 
REMARK    2  A    between atoms: C14_20  and  C15_21 
ROOT
HETATM    1  C1  UNL     1      28.373   0.936  53.460  1.00  0.00     0.045 C 
HETATM    2  C2  UNL     1      27.118   1.194  52.721  1.00  0.00    -0.059 C 
HETATM    3  C3  UNL     1      26.635   2.017  51.845  1.00  0.00     0.035 C 
HETATM    4  C4  UNL     1      25.256   1.827  51.462  1.00  0.00     0.056 C 
HETATM    5  C5  UNL     1      24.506   2.484  50.639  1.00  0.00     0.071 A 
HETATM    6  C6  UNL     1      23.137   2.300  50.222  1.00  0.00     0.259 A 
HETATM    7  O1  UNL     1      22.319   1.393  50.457  1.00  0.00    -0.267 OA
HETATM    8  N1  UNL     1      22.665   3.345  49.388  1.00  0.00    -0.322 N 
HETATM    9  C7  UNL     1      23.746   4.261  49.236  1.00  0.00     0.046 A 
HETATM   10  C8  UNL     1      23.743   5.434  48.513  1.00  0.00     0.033 A 
HETATM   11  C9  UNL     1      24.892   6.174  48.504  1.00  0.00     0.044 A 
HETATM   12  C10 UNL     1      26.006   5.762  49.192  1.00  0.00     0.117 A 
HETATM   13  F1  UNL     1      27.115   6.533  49.151  1.00  0.00    -0.206 F 
HETATM   14  C11 UNL     1      25.903   4.581  49.880  1.00  0.00     0.057 A 
HETATM   15  C12 UNL     1      24.819   3.740  49.975  1.00  0.00     0.012 A 
HETATM   16  N2  UNL     1      24.911   0.738  52.300  1.00  0.00    -0.290 N 
HETATM   17  C13 UNL     1      23.728   0.340  52.950  1.00  0.00     0.323 C 
HETATM   18  O2  UNL     1      23.668  -0.823  53.482  1.00  0.00    -0.247 OA
HETATM   19  N3  UNL     1      22.432   0.776  53.296  1.00  0.00    -0.338 N 
HETATM   20  C20 UNL     1      26.104   0.067  52.704  1.00  0.00     0.119 C 
HETATM   21  C21 UNL     1      26.066  -0.501  54.099  1.00  0.00     0.037 C 
HETATM   22  H5  UNL     1      21.702   3.455  48.950  1.00  0.00     0.169 HD
HETATM   23  H9  UNL     1      22.324   1.793  52.969  1.00  0.00     0.164 HD
ENDROOT
BRANCH  19  24
HETATM   24  C14 UNL     1      21.403   0.083  53.999  1.00  0.00     0.163 C 
BRANCH  24  25
HETATM   25  C15 UNL     1      20.130  -0.081  53.261  1.00  0.00    -0.038 A 
HETATM   26  C16 UNL     1      19.423  -1.189  53.749  1.00  0.00     0.028 A 
HETATM   27  C17 UNL     1      18.189  -1.510  53.168  1.00  0.00     0.116 A 
HETATM   28  N4  UNL     1      17.632  -0.816  52.161  1.00  0.00    -0.273 NA
HETATM   29  C18 UNL     1      18.340   0.259  51.705  1.00  0.00     0.116 A 
HETATM   30  C19 UNL     1      19.560   0.630  52.231  1.00  0.00     0.028 A 
ENDBRANCH  24  25
ENDBRANCH  19  24
TORSDOF 2
ENDMDL
MODEL 4
REMARK VINA RESULT:      -9.3      3.008      4.238
REMARK  2 active torsions:
REMARK  status: ('A' for Active; 'I' for Inactive)
REMARK       I    between atoms: N2_16  and  C13_17 
REMARK       I    between atoms: C13_17  and  N3_19 
REMARK    1  A    between atoms: N3_19  and  C14_20 
REMARK    2  A    between atoms: C14_20  and  C15_21 
ROOT
HETATM    1  C1  UNL     1      20.507   1.588  49.817  1.00  0.00     0.045 C 
HETATM    2  C2  UNL     1      21.927   1.868  50.122  1.00  0.00    -0.059 C 
HETATM    3  C3  UNL     1      22.867   1.470  50.920  1.00  0.00     0.035 C 
HETATM    4  C4  UNL     1      24.141   2.140  50.813  1.00  0.00     0.056 C 
HETATM    5  C5  UNL     1      25.243   1.977  51.470  1.00  0.00     0.071 A 
HETATM    6  C6  UNL     1      26.534   2.615  51.366  1.00  0.00     0.259 A 
HETATM    7  O1  UNL     1      26.985   3.433  50.544  1.00  0.00    -0.267 OA
HETATM    8  N1  UNL     1      27.434   2.217  52.386  1.00  0.00    -0.322 N 
HETATM    9  C7  UNL     1      26.733   1.281  53.202  1.00  0.00     0.046 A 
HETATM   10  C8  UNL     1      27.213   0.634  54.319  1.00  0.00     0.033 A 
HETATM   11  C9  UNL     1      26.367  -0.224  54.964  1.00  0.00     0.044 A 
HETATM   12  C10 UNL     1      25.087  -0.430  54.514  1.00  0.00     0.117 A 
HETATM   13  F1  UNL     1      24.293  -1.289  55.191  1.00  0.00    -0.206 F 
HETATM   14  C11 UNL     1      24.710   0.264  53.394  1.00  0.00     0.057 A 
HETATM   15  C12 UNL     1      25.450   1.151  52.649  1.00  0.00     0.012 A 
HETATM   16  N2  UNL     1      23.838   3.097  49.814  1.00  0.00    -0.290 N 
HETATM   17  C13 UNL     1      24.270   4.412  49.555  1.00  0.00     0.323 C 
HETATM   18  O2  UNL     1      23.966   4.961  48.438  1.00  0.00    -0.247 OA
HETATM   19  N3  UNL     1      24.980   5.494  50.113  1.00  0.00    -0.338 N 
HETATM   20  C20 UNL     1      22.697   2.656  49.080  1.00  0.00     0.119 C 
HETATM   21  C21 UNL     1      21.783   3.760  48.612  1.00  0.00     0.037 C 
HETATM   22  H5  UNL     1      28.437   2.535  52.541  1.00  0.00     0.169 HD
HETATM   23  H9  UNL     1      25.269   5.223  51.112  1.00  0.00     0.164 HD
ENDROOT
BRANCH  19  24
HETATM   24  C14 UNL     1      25.265   6.774  49.552  1.00  0.00     0.163 C 
BRANCH  24  25
HETATM   25  C15 UNL     1      26.659   6.967  49.090  1.00  0.00    -0.038 A 
HETATM   26  C16 UNL     1      27.103   8.258  49.410  1.00  0.00     0.028 A 
HETATM   27  C17 UNL     1      28.403   8.632  49.045  1.00  0.00     0.116 A 
HETATM   28  N4  UNL     1      29.263   7.825  48.401  1.00  0.00    -0.273 NA
HETATM   29  C18 UNL     1      28.806   6.574  48.102  1.00  0.00     0.116 A 
HETATM   30  C19 UNL     1      27.538   6.141  48.431  1.00  0.00     0.028 A 
ENDBRANCH  24  25
ENDBRANCH  19  24
TORSDOF 2
ENDMDL
MODEL 5
REMARK VINA RESULT:      -9.0      3.024      6.678
REMARK  2 active torsions:
REMARK  status: ('A' for Active; 'I' for Inactive)
REMARK       I    between atoms: N2_16  and  C13_17 
REMARK       I    between atoms: C13_17  and  N3_19 
REMARK    1  A    between atoms: N3_19  and  C14_20 
REMARK    2  A    between atoms: C14_20  and  C15_21 
ROOT
HETATM    1  C1  UNL     1      18.358   1.158  51.441  1.00  0.00     0.045 C 
HETATM    2  C2  UNL     1      19.604   1.876  51.786  1.00  0.00    -0.059 C 
HETATM    3  C3  UNL     1      20.171   3.025  51.595  1.00  0.00     0.035 C 
HETATM    4  C4  UNL     1      21.484   3.208  52.165  1.00  0.00     0.056 C 
HETATM    5  C5  UNL     1      22.291   4.218  52.132  1.00  0.00     0.071 A 
HETATM    6  C6  UNL     1      23.595   4.434  52.712  1.00  0.00     0.259 A 
HETATM    7  O1  UNL     1      24.271   3.746  53.497  1.00  0.00    -0.267 OA
HETATM    8  N1  UNL     1      24.187   5.657  52.309  1.00  0.00    -0.322 N 
HETATM    9  C7  UNL     1      23.256   6.288  51.433  1.00  0.00     0.046 A 
HETATM   10  C8  UNL     1      23.410   7.498  50.793  1.00  0.00     0.033 A 
HETATM   11  C9  UNL     1      22.391   7.920  49.985  1.00  0.00     0.044 A 
HETATM   12  C10 UNL     1      21.258   7.163  49.819  1.00  0.00     0.117 A 
HETATM   13  F1  UNL     1      20.283   7.627  49.007  1.00  0.00    -0.206 F 
HETATM   14  C11 UNL     1      21.207   5.975  50.501  1.00  0.00     0.057 A 
HETATM   15  C12 UNL     1      22.149   5.431  51.342  1.00  0.00     0.012 A 
HETATM   16  N2  UNL     1      21.692   1.927  52.732  1.00  0.00    -0.290 N 
HETATM   17  C13 UNL     1      22.827   1.118  52.934  1.00  0.00     0.323 C 
HETATM   18  O2  UNL     1      22.727   0.075  53.672  1.00  0.00    -0.247 OA
HETATM   19  N3  UNL     1      24.188   0.983  52.594  1.00  0.00    -0.338 N 
HETATM   20  C20 UNL     1      20.428   1.290  52.916  1.00  0.00     0.119 C 
HETATM   21  C21 UNL     1      20.438  -0.204  52.712  1.00  0.00     0.037 C 
HETATM   22  H5  UNL     1      25.134   6.053  52.585  1.00  0.00     0.169 HD
HETATM   23  H9  UNL     1      24.439   1.768  51.905  1.00  0.00     0.164 HD
ENDROOT
BRANCH  19  24
HETATM   24  C14 UNL     1      25.126  -0.012  52.998  1.00  0.00     0.163 C 
BRANCH  24  25
HETATM   25  C15 UNL     1      26.409   0.503  53.529  1.00  0.00    -0.038 A 
HETATM   26  C16 UNL     1      26.784   1.671  52.851  1.00  0.00     0.028 A 
HETATM   27  C17 UNL     1      27.980   2.305  53.212  1.00  0.00     0.116 A 
HETATM   28  N4  UNL     1      28.802   1.861  54.178  1.00  0.00    -0.273 NA
HETATM   29  C18 UNL     1      28.413   0.722  54.823  1.00  0.00     0.116 A 
HETATM   30  C19 UNL     1      27.250   0.048  54.518  1.00  0.00     0.028 A 
ENDBRANCH  24  25
ENDBRANCH  19  24
TORSDOF 2
ENDMDL
MODEL 6
REMARK VINA RESULT:      -8.9      3.247      7.617
REMARK  2 active torsions:
REMARK  status: ('A' for Active; 'I' for Inactive)
REMARK       I    between atoms: N2_16  and  C13_17 
REMARK       I    between atoms: C13_17  and  N3_19 
REMARK    1  A    between atoms: N3_19  and  C14_20 
REMARK    2  A    between atoms: C14_20  and  C15_21 
ROOT
HETATM    1  C1  UNL     1      23.606   5.262  48.603  1.00  0.00     0.045 C 
HETATM    2  C2  UNL     1      23.677   4.068  49.472  1.00  0.00    -0.059 C 
HETATM    3  C3  UNL     1      22.892   3.223  50.063  1.00  0.00     0.035 C 
HETATM    4  C4  UNL     1      23.518   2.199  50.863  1.00  0.00     0.056 C 
HETATM    5  C5  UNL     1      23.008   1.243  51.568  1.00  0.00     0.071 A 
HETATM    6  C6  UNL     1      23.612   0.193  52.355  1.00  0.00     0.259 A 
HETATM    7  O1  UNL     1      24.798  -0.153  52.494  1.00  0.00    -0.267 OA
HETATM    8  N1  UNL     1      22.665  -0.571  53.082  1.00  0.00    -0.322 N 
HETATM    9  C7  UNL     1      21.384  -0.025  52.777  1.00  0.00     0.046 A 
HETATM   10  C8  UNL     1      20.166  -0.447  53.263  1.00  0.00     0.033 A 
HETATM   11  C9  UNL     1      19.052   0.225  52.845  1.00  0.00     0.044 A 
HETATM   12  C10 UNL     1      19.145   1.282  51.974  1.00  0.00     0.117 A 
HETATM   13  F1  UNL     1      18.011   1.912  51.595  1.00  0.00    -0.206 F 
HETATM   14  C11 UNL     1      20.405   1.621  51.552  1.00  0.00     0.057 A 
HETATM   15  C12 UNL     1      21.604   1.037  51.886  1.00  0.00     0.012 A 
HETATM   16  N2  UNL     1      24.879   2.566  50.720  1.00  0.00    -0.290 N 
HETATM   17  C13 UNL     1      26.007   2.487  51.558  1.00  0.00     0.323 C 
HETATM   18  O2  UNL     1      27.167   2.717  51.067  1.00  0.00    -0.247 OA
HETATM   19  N3  UNL     1      26.407   2.237  52.887  1.00  0.00    -0.338 N 
HETATM   20  C20 UNL     1      25.022   3.371  49.551  1.00  0.00     0.119 C 
HETATM   21  C21 UNL     1      26.063   4.456  49.655  1.00  0.00     0.037 C 
HETATM   22  H5  UNL     1      22.841  -1.392  53.734  1.00  0.00     0.169 HD
HETATM   23  H9  UNL     1      25.523   2.079  53.477  1.00  0.00     0.164 HD
ENDROOT
BRANCH  19  24
HETATM   24  C14 UNL     1      27.717   2.228  53.450  1.00  0.00     0.163 C 
BRANCH  24  25
HETATM   25  C15 UNL     1      28.385   0.907  53.482  1.00  0.00    -0.038 A 
HETATM   26  C16 UNL     1      27.472  -0.109  53.165  1.00  0.00     0.028 A 
HETATM   27  C17 UNL     1      27.920  -1.436  53.150  1.00  0.00     0.116 A 
HETATM   28  N4  UNL     1      29.183  -1.805  53.423  1.00  0.00    -0.273 NA
HETATM   29  C18 UNL     1      30.052  -0.796  53.728  1.00  0.00     0.116 A 
HETATM   30  C19 UNL     1      29.678   0.530  53.762  1.00  0.00     0.028 A 
ENDBRANCH  24  25
ENDBRANCH  19  24
TORSDOF 2
ENDMDL
MODEL 7
REMARK VINA RESULT:      -8.9      2.460      5.718
REMARK  2 active torsions:
REMARK  status: ('A' for Active; 'I' for Inactive)
REMARK       I    between atoms: N2_16  and  C13_17 
REMARK       I    between atoms: C13_17  and  N3_19 
REMARK    1  A    between atoms: N3_19  and  C14_20 
REMARK    2  A    between atoms: C14_20  and  C15_21 
ROOT
HETATM    1  C1  UNL     1      23.605   6.391  51.147  1.00  0.00     0.045 C 
HETATM    2  C2  UNL     1      23.358   5.003  51.594  1.00  0.00    -0.059 C 
HETATM    3  C3  UNL     1      24.010   3.972  52.031  1.00  0.00     0.035 C 
HETATM    4  C4  UNL     1      23.240   2.784  52.310  1.00  0.00     0.056 C 
HETATM    5  C5  UNL     1      23.604   1.617  52.735  1.00  0.00     0.071 A 
HETATM    6  C6  UNL     1      22.853   0.424  53.044  1.00  0.00     0.259 A 
HETATM    7  O1  UNL     1      21.628   0.210  53.091  1.00  0.00    -0.267 OA
HETATM    8  N1  UNL     1      23.677  -0.685  53.358  1.00  0.00    -0.322 N 
HETATM    9  C7  UNL     1      25.024  -0.229  53.261  1.00  0.00     0.046 A 
HETATM   10  C8  UNL     1      26.167  -0.969  53.474  1.00  0.00     0.033 A 
HETATM   11  C9  UNL     1      27.368  -0.335  53.318  1.00  0.00     0.044 A 
HETATM   12  C10 UNL     1      27.430   0.989  52.962  1.00  0.00     0.117 A 
HETATM   13  F1  UNL     1      28.644   1.566  52.821  1.00  0.00    -0.206 F 
HETATM   14  C11 UNL     1      26.234   1.632  52.773  1.00  0.00     0.057 A 
HETATM   15  C12 UNL     1      24.962   1.124  52.895  1.00  0.00     0.012 A 
HETATM   16  N2  UNL     1      21.951   3.223  51.924  1.00  0.00    -0.290 N 
HETATM   17  C13 UNL     1      20.830   2.589  51.356  1.00  0.00     0.323 C 
HETATM   18  O2  UNL     1      19.714   3.217  51.308  1.00  0.00    -0.247 OA
HETATM   19  N3  UNL     1      20.405   1.397  50.735  1.00  0.00    -0.338 N 
HETATM   20  C20 UNL     1      21.924   4.650  51.936  1.00  0.00     0.119 C 
HETATM   21  C21 UNL     1      21.060   5.274  50.870  1.00  0.00     0.037 C 
HETATM   22  H5  UNL     1      23.382  -1.673  53.617  1.00  0.00     0.169 HD
HETATM   23  H9  UNL     1      21.258   0.752  50.633  1.00  0.00     0.164 HD
ENDROOT
BRANCH  19  24
HETATM   24  C14 UNL     1      19.113   1.042  50.248  1.00  0.00     0.163 C 
BRANCH  24  25
HETATM   25  C15 UNL     1      18.324   0.153  51.130  1.00  0.00    -0.038 A 
HETATM   26  C16 UNL     1      17.048  -0.062  50.591  1.00  0.00     0.028 A 
HETATM   27  C17 UNL     1      16.149  -0.878  51.292  1.00  0.00     0.116 A 
HETATM   28  N4  UNL     1      16.434  -1.475  52.461  1.00  0.00    -0.273 NA
HETATM   29  C18 UNL     1      17.684  -1.250  52.964  1.00  0.00     0.116 A 
HETATM   30  C19 UNL     1      18.616  -0.459  52.328  1.00  0.00     0.028 A 
ENDBRANCH  24  25
ENDBRANCH  19  24
TORSDOF 2
ENDMDL
MODEL 8
REMARK VINA RESULT:      -8.7      3.021      5.645
REMARK  2 active torsions:
REMARK  status: ('A' for Active; 'I' for Inactive)
REMARK       I    between atoms: N2_16  and  C13_17 
REMARK       I    between atoms: C13_17  and  N3_19 
REMARK    1  A    between atoms: N3_19  and  C14_20 
REMARK    2  A    between atoms: C14_20  and  C15_21 
ROOT
HETATM    1  C1  UNL     1      25.919  -1.530  53.602  1.00  0.00     0.045 C 
HETATM    2  C2  UNL     1      25.252  -0.303  53.118  1.00  0.00    -0.059 C 
HETATM    3  C3  UNL     1      24.059   0.165  52.921  1.00  0.00     0.035 C 
HETATM    4  C4  UNL     1      23.963   1.496  52.370  1.00  0.00     0.056 C 
HETATM    5  C5  UNL     1      22.933   2.212  52.056  1.00  0.00     0.071 A 
HETATM    6  C6  UNL     1      22.810   3.550  51.528  1.00  0.00     0.259 A 
HETATM    7  O1  UNL     1      23.659   4.435  51.323  1.00  0.00    -0.267 OA
HETATM    8  N1  UNL     1      21.475   3.899  51.203  1.00  0.00    -0.322 N 
HETATM    9  C7  UNL     1      20.672   2.765  51.522  1.00  0.00     0.046 A 
HETATM   10  C8  UNL     1      19.308   2.646  51.365  1.00  0.00     0.033 A 
HETATM   11  C9  UNL     1      18.732   1.461  51.729  1.00  0.00     0.044 A 
HETATM   12  C10 UNL     1      19.486   0.430  52.231  1.00  0.00     0.117 A 
HETATM   13  F1  UNL     1      18.865  -0.720  52.574  1.00  0.00    -0.206 F 
HETATM   14  C11 UNL     1      20.834   0.653  52.346  1.00  0.00     0.057 A 
HETATM   15  C12 UNL     1      21.543   1.786  52.023  1.00  0.00     0.012 A 
HETATM   16  N2  UNL     1      25.337   1.796  52.197  1.00  0.00    -0.290 N 
HETATM   17  C13 UNL     1      26.062   2.556  51.261  1.00  0.00     0.323 C 
HETATM   18  O2  UNL     1      27.296   2.814  51.487  1.00  0.00    -0.247 OA
HETATM   19  N3  UNL     1      25.954   3.214  50.019  1.00  0.00    -0.338 N 
HETATM   20  C20 UNL     1      26.107   0.947  53.047  1.00  0.00     0.119 C 
HETATM   21  C21 UNL     1      27.439   0.526  52.479  1.00  0.00     0.037 C 
HETATM   22  H5  UNL     1      21.113   4.813  50.800  1.00  0.00     0.169 HD
HETATM   23  H9  UNL     1      24.964   3.046  49.638  1.00  0.00     0.164 HD
ENDROOT
BRANCH  19  24
HETATM   24  C14 UNL     1      26.939   3.949  49.296  1.00  0.00     0.163 C 
BRANCH  24  25
HETATM   25  C15 UNL     1      26.525   5.298  48.850  1.00  0.00    -0.038 A 
HETATM   26  C16 UNL     1      27.640   6.038  48.433  1.00  0.00     0.028 A 
HETATM   27  C17 UNL     1      27.447   7.350  47.979  1.00  0.00     0.116 A 
HETATM   28  N4  UNL     1      26.247   7.952  47.915  1.00  0.00    -0.273 NA
HETATM   29  C18 UNL     1      25.178   7.210  48.326  1.00  0.00     0.116 A 
HETATM   30  C19 UNL     1      25.296   5.915  48.785  1.00  0.00     0.028 A 
ENDBRANCH  24  25
ENDBRANCH  19  24
TORSDOF 2
ENDMDL
MODEL 9
REMARK VINA RESULT:      -8.7      2.541      5.288
REMARK  2 active torsions:
REMARK  status: ('A' for Active; 'I' for Inactive)
REMARK       I    between atoms: N2_16  and  C13_17 
REMARK       I    between atoms: C13_17  and  N3_19 
REMARK    1  A    between atoms: N3_19  and  C14_20 
REMARK    2  A    between atoms: C14_20  and  C15_21 
ROOT
HETATM    1  C1  UNL     1      26.353   5.496  48.842  1.00  0.00     0.045 C 
HETATM    2  C2  UNL     1      25.678   4.519  49.723  1.00  0.00    -0.059 C 
HETATM    3  C3  UNL     1      25.962   3.649  50.640  1.00  0.00     0.035 C 
HETATM    4  C4  UNL     1      24.861   2.895  51.188  1.00  0.00     0.056 C 
HETATM    5  C5  UNL     1      24.833   1.966  52.088  1.00  0.00     0.071 A 
HETATM    6  C6  UNL     1      23.745   1.216  52.669  1.00  0.00     0.259 A 
HETATM    7  O1  UNL     1      22.512   1.322  52.545  1.00  0.00    -0.267 OA
HETATM    8  N1  UNL     1      24.183   0.187  53.540  1.00  0.00    -0.322 N 
HETATM    9  C7  UNL     1      25.607   0.244  53.551  1.00  0.00     0.046 A 
HETATM   10  C8  UNL     1      26.464  -0.573  54.255  1.00  0.00     0.033 A 
HETATM   11  C9  UNL     1      27.806  -0.351  54.116  1.00  0.00     0.044 A 
HETATM   12  C10 UNL     1      28.279   0.650  53.304  1.00  0.00     0.117 A 
HETATM   13  F1  UNL     1      29.615   0.825  53.203  1.00  0.00    -0.206 F 
HETATM   14  C11 UNL     1      27.341   1.405  52.648  1.00  0.00     0.057 A 
HETATM   15  C12 UNL     1      25.971   1.295  52.694  1.00  0.00     0.012 A 
HETATM   16  N2  UNL     1      23.794   3.409  50.412  1.00  0.00    -0.290 N 
HETATM   17  C13 UNL     1      22.595   2.864  49.914  1.00  0.00     0.323 C 
HETATM   18  O2  UNL     1      21.716   3.647  49.407  1.00  0.00    -0.247 OA
HETATM   19  N3  UNL     1      21.905   1.650  49.720  1.00  0.00    -0.338 N 
HETATM   20  C20 UNL     1      24.177   4.674  49.876  1.00  0.00     0.119 C 
HETATM   21  C21 UNL     1      23.632   4.969  48.502  1.00  0.00     0.037 C 
HETATM   22  H5  UNL     1      23.594  -0.507  54.090  1.00  0.00     0.169 HD
HETATM   23  H9  UNL     1      22.542   0.849  50.045  1.00  0.00     0.164 HD
ENDROOT
BRANCH  19  24
HETATM   24  C14 UNL     1      20.615   1.424  49.154  1.00  0.00     0.163 C 
BRANCH  24  25
HETATM   25  C15 UNL     1      19.556   1.049  50.118  1.00  0.00    -0.038 A 
HETATM   26  C16 UNL     1      18.336   1.633  49.754  1.00  0.00     0.028 A 
HETATM   27  C17 UNL     1      17.210   1.398  50.553  1.00  0.00     0.116 A 
HETATM   28  N4  UNL     1      17.223   0.637  51.661  1.00  0.00    -0.273 NA
HETATM   29  C18 UNL     1      18.424   0.079  51.994  1.00  0.00     0.116 A 
HETATM   30  C19 UNL     1      19.571   0.270  51.253  1.00  0.00     0.028 A 
ENDBRANCH  24  25
ENDBRANCH  19  24
TORSDOF 2
ENDMDL
