MODEL 1
REMARK VINA RESULT:      -8.3      0.000      0.000
REMARK  6 active torsions:
REMARK  status: ('A' for Active; 'I' for Inactive)
REMARK    1  A    between atoms: C6_11  and  N3_12 
REMARK    2  A    between atoms: N3_12  and  C7_13 
REMARK    3  A    between atoms: C7_13  and  C8_14 
REMARK    4  A    between atoms: C8_14  and  O3_15 
REMARK    5  A    between atoms: O3_15  and  C9_16 
REMARK    6  A    between atoms: C9_16  and  C10_17 
ROOT
HETATM    1  O1  UNL     1      23.885   6.293  48.205  1.00  0.00    -0.222 OA
HETATM    2  S1  UNL     1      24.900   6.583  49.116  1.00  0.00     0.181 S 
HETATM    3  O2  UNL     1      25.644   7.855  48.715  1.00  0.00    -0.222 OA
HETATM    4  C1  UNL     1      24.537   6.714  50.807  1.00  0.00     0.111 C 
HETATM    5  C2  UNL     1      23.777   5.682  51.168  1.00  0.00     0.014 C 
HETATM    6  C3  UNL     1      23.260   4.629  50.368  1.00  0.00     0.033 C 
HETATM    7  C4  UNL     1      22.678   3.548  49.974  1.00  0.00     0.075 A 
HETATM    8  N1  UNL     1      22.269   2.696  48.957  1.00  0.00    -0.243 NA
HETATM    9  C5  UNL     1      21.889   1.515  48.985  1.00  0.00     0.209 A 
HETATM   10  N2  UNL     1      21.806   0.771  50.163  1.00  0.00    -0.336 N 
HETATM   11  C6  UNL     1      22.190   1.414  51.399  1.00  0.00     0.117 A 
HETATM   12  C16 UNL     1      22.549   2.640  51.083  1.00  0.00     0.073 A 
HETATM   13  C17 UNL     1      23.547   2.986  52.180  1.00  0.00     0.123 A 
HETATM   14  C18 UNL     1      24.811   3.138  51.828  1.00  0.00     0.105 A 
HETATM   15  C19 UNL     1      25.705   3.076  50.537  1.00  0.00     0.183 C 
HETATM   16  N4  UNL     1      25.778   4.317  50.005  1.00  0.00    -0.403 N 
HETATM   17  C20 UNL     1      26.203   5.220  49.080  1.00  0.00     0.260 C 
HETATM   18  O4  UNL     1      24.478   3.311  53.221  1.00  0.00    -0.307 OA
HETATM   19  H5  UNL     1      21.471  -0.202  50.083  1.00  0.00     0.168 HD
HETATM   20  H19 UNL     1      25.978   4.914  51.018  1.00  0.00     0.154 HD
ENDROOT
BRANCH  11  21
HETATM   21  N3  UNL     1      22.102   0.789  52.625  1.00  0.00    -0.373 N 
HETATM   22  H6  UNL     1      21.751   1.413  53.371  1.00  0.00     0.161 HD
BRANCH  21  23
HETATM   23  C7  UNL     1      22.441  -0.563  52.945  1.00  0.00     0.147 C 
BRANCH  23  24
HETATM   24  C8  UNL     1      23.530  -0.540  54.016  1.00  0.00     0.187 C 
BRANCH  24  25
HETATM   25  O3  UNL     1      24.665   0.108  53.662  1.00  0.00    -0.385 OA
BRANCH  25  26
HETATM   26  C9  UNL     1      25.504  -0.581  52.829  1.00  0.00     0.206 C 
BRANCH  26  27
HETATM   27  C10 UNL     1      26.921  -0.231  53.150  1.00  0.00    -0.032 A 
HETATM   28  C11 UNL     1      27.910  -1.205  53.181  1.00  0.00     0.009 A 
HETATM   29  C12 UNL     1      29.213  -0.835  53.453  1.00  0.00     0.004 A 
HETATM   30  C13 UNL     1      29.531   0.484  53.690  1.00  0.00     0.042 A 
HETATM   31  C14 UNL     1      28.540   1.475  53.661  1.00  0.00     0.117 A 
HETATM   32  F1  UNL     1      28.824   2.802  53.888  1.00  0.00    -0.206 F 
HETATM   33  C15 UNL     1      27.243   1.086  53.388  1.00  0.00     0.051 A 
ENDBRANCH  26  27
ENDBRANCH  25  26
ENDBRANCH  24  25
ENDBRANCH  23  24
ENDBRANCH  21  23
ENDBRANCH  11  21
TORSDOF 6
ENDMDL
MODEL 2
REMARK VINA RESULT:      -8.0      1.732      2.598
REMARK  6 active torsions:
REMARK  status: ('A' for Active; 'I' for Inactive)
REMARK    1  A    between atoms: C6_11  and  N3_12 
REMARK    2  A    between atoms: N3_12  and  C7_13 
REMARK    3  A    between atoms: C7_13  and  C8_14 
REMARK    4  A    between atoms: C8_14  and  O3_15 
REMARK    5  A    between atoms: O3_15  and  C9_16 
REMARK    6  A    between atoms: C9_16  and  C10_17 
ROOT
HETATM    1  O1  UNL     1      26.805   6.646  48.119  1.00  0.00    -0.222 OA
HETATM    2  S1  UNL     1      25.710   7.490  48.299  1.00  0.00     0.181 S 
HETATM    3  O2  UNL     1      25.941   8.835  47.614  1.00  0.00    -0.222 OA
HETATM    4  C1  UNL     1      24.121   6.956  47.855  1.00  0.00     0.111 C 
HETATM    5  C2  UNL     1      23.928   5.727  48.329  1.00  0.00     0.014 C 
HETATM    6  C3  UNL     1      24.828   4.894  49.046  1.00  0.00     0.033 C 
HETATM    7  C4  UNL     1      25.342   3.922  49.718  1.00  0.00     0.075 A 
HETATM    8  N1  UNL     1      26.431   3.319  50.335  1.00  0.00    -0.243 NA
HETATM    9  C5  UNL     1      26.493   2.393  51.158  1.00  0.00     0.209 A 
HETATM   10  N2  UNL     1      25.364   1.738  51.652  1.00  0.00    -0.336 N 
HETATM   11  C6  UNL     1      24.068   2.174  51.183  1.00  0.00     0.117 A 
HETATM   12  C16 UNL     1      24.292   3.156  50.336  1.00  0.00     0.073 A 
HETATM   13  C17 UNL     1      23.017   3.982  50.444  1.00  0.00     0.123 A 
HETATM   14  C18 UNL     1      23.114   5.186  50.979  1.00  0.00     0.105 A 
HETATM   15  C19 UNL     1      24.207   6.133  51.596  1.00  0.00     0.183 C 
HETATM   16  N4  UNL     1      24.697   6.920  50.611  1.00  0.00    -0.403 N 
HETATM   17  C20 UNL     1      25.510   7.899  50.129  1.00  0.00     0.260 C 
HETATM   18  O4  UNL     1      21.810   4.751  50.540  1.00  0.00    -0.307 OA
HETATM   19  H5  UNL     1      25.521   0.974  52.328  1.00  0.00     0.168 HD
HETATM   20  H19 UNL     1      23.657   7.215  50.109  1.00  0.00     0.154 HD
ENDROOT
BRANCH  11  21
HETATM   21  N3  UNL     1      22.892   1.567  51.569  1.00  0.00    -0.373 N 
HETATM   22  H6  UNL     1      22.244   1.405  50.779  1.00  0.00     0.161 HD
BRANCH  21  23
HETATM   23  C7  UNL     1      22.500   1.173  52.887  1.00  0.00     0.147 C 
BRANCH  23  24
HETATM   24  C8  UNL     1      22.571  -0.351  52.969  1.00  0.00     0.187 C 
BRANCH  24  25
HETATM   25  O3  UNL     1      23.820  -0.858  53.093  1.00  0.00    -0.385 OA
BRANCH  25  26
HETATM   26  C9  UNL     1      24.484  -0.522  54.241  1.00  0.00     0.206 C 
BRANCH  26  27
HETATM   27  C10 UNL     1      25.958  -0.598  54.003  1.00  0.00    -0.032 A 
HETATM   28  C11 UNL     1      26.482  -1.398  52.996  1.00  0.00     0.009 A 
HETATM   29  C12 UNL     1      27.847  -1.415  52.791  1.00  0.00     0.004 A 
HETATM   30  C13 UNL     1      28.683  -0.649  53.573  1.00  0.00     0.042 A 
HETATM   31  C14 UNL     1      28.164   0.162  54.592  1.00  0.00     0.117 A 
HETATM   32  F1  UNL     1      28.970   0.944  55.387  1.00  0.00    -0.206 F 
HETATM   33  C15 UNL     1      26.796   0.166  54.782  1.00  0.00     0.051 A 
ENDBRANCH  26  27
ENDBRANCH  25  26
ENDBRANCH  24  25
ENDBRANCH  23  24
ENDBRANCH  21  23
ENDBRANCH  11  21
TORSDOF 6
ENDMDL
MODEL 3
REMARK VINA RESULT:      -8.0      2.991      5.059
REMARK  6 active torsions:
REMARK  status: ('A' for Active; 'I' for Inactive)
REMARK    1  A    between atoms: C6_11  and  N3_12 
REMARK    2  A    between atoms: N3_12  and  C7_13 
REMARK    3  A    between atoms: C7_13  and  C8_14 
REMARK    4  A    between atoms: C8_14  and  O3_15 
REMARK    5  A    between atoms: O3_15  and  C9_16 
REMARK    6  A    between atoms: C9_16  and  C10_17 
ROOT
HETATM    1  O1  UNL     1      18.448   3.379  51.975  1.00  0.00    -0.222 OA
HETATM    2  S1  UNL     1      18.343   2.408  50.979  1.00  0.00     0.181 S 
HETATM    3  O2  UNL     1      16.971   1.736  51.017  1.00  0.00    -0.222 OA
HETATM    4  C1  UNL     1      18.664   2.823  49.326  1.00  0.00     0.111 C 
HETATM    5  C2  UNL     1      19.794   3.524  49.267  1.00  0.00     0.014 C 
HETATM    6  C3  UNL     1      20.637   3.953  50.326  1.00  0.00     0.033 C 
HETATM    7  C4  UNL     1      21.613   4.454  51.003  1.00  0.00     0.075 A 
HETATM    8  N1  UNL     1      22.201   4.782  52.218  1.00  0.00    -0.243 NA
HETATM    9  C5  UNL     1      23.370   5.087  52.503  1.00  0.00     0.209 A 
HETATM   10  N2  UNL     1      24.390   5.153  51.554  1.00  0.00    -0.336 N 
HETATM   11  C6  UNL     1      24.062   4.843  50.181  1.00  0.00     0.117 A 
HETATM   12  C16 UNL     1      22.777   4.555  50.164  1.00  0.00     0.073 A 
HETATM   13  C17 UNL     1      22.667   3.610  48.976  1.00  0.00     0.123 A 
HETATM   14  C18 UNL     1      22.361   2.349  49.225  1.00  0.00     0.105 A 
HETATM   15  C19 UNL     1      22.046   1.419  50.453  1.00  0.00     0.183 C 
HETATM   16  N4  UNL     1      20.708   1.411  50.652  1.00  0.00    -0.403 N 
HETATM   17  C20 UNL     1      19.578   1.021  51.302  1.00  0.00     0.260 C 
HETATM   18  O4  UNL     1      22.565   2.728  47.848  1.00  0.00    -0.307 OA
HETATM   19  H5  UNL     1      25.329   5.423  51.890  1.00  0.00     0.168 HD
HETATM   20  H19 UNL     1      20.377   1.277  49.515  1.00  0.00     0.154 HD
ENDROOT
BRANCH  11  21
HETATM   21  N3  UNL     1      24.981   4.923  49.157  1.00  0.00    -0.373 N 
HETATM   22  H6  UNL     1      24.552   5.176  48.250  1.00  0.00     0.161 HD
BRANCH  21  23
HETATM   23  C7  UNL     1      26.391   4.693  49.224  1.00  0.00     0.147 C 
BRANCH  23  24
HETATM   24  C8  UNL     1      26.617   3.226  49.587  1.00  0.00     0.187 C 
BRANCH  24  25
HETATM   25  O3  UNL     1      27.065   3.013  50.848  1.00  0.00    -0.385 OA
BRANCH  25  26
HETATM   26  C9  UNL     1      26.379   2.073  51.567  1.00  0.00     0.206 C 
BRANCH  26  27
HETATM   27  C10 UNL     1      27.310   1.405  52.527  1.00  0.00    -0.032 A 
HETATM   28  C11 UNL     1      27.343   0.022  52.650  1.00  0.00     0.009 A 
HETATM   29  C12 UNL     1      28.239  -0.555  53.527  1.00  0.00     0.004 A 
HETATM   30  C13 UNL     1      29.093   0.226  54.273  1.00  0.00     0.042 A 
HETATM   31  C14 UNL     1      29.067   1.624  54.157  1.00  0.00     0.117 A 
HETATM   32  F1  UNL     1      29.909   2.434  54.883  1.00  0.00    -0.206 F 
HETATM   33  C15 UNL     1      28.164   2.183  53.275  1.00  0.00     0.051 A 
ENDBRANCH  26  27
ENDBRANCH  25  26
ENDBRANCH  24  25
ENDBRANCH  23  24
ENDBRANCH  21  23
ENDBRANCH  11  21
TORSDOF 6
ENDMDL
MODEL 4
REMARK VINA RESULT:      -7.8      3.021      6.292
REMARK  6 active torsions:
REMARK  status: ('A' for Active; 'I' for Inactive)
REMARK    1  A    between atoms: C6_11  and  N3_12 
REMARK    2  A    between atoms: N3_12  and  C7_13 
REMARK    3  A    between atoms: C7_13  and  C8_14 
REMARK    4  A    between atoms: C8_14  and  O3_15 
REMARK    5  A    between atoms: O3_15  and  C9_16 
REMARK    6  A    between atoms: C9_16  and  C10_17 
ROOT
HETATM    1  O1  UNL     1      26.616  -0.782  54.774  1.00  0.00    -0.222 OA
HETATM    2  S1  UNL     1      27.289   0.131  53.964  1.00  0.00     0.181 S 
HETATM    3  O2  UNL     1      28.795   0.070  54.211  1.00  0.00    -0.222 OA
HETATM    4  C1  UNL     1      27.052   0.106  52.246  1.00  0.00     0.111 C 
HETATM    5  C2  UNL     1      25.748   0.030  51.990  1.00  0.00     0.014 C 
HETATM    6  C3  UNL     1      24.662  -0.070  52.899  1.00  0.00     0.033 C 
HETATM    7  C4  UNL     1      23.480  -0.126  53.412  1.00  0.00     0.075 A 
HETATM    8  N1  UNL     1      22.642  -0.275  54.509  1.00  0.00    -0.243 NA
HETATM    9  C5  UNL     1      21.436  -0.025  54.654  1.00  0.00     0.209 A 
HETATM   10  N2  UNL     1      20.641   0.504  53.637  1.00  0.00    -0.336 N 
HETATM   11  C6  UNL     1      21.265   0.777  52.362  1.00  0.00     0.117 A 
HETATM   12  C16 UNL     1      22.528   0.428  52.486  1.00  0.00     0.073 A 
HETATM   13  C17 UNL     1      23.223   1.338  51.482  1.00  0.00     0.123 A 
HETATM   14  C18 UNL     1      24.028   2.270  51.959  1.00  0.00     0.105 A 
HETATM   15  C19 UNL     1      24.555   2.796  53.343  1.00  0.00     0.183 C 
HETATM   16  N4  UNL     1      25.707   2.152  53.637  1.00  0.00    -0.403 N 
HETATM   17  C20 UNL     1      26.786   1.889  54.423  1.00  0.00     0.260 C 
HETATM   18  O4  UNL     1      23.871   2.190  50.527  1.00  0.00    -0.307 OA
HETATM   19  H5  UNL     1      19.646   0.671  53.854  1.00  0.00     0.168 HD
HETATM   20  H19 UNL     1      26.220   2.243  52.565  1.00  0.00     0.154 HD
ENDROOT
BRANCH  11  21
HETATM   21  N3  UNL     1      20.565   1.255  51.275  1.00  0.00    -0.373 N 
HETATM   22  H6  UNL     1      20.913   0.881  50.375  1.00  0.00     0.161 HD
BRANCH  21  23
HETATM   23  C7  UNL     1      19.470   2.175  51.273  1.00  0.00     0.147 C 
BRANCH  23  24
HETATM   24  C8  UNL     1      19.981   3.524  51.776  1.00  0.00     0.187 C 
BRANCH  24  25
HETATM   25  O3  UNL     1      20.869   4.139  50.960  1.00  0.00    -0.385 OA
BRANCH  25  26
HETATM   26  C9  UNL     1      21.672   5.073  51.557  1.00  0.00     0.206 C 
BRANCH  26  27
HETATM   27  C10 UNL     1      22.758   5.472  50.610  1.00  0.00    -0.032 A 
HETATM   28  C11 UNL     1      22.683   5.159  49.260  1.00  0.00     0.009 A 
HETATM   29  C12 UNL     1      23.694   5.572  48.415  1.00  0.00     0.004 A 
HETATM   30  C13 UNL     1      24.765   6.288  48.901  1.00  0.00     0.042 A 
HETATM   31  C14 UNL     1      24.850   6.610  50.264  1.00  0.00     0.117 A 
HETATM   32  F1  UNL     1      25.903   7.328  50.782  1.00  0.00    -0.206 F 
HETATM   33  C15 UNL     1      23.830   6.187  51.093  1.00  0.00     0.051 A 
ENDBRANCH  26  27
ENDBRANCH  25  26
ENDBRANCH  24  25
ENDBRANCH  23  24
ENDBRANCH  21  23
ENDBRANCH  11  21
TORSDOF 6
ENDMDL
MODEL 5
REMARK VINA RESULT:      -7.7      3.214      5.762
REMARK  6 active torsions:
REMARK  status: ('A' for Active; 'I' for Inactive)
REMARK    1  A    between atoms: C6_11  and  N3_12 
REMARK    2  A    between atoms: N3_12  and  C7_13 
REMARK    3  A    between atoms: C7_13  and  C8_14 
REMARK    4  A    between atoms: C8_14  and  O3_15 
REMARK    5  A    between atoms: O3_15  and  C9_16 
REMARK    6  A    between atoms: C9_16  and  C10_17 
ROOT
HETATM    1  O1  UNL     1      26.513   5.574  49.385  1.00  0.00    -0.222 OA
HETATM    2  S1  UNL     1      25.146   5.849  49.339  1.00  0.00     0.181 S 
HETATM    3  O2  UNL     1      24.872   7.112  48.525  1.00  0.00    -0.222 OA
HETATM    4  C1  UNL     1      24.036   4.635  48.790  1.00  0.00     0.111 C 
HETATM    5  C2  UNL     1      24.326   3.481  49.385  1.00  0.00     0.014 C 
HETATM    6  C3  UNL     1      25.377   3.182  50.292  1.00  0.00     0.033 C 
HETATM    7  C4  UNL     1      26.153   2.584  51.131  1.00  0.00     0.075 A 
HETATM    8  N1  UNL     1      27.287   2.570  51.933  1.00  0.00    -0.243 NA
HETATM    9  C5  UNL     1      27.619   1.820  52.864  1.00  0.00     0.209 A 
HETATM   10  N2  UNL     1      26.826   0.761  53.306  1.00  0.00    -0.336 N 
HETATM   11  C6  UNL     1      25.558   0.542  52.647  1.00  0.00     0.117 A 
HETATM   12  C16 UNL     1      25.459   1.469  51.717  1.00  0.00     0.073 A 
HETATM   13  C17 UNL     1      23.952   1.642  51.582  1.00  0.00     0.123 A 
HETATM   14  C18 UNL     1      23.433   2.791  51.974  1.00  0.00     0.105 A 
HETATM   15  C19 UNL     1      23.897   4.162  52.589  1.00  0.00     0.183 C 
HETATM   16  N4  UNL     1      24.141   5.025  51.576  1.00  0.00    -0.403 N 
HETATM   17  C20 UNL     1      24.510   6.233  51.072  1.00  0.00     0.260 C 
HETATM   18  O4  UNL     1      22.532   1.794  51.450  1.00  0.00    -0.307 OA
HETATM   19  H5  UNL     1      27.193   0.189  54.083  1.00  0.00     0.168 HD
HETATM   20  H19 UNL     1      23.167   4.794  50.930  1.00  0.00     0.154 HD
ENDROOT
BRANCH  11  21
HETATM   21  N3  UNL     1      24.718  -0.503  52.971  1.00  0.00    -0.373 N 
HETATM   22  H6  UNL     1      24.612  -1.187  52.203  1.00  0.00     0.161 HD
BRANCH  21  23
HETATM   23  C7  UNL     1      24.011  -0.712  54.196  1.00  0.00     0.147 C 
BRANCH  23  24
HETATM   24  C8  UNL     1      22.613  -1.226  53.859  1.00  0.00     0.187 C 
BRANCH  24  25
HETATM   25  O3  UNL     1      21.651  -0.274  53.811  1.00  0.00    -0.385 OA
BRANCH  25  26
HETATM   26  C9  UNL     1      20.424  -0.651  54.286  1.00  0.00     0.206 C 
BRANCH  26  27
HETATM   27  C10 UNL     1      19.417  -0.563  53.184  1.00  0.00    -0.032 A 
HETATM   28  C11 UNL     1      18.166  -1.152  53.308  1.00  0.00     0.009 A 
HETATM   29  C12 UNL     1      17.255  -1.021  52.279  1.00  0.00     0.004 A 
HETATM   30  C13 UNL     1      17.578  -0.315  51.142  1.00  0.00     0.042 A 
HETATM   31  C14 UNL     1      18.839   0.283  51.007  1.00  0.00     0.117 A 
HETATM   32  F1  UNL     1      19.193   1.000  49.886  1.00  0.00    -0.206 F 
HETATM   33  C15 UNL     1      19.738   0.141  52.046  1.00  0.00     0.051 A 
ENDBRANCH  26  27
ENDBRANCH  25  26
ENDBRANCH  24  25
ENDBRANCH  23  24
ENDBRANCH  21  23
ENDBRANCH  11  21
TORSDOF 6
ENDMDL
MODEL 6
REMARK VINA RESULT:      -7.6      2.742      5.274
REMARK  6 active torsions:
REMARK  status: ('A' for Active; 'I' for Inactive)
REMARK    1  A    between atoms: C6_11  and  N3_12 
REMARK    2  A    between atoms: N3_12  and  C7_13 
REMARK    3  A    between atoms: C7_13  and  C8_14 
REMARK    4  A    between atoms: C8_14  and  O3_15 
REMARK    5  A    between atoms: O3_15  and  C9_16 
REMARK    6  A    between atoms: C9_16  and  C10_17 
ROOT
HETATM    1  O1  UNL     1      26.345   5.545  48.582  1.00  0.00    -0.222 OA
HETATM    2  S1  UNL     1      25.162   6.273  48.709  1.00  0.00     0.181 S 
HETATM    3  O2  UNL     1      25.149   7.460  47.747  1.00  0.00    -0.222 OA
HETATM    4  C1  UNL     1      23.631   5.473  48.556  1.00  0.00     0.111 C 
HETATM    5  C2  UNL     1      23.649   4.359  49.283  1.00  0.00     0.014 C 
HETATM    6  C3  UNL     1      24.711   3.808  50.049  1.00  0.00     0.033 C 
HETATM    7  C4  UNL     1      25.408   3.069  50.843  1.00  0.00     0.075 A 
HETATM    8  N1  UNL     1      26.616   2.743  51.444  1.00  0.00    -0.243 NA
HETATM    9  C5  UNL     1      26.873   2.026  52.424  1.00  0.00     0.209 A 
HETATM   10  N2  UNL     1      25.889   1.363  53.159  1.00  0.00    -0.336 N 
HETATM   11  C6  UNL     1      24.512   1.533  52.756  1.00  0.00     0.117 A 
HETATM   12  C16 UNL     1      24.528   2.334  51.711  1.00  0.00     0.073 A 
HETATM   13  C17 UNL     1      23.164   3.007  51.790  1.00  0.00     0.123 A 
HETATM   14  C18 UNL     1      23.137   4.300  52.060  1.00  0.00     0.105 A 
HETATM   15  C19 UNL     1      24.136   5.478  52.353  1.00  0.00     0.183 C 
HETATM   16  N4  UNL     1      24.431   6.091  51.184  1.00  0.00    -0.403 N 
HETATM   17  C20 UNL     1      25.059   7.034  50.431  1.00  0.00     0.260 C 
HETATM   18  O4  UNL     1      21.875   3.631  51.862  1.00  0.00    -0.307 OA
HETATM   19  H5  UNL     1      26.205   0.784  53.953  1.00  0.00     0.168 HD
HETATM   20  H19 UNL     1      23.323   6.148  50.749  1.00  0.00     0.154 HD
ENDROOT
BRANCH  11  21
HETATM   21  N3  UNL     1      23.466   0.888  53.381  1.00  0.00    -0.373 N 
HETATM   22  H6  UNL     1      22.903   1.518  53.979  1.00  0.00     0.161 HD
BRANCH  21  23
HETATM   23  C7  UNL     1      23.112  -0.495  53.295  1.00  0.00     0.147 C 
BRANCH  23  24
HETATM   24  C8  UNL     1      21.657  -0.587  52.839  1.00  0.00     0.187 C 
BRANCH  24  25
HETATM   25  O3  UNL     1      21.440  -0.239  51.549  1.00  0.00    -0.385 OA
BRANCH  25  26
HETATM   26  C9  UNL     1      20.250   0.388  51.298  1.00  0.00     0.206 C 
BRANCH  26  27
HETATM   27  C10 UNL     1      20.364   1.185  50.038  1.00  0.00    -0.032 A 
HETATM   28  C11 UNL     1      19.385   2.102  49.679  1.00  0.00     0.009 A 
HETATM   29  C12 UNL     1      19.544   2.838  48.521  1.00  0.00     0.004 A 
HETATM   30  C13 UNL     1      20.659   2.669  47.731  1.00  0.00     0.042 A 
HETATM   31  C14 UNL     1      21.653   1.746  48.085  1.00  0.00     0.117 A 
HETATM   32  F1  UNL     1      22.782   1.556  47.321  1.00  0.00    -0.206 F 
HETATM   33  C15 UNL     1      21.477   1.018  49.245  1.00  0.00     0.051 A 
ENDBRANCH  26  27
ENDBRANCH  25  26
ENDBRANCH  24  25
ENDBRANCH  23  24
ENDBRANCH  21  23
ENDBRANCH  11  21
TORSDOF 6
ENDMDL
MODEL 7
REMARK VINA RESULT:      -7.5      2.868      4.824
REMARK  6 active torsions:
REMARK  status: ('A' for Active; 'I' for Inactive)
REMARK    1  A    between atoms: C6_11  and  N3_12 
REMARK    2  A    between atoms: N3_12  and  C7_13 
REMARK    3  A    between atoms: C7_13  and  C8_14 
REMARK    4  A    between atoms: C8_14  and  O3_15 
REMARK    5  A    between atoms: O3_15  and  C9_16 
REMARK    6  A    between atoms: C9_16  and  C10_17 
ROOT
HETATM    1  O1  UNL     1      21.821   4.419  47.034  1.00  0.00    -0.222 OA
HETATM    2  S1  UNL     1      20.763   4.618  47.921  1.00  0.00     0.181 S 
HETATM    3  O2  UNL     1      19.487   4.993  47.169  1.00  0.00    -0.222 OA
HETATM    4  C1  UNL     1      20.341   3.381  49.060  1.00  0.00     0.111 C 
HETATM    5  C2  UNL     1      21.449   2.936  49.648  1.00  0.00     0.014 C 
HETATM    6  C3  UNL     1      22.798   3.313  49.414  1.00  0.00     0.033 C 
HETATM    7  C4  UNL     1      24.080   3.431  49.492  1.00  0.00     0.075 A 
HETATM    8  N1  UNL     1      25.279   3.943  49.016  1.00  0.00    -0.243 NA
HETATM    9  C5  UNL     1      26.400   4.022  49.543  1.00  0.00     0.209 A 
HETATM   10  N2  UNL     1      26.665   3.566  50.835  1.00  0.00    -0.336 N 
HETATM   11  C6  UNL     1      25.576   2.985  51.587  1.00  0.00     0.117 A 
HETATM   12  C16 UNL     1      24.520   3.031  50.802  1.00  0.00     0.073 A 
HETATM   13  C17 UNL     1      23.370   3.098  51.799  1.00  0.00     0.123 A 
HETATM   14  C18 UNL     1      22.671   4.217  51.848  1.00  0.00     0.105 A 
HETATM   15  C19 UNL     1      22.628   5.628  51.156  1.00  0.00     0.183 C 
HETATM   16  N4  UNL     1      21.781   5.564  50.103  1.00  0.00    -0.403 N 
HETATM   17  C20 UNL     1      21.128   6.095  49.034  1.00  0.00     0.260 C 
HETATM   18  O4  UNL     1      22.291   3.151  52.742  1.00  0.00    -0.307 OA
HETATM   19  H5  UNL     1      27.632   3.670  51.182  1.00  0.00     0.168 HD
HETATM   20  H19 UNL     1      20.897   4.975  50.644  1.00  0.00     0.154 HD
ENDROOT
BRANCH  11  21
HETATM   21  N3  UNL     1      25.737   2.461  52.851  1.00  0.00    -0.373 N 
HETATM   22  H6  UNL     1      25.015   2.785  53.517  1.00  0.00     0.161 HD
BRANCH  21  23
HETATM   23  C7  UNL     1      26.758   1.569  53.307  1.00  0.00     0.147 C 
BRANCH  23  24
HETATM   24  C8  UNL     1      26.131   0.596  54.304  1.00  0.00     0.187 C 
BRANCH  24  25
HETATM   25  O3  UNL     1      25.357  -0.368  53.750  1.00  0.00    -0.385 OA
BRANCH  25  26
HETATM   26  C9  UNL     1      24.424  -0.925  54.581  1.00  0.00     0.206 C 
BRANCH  26  27
HETATM   27  C10 UNL     1      23.054  -0.627  54.061  1.00  0.00    -0.032 A 
HETATM   28  C11 UNL     1      21.976  -0.482  54.924  1.00  0.00     0.009 A 
HETATM   29  C12 UNL     1      20.734  -0.177  54.405  1.00  0.00     0.004 A 
HETATM   30  C13 UNL     1      20.561  -0.017  53.048  1.00  0.00     0.042 A 
HETATM   31  C14 UNL     1      21.643  -0.162  52.168  1.00  0.00     0.117 A 
HETATM   32  F1  UNL     1      21.507  -0.004  50.808  1.00  0.00    -0.206 F 
HETATM   33  C15 UNL     1      22.878  -0.467  52.706  1.00  0.00     0.051 A 
ENDBRANCH  26  27
ENDBRANCH  25  26
ENDBRANCH  24  25
ENDBRANCH  23  24
ENDBRANCH  21  23
ENDBRANCH  11  21
TORSDOF 6
ENDMDL
MODEL 8
REMARK VINA RESULT:      -7.5      4.169      5.716
REMARK  6 active torsions:
REMARK  status: ('A' for Active; 'I' for Inactive)
REMARK    1  A    between atoms: C6_11  and  N3_12 
REMARK    2  A    between atoms: N3_12  and  C7_13 
REMARK    3  A    between atoms: C7_13  and  C8_14 
REMARK    4  A    between atoms: C8_14  and  O3_15 
REMARK    5  A    between atoms: O3_15  and  C9_16 
REMARK    6  A    between atoms: C9_16  and  C10_17 
ROOT
HETATM    1  O1  UNL     1      16.514   0.780  49.182  1.00  0.00    -0.222 OA
HETATM    2  S1  UNL     1      16.173   0.928  50.526  1.00  0.00     0.181 S 
HETATM    3  O2  UNL     1      14.670   0.752  50.728  1.00  0.00    -0.222 OA
HETATM    4  C1  UNL     1      16.968  -0.031  51.733  1.00  0.00     0.111 C 
HETATM    5  C2  UNL     1      18.280  -0.006  51.512  1.00  0.00     0.014 C 
HETATM    6  C3  UNL     1      18.999   0.628  50.464  1.00  0.00     0.033 C 
HETATM    7  C4  UNL     1      19.941   1.087  49.713  1.00  0.00     0.075 A 
HETATM    8  N1  UNL     1      20.362   1.744  48.565  1.00  0.00    -0.243 NA
HETATM    9  C5  UNL     1      21.458   2.243  48.266  1.00  0.00     0.209 A 
HETATM   10  N2  UNL     1      22.559   2.227  49.123  1.00  0.00    -0.336 N 
HETATM   11  C6  UNL     1      22.402   1.605  50.418  1.00  0.00     0.117 A 
HETATM   12  C16 UNL     1      21.161   1.171  50.472  1.00  0.00     0.073 A 
HETATM   13  C17 UNL     1      20.864   1.202  51.965  1.00  0.00     0.123 A 
HETATM   14  C18 UNL     1      19.972   2.077  52.391  1.00  0.00     0.105 A 
HETATM   15  C19 UNL     1      19.029   3.196  51.816  1.00  0.00     0.183 C 
HETATM   16  N4  UNL     1      17.828   2.642  51.534  1.00  0.00    -0.403 N 
HETATM   17  C20 UNL     1      16.542   2.688  51.091  1.00  0.00     0.260 C 
HETATM   18  O4  UNL     1      20.593   1.223  53.373  1.00  0.00    -0.307 OA
HETATM   19  H5  UNL     1      23.430   2.663  48.779  1.00  0.00     0.168 HD
HETATM   20  H19 UNL     1      17.703   2.011  52.538  1.00  0.00     0.154 HD
ENDROOT
BRANCH  11  21
HETATM   21  N3  UNL     1      23.437   1.492  51.322  1.00  0.00    -0.373 N 
HETATM   22  H6  UNL     1      23.301   0.718  51.995  1.00  0.00     0.161 HD
BRANCH  21  23
HETATM   23  C7  UNL     1      24.610   2.305  51.419  1.00  0.00     0.147 C 
BRANCH  23  24
HETATM   24  C8  UNL     1      24.928   2.509  52.899  1.00  0.00     0.187 C 
BRANCH  24  25
HETATM   25  O3  UNL     1      25.578   1.479  53.490  1.00  0.00    -0.385 OA
BRANCH  25  26
HETATM   26  C9  UNL     1      26.873   1.729  53.855  1.00  0.00     0.206 C 
BRANCH  26  27
HETATM   27  C10 UNL     1      27.701   0.508  53.617  1.00  0.00    -0.032 A 
HETATM   28  C11 UNL     1      29.047   0.477  53.959  1.00  0.00     0.009 A 
HETATM   29  C12 UNL     1      29.769  -0.682  53.750  1.00  0.00     0.004 A 
HETATM   30  C13 UNL     1      29.165  -1.796  53.210  1.00  0.00     0.042 A 
HETATM   31  C14 UNL     1      27.807  -1.775  52.862  1.00  0.00     0.117 A 
HETATM   32  F1  UNL     1      27.172  -2.872  52.326  1.00  0.00    -0.206 F 
HETATM   33  C15 UNL     1      27.102  -0.607  53.078  1.00  0.00     0.051 A 
ENDBRANCH  26  27
ENDBRANCH  25  26
ENDBRANCH  24  25
ENDBRANCH  23  24
ENDBRANCH  21  23
ENDBRANCH  11  21
TORSDOF 6
ENDMDL
MODEL 9
REMARK VINA RESULT:      -7.4      1.849      2.263
REMARK  6 active torsions:
REMARK  status: ('A' for Active; 'I' for Inactive)
REMARK    1  A    between atoms: C6_11  and  N3_12 
REMARK    2  A    between atoms: N3_12  and  C7_13 
REMARK    3  A    between atoms: C7_13  and  C8_14 
REMARK    4  A    between atoms: C8_14  and  O3_15 
REMARK    5  A    between atoms: O3_15  and  C9_16 
REMARK    6  A    between atoms: C9_16  and  C10_17 
ROOT
HETATM    1  O1  UNL     1      21.368   7.628  49.909  1.00  0.00    -0.222 OA
HETATM    2  S1  UNL     1      22.670   7.551  49.416  1.00  0.00     0.181 S 
HETATM    3  O2  UNL     1      23.036   8.817  48.644  1.00  0.00    -0.222 OA
HETATM    4  C1  UNL     1      23.986   7.212  50.494  1.00  0.00     0.111 C 
HETATM    5  C2  UNL     1      23.652   6.188  51.277  1.00  0.00     0.014 C 
HETATM    6  C3  UNL     1      22.432   5.463  51.330  1.00  0.00     0.033 C 
HETATM    7  C4  UNL     1      21.520   4.599  51.617  1.00  0.00     0.075 A 
HETATM    8  N1  UNL     1      20.223   4.120  51.489  1.00  0.00    -0.243 NA
HETATM    9  C5  UNL     1      19.727   3.019  51.776  1.00  0.00     0.209 A 
HETATM   10  N2  UNL     1      20.467   1.973  52.328  1.00  0.00    -0.336 N 
HETATM   11  C6  UNL     1      21.876   2.191  52.564  1.00  0.00     0.117 A 
HETATM   12  C16 UNL     1      22.132   3.421  52.171  1.00  0.00     0.073 A 
HETATM   13  C17 UNL     1      23.601   3.344  51.780  1.00  0.00     0.123 A 
HETATM   14  C18 UNL     1      23.900   3.484  50.501  1.00  0.00     0.105 A 
HETATM   15  C19 UNL     1      23.175   3.726  49.127  1.00  0.00     0.183 C 
HETATM   16  N4  UNL     1      23.128   5.058  48.896  1.00  0.00    -0.403 N 
HETATM   17  C20 UNL     1      22.799   6.153  48.158  1.00  0.00     0.260 C 
HETATM   18  O4  UNL     1      24.989   3.269  51.422  1.00  0.00    -0.307 OA
HETATM   19  H5  UNL     1      19.961   1.098  52.538  1.00  0.00     0.168 HD
HETATM   20  H19 UNL     1      24.253   5.313  49.197  1.00  0.00     0.154 HD
ENDROOT
BRANCH  11  21
HETATM   21  N3  UNL     1      22.690   1.243  53.148  1.00  0.00    -0.373 N 
HETATM   22  H6  UNL     1      23.684   1.529  53.177  1.00  0.00     0.161 HD
BRANCH  21  23
HETATM   23  C7  UNL     1      22.313  -0.030  53.679  1.00  0.00     0.147 C 
BRANCH  23  24
HETATM   24  C8  UNL     1      23.585  -0.835  53.936  1.00  0.00     0.187 C 
BRANCH  24  25
HETATM   25  O3  UNL     1      24.739  -0.145  53.778  1.00  0.00    -0.385 OA
BRANCH  25  26
HETATM   26  C9  UNL     1      25.738  -0.808  53.119  1.00  0.00     0.206 C 
BRANCH  26  27
HETATM   27  C10 UNL     1      27.034  -0.095  53.335  1.00  0.00    -0.032 A 
HETATM   28  C11 UNL     1      27.079   1.286  53.470  1.00  0.00     0.009 A 
HETATM   29  C12 UNL     1      28.294   1.902  53.699  1.00  0.00     0.004 A 
HETATM   30  C13 UNL     1      29.449   1.159  53.793  1.00  0.00     0.042 A 
HETATM   31  C14 UNL     1      29.415  -0.236  53.658  1.00  0.00     0.117 A 
HETATM   32  F1  UNL     1      30.550  -1.009  53.752  1.00  0.00    -0.206 F 
HETATM   33  C15 UNL     1      28.191  -0.834  53.429  1.00  0.00     0.051 A 
ENDBRANCH  26  27
ENDBRANCH  25  26
ENDBRANCH  24  25
ENDBRANCH  23  24
ENDBRANCH  21  23
ENDBRANCH  11  21
TORSDOF 6
ENDMDL
