MODEL 1
REMARK VINA RESULT:      -8.4      0.000      0.000
REMARK  8 active torsions:
REMARK  status: ('A' for Active; 'I' for Inactive)
REMARK    1  A    between atoms: C1_2  and  C2_3 
REMARK    2  A    between atoms: C2_3  and  N1_4 
REMARK    3  A    between atoms: N1_4  and  C3_5 
REMARK    4  A    between atoms: C5_7  and  N2_8 
REMARK    5  A    between atoms: N2_8  and  C6_9 
REMARK    6  A    between atoms: C9_12  and  N3_13 
REMARK    7  A    between atoms: N3_13  and  S1_14 
REMARK    8  A    between atoms: S1_14  and  C10_17 
ROOT
HETATM    1  N2  UNL     1      25.672   5.259  49.321  1.00  0.00    -0.340 N 
HETATM    2  H7  UNL     1      25.126   5.786  48.564  1.00  0.00     0.167 HD
ENDROOT
BRANCH   1   3
HETATM    3  C5  UNL     1      25.147   4.351  50.336  1.00  0.00     0.127 C 
HETATM    4  C4  UNL     1      25.970   3.263  50.297  1.00  0.00     0.050 C 
HETATM    5  C3  UNL     1      25.458   2.253  51.366  1.00  0.00     0.128 C 
HETATM    6  C21 UNL     1      24.023   2.031  50.949  1.00  0.00     0.203 C 
HETATM    7  O4  UNL     1      23.195   1.409  51.874  1.00  0.00    -0.361 OA
HETATM    8  C20 UNL     1      21.939   1.973  52.209  1.00  0.00     0.136 C 
HETATM    9  C19 UNL     1      21.070   2.971  52.296  1.00  0.00     0.043 C 
HETATM   10  C18 UNL     1      21.089   4.407  51.946  1.00  0.00     0.120 C 
HETATM   11  N6  UNL     1      22.247   4.319  51.531  1.00  0.00    -0.254 NA
HETATM   12  C17 UNL     1      23.053   5.317  50.987  1.00  0.00     0.234 C 
HETATM   13  N5  UNL     1      24.221   5.402  50.491  1.00  0.00    -0.225 NA
BRANCH   5  14
HETATM   14  N1  UNL     1      25.724   2.787  52.621  1.00  0.00    -0.406 N 
HETATM   15  H4  UNL     1      25.517   3.786  52.768  1.00  0.00     0.154 HD
BRANCH  14  16
HETATM   16  C2  UNL     1      26.325   2.179  53.696  1.00  0.00     0.184 C 
BRANCH  16  17
HETATM   17  C1  UNL     1      27.833   2.171  53.409  1.00  0.00     0.250 C 
HETATM   18  O1  UNL     1      28.626   2.621  54.214  1.00  0.00    -0.305 OA
ENDBRANCH  16  17
ENDBRANCH  14  16
ENDBRANCH   5  14
ENDBRANCH   1   3
BRANCH   1  19
HETATM   19  C6  UNL     1      26.939   5.810  48.910  1.00  0.00     0.051 A 
HETATM   20  C7  UNL     1      27.948   4.925  48.520  1.00  0.00     0.035 A 
HETATM   21  C8  UNL     1      29.195   5.366  48.108  1.00  0.00     0.053 A 
HETATM   22  C9  UNL     1      29.359   6.738  48.116  1.00  0.00     0.136 A 
HETATM   23  N4  UNL     1      28.398   7.577  48.488  1.00  0.00    -0.240 NA
HETATM   24  C16 UNL     1      27.170   7.165  48.894  1.00  0.00     0.148 A 
BRANCH  22  25
HETATM   25  N3  UNL     1      30.625   7.272  47.703  1.00  0.00    -0.264 N 
HETATM   26  H10 UNL     1      30.675   7.974  46.923  1.00  0.00     0.180 HD
BRANCH  25  27
HETATM   27  S1  UNL     1      32.089   6.779  48.468  1.00  0.00     0.264 S 
HETATM   28  O2  UNL     1      31.844   6.482  49.902  1.00  0.00    -0.200 OA
HETATM   29  O3  UNL     1      33.014   7.988  48.434  1.00  0.00    -0.200 OA
BRANCH  27  30
HETATM   30  C10 UNL     1      32.854   5.453  47.625  1.00  0.00     0.079 A 
HETATM   31  C11 UNL     1      34.019   5.041  48.286  1.00  0.00     0.025 A 
HETATM   32  C12 UNL     1      34.800   4.008  47.810  1.00  0.00     0.002 A 
HETATM   33  C13 UNL     1      34.417   3.362  46.645  1.00  0.00     0.000 A 
HETATM   34  C14 UNL     1      33.268   3.770  45.997  1.00  0.00     0.002 A 
HETATM   35  C15 UNL     1      32.492   4.806  46.481  1.00  0.00     0.025 A 
ENDBRANCH  27  30
ENDBRANCH  25  27
ENDBRANCH  22  25
ENDBRANCH   1  19
TORSDOF 8
ENDMDL
MODEL 2
REMARK VINA RESULT:      -8.2      3.339      4.105
REMARK  8 active torsions:
REMARK  status: ('A' for Active; 'I' for Inactive)
REMARK    1  A    between atoms: C1_2  and  C2_3 
REMARK    2  A    between atoms: C2_3  and  N1_4 
REMARK    3  A    between atoms: N1_4  and  C3_5 
REMARK    4  A    between atoms: C5_7  and  N2_8 
REMARK    5  A    between atoms: N2_8  and  C6_9 
REMARK    6  A    between atoms: C9_12  and  N3_13 
REMARK    7  A    between atoms: N3_13  and  S1_14 
REMARK    8  A    between atoms: S1_14  and  C10_17 
ROOT
HETATM    1  N2  UNL     1      25.145   3.788  50.017  1.00  0.00    -0.340 N 
HETATM    2  H7  UNL     1      24.510   3.620  49.170  1.00  0.00     0.167 HD
ENDROOT
BRANCH   1   3
HETATM    3  C5  UNL     1      25.427   2.874  51.119  1.00  0.00     0.127 C 
HETATM    4  C4  UNL     1      26.713   2.462  50.917  1.00  0.00     0.050 C 
HETATM    5  C3  UNL     1      27.074   1.479  52.070  1.00  0.00     0.128 C 
HETATM    6  C21 UNL     1      25.999   0.425  51.952  1.00  0.00     0.203 C 
HETATM    7  O4  UNL     1      25.858  -0.444  53.026  1.00  0.00    -0.361 OA
HETATM    8  C20 UNL     1      24.587  -0.669  53.608  1.00  0.00     0.136 C 
HETATM    9  C19 UNL     1      23.325  -0.352  53.867  1.00  0.00     0.043 C 
HETATM   10  C18 UNL     1      22.439   0.780  53.517  1.00  0.00     0.120 C 
HETATM   11  N6  UNL     1      23.342   1.324  52.877  1.00  0.00    -0.254 NA
HETATM   12  C17 UNL     1      23.305   2.530  52.178  1.00  0.00     0.234 C 
HETATM   13  N5  UNL     1      24.101   3.210  51.456  1.00  0.00    -0.225 NA
BRANCH   5  14
HETATM   14  N1  UNL     1      27.175   2.216  53.244  1.00  0.00    -0.406 N 
HETATM   15  H4  UNL     1      26.392   2.842  53.483  1.00  0.00     0.154 HD
BRANCH  14  16
HETATM   16  C2  UNL     1      28.238   2.298  54.109  1.00  0.00     0.184 C 
BRANCH  16  17
HETATM   17  C1  UNL     1      28.996   0.967  54.001  1.00  0.00     0.250 C 
HETATM   18  O1  UNL     1      28.878   0.109  54.855  1.00  0.00    -0.305 OA
ENDBRANCH  16  17
ENDBRANCH  14  16
ENDBRANCH   5  14
ENDBRANCH   1   3
BRANCH   1  19
HETATM   19  C6  UNL     1      25.497   5.121  49.597  1.00  0.00     0.051 A 
HETATM   20  C7  UNL     1      26.648   5.288  48.824  1.00  0.00     0.035 A 
HETATM   21  C8  UNL     1      27.061   6.532  48.375  1.00  0.00     0.053 A 
HETATM   22  C9  UNL     1      26.248   7.585  48.752  1.00  0.00     0.136 A 
HETATM   23  N4  UNL     1      25.154   7.424  49.487  1.00  0.00    -0.240 NA
HETATM   24  C16 UNL     1      24.733   6.213  49.936  1.00  0.00     0.148 A 
BRANCH  22  25
HETATM   25  N3  UNL     1      26.610   8.906  48.324  1.00  0.00    -0.264 N 
HETATM   26  H10 UNL     1      26.229   9.296  47.426  1.00  0.00     0.180 HD
BRANCH  25  27
HETATM   27  S1  UNL     1      27.671   9.884  49.266  1.00  0.00     0.264 S 
HETATM   28  O2  UNL     1      27.421   9.666  50.713  1.00  0.00    -0.200 OA
HETATM   29  O3  UNL     1      27.284  11.328  48.980  1.00  0.00    -0.200 OA
BRANCH  27  30
HETATM   30  C10 UNL     1      29.345   9.645  48.826  1.00  0.00     0.079 A 
HETATM   31  C11 UNL     1      29.892  10.810  48.271  1.00  0.00     0.025 A 
HETATM   32  C12 UNL     1      31.202  10.868  47.843  1.00  0.00     0.002 A 
HETATM   33  C13 UNL     1      31.997   9.739  47.970  1.00  0.00     0.000 A 
HETATM   34  C14 UNL     1      31.455   8.594  48.518  1.00  0.00     0.002 A 
HETATM   35  C15 UNL     1      30.142   8.545  48.944  1.00  0.00     0.025 A 
ENDBRANCH  27  30
ENDBRANCH  25  27
ENDBRANCH  22  25
ENDBRANCH   1  19
TORSDOF 8
ENDMDL
MODEL 3
REMARK VINA RESULT:      -8.0      4.195      8.186
REMARK  8 active torsions:
REMARK  status: ('A' for Active; 'I' for Inactive)
REMARK    1  A    between atoms: C1_2  and  C2_3 
REMARK    2  A    between atoms: C2_3  and  N1_4 
REMARK    3  A    between atoms: N1_4  and  C3_5 
REMARK    4  A    between atoms: C5_7  and  N2_8 
REMARK    5  A    between atoms: N2_8  and  C6_9 
REMARK    6  A    between atoms: C9_12  and  N3_13 
REMARK    7  A    between atoms: N3_13  and  S1_14 
REMARK    8  A    between atoms: S1_14  and  C10_17 
ROOT
HETATM    1  N2  UNL     1      25.305   6.425  49.017  1.00  0.00    -0.340 N 
HETATM    2  H7  UNL     1      24.329   6.123  48.694  1.00  0.00     0.167 HD
ENDROOT
BRANCH   1   3
HETATM    3  C5  UNL     1      25.975   7.697  48.771  1.00  0.00     0.127 C 
HETATM    4  C4  UNL     1      26.410   8.110  49.997  1.00  0.00     0.050 C 
HETATM    5  C3  UNL     1      27.139   9.472  49.799  1.00  0.00     0.128 C 
HETATM    6  C21 UNL     1      26.079  10.320  49.137  1.00  0.00     0.203 C 
HETATM    7  O4  UNL     1      26.503  11.506  48.553  1.00  0.00    -0.361 OA
HETATM    8  C20 UNL     1      26.139  11.824  47.222  1.00  0.00     0.136 C 
HETATM    9  C19 UNL     1      25.727  11.521  45.998  1.00  0.00     0.043 C 
HETATM   10  C18 UNL     1      25.353  10.273  45.300  1.00  0.00     0.120 C 
HETATM   11  N6  UNL     1      25.573   9.607  46.315  1.00  0.00    -0.254 NA
HETATM   12  C17 UNL     1      25.445   8.231  46.496  1.00  0.00     0.234 C 
HETATM   13  N5  UNL     1      25.590   7.402  47.448  1.00  0.00    -0.225 NA
BRANCH   5  14
HETATM   14  N1  UNL     1      28.329   9.227  49.124  1.00  0.00    -0.406 N 
HETATM   15  H4  UNL     1      28.288   8.618  48.293  1.00  0.00     0.154 HD
BRANCH  14  16
HETATM   16  C2  UNL     1      29.599   9.616  49.467  1.00  0.00     0.184 C 
BRANCH  16  17
HETATM   17  C1  UNL     1      30.001  10.722  48.479  1.00  0.00     0.250 C 
HETATM   18  O1  UNL     1      31.008  11.381  48.654  1.00  0.00    -0.305 OA
ENDBRANCH  16  17
ENDBRANCH  14  16
ENDBRANCH   5  14
ENDBRANCH   1   3
BRANCH   1  19
HETATM   19  C6  UNL     1      25.569   5.170  49.676  1.00  0.00     0.051 A 
HETATM   20  C7  UNL     1      24.667   4.733  50.649  1.00  0.00     0.035 A 
HETATM   21  C8  UNL     1      24.841   3.540  51.332  1.00  0.00     0.053 A 
HETATM   22  C9  UNL     1      25.968   2.824  50.974  1.00  0.00     0.136 A 
HETATM   23  N4  UNL     1      26.824   3.242  50.048  1.00  0.00    -0.240 NA
HETATM   24  C16 UNL     1      26.671   4.408  49.369  1.00  0.00     0.148 A 
BRANCH  22  25
HETATM   25  N3  UNL     1      26.216   1.576  51.637  1.00  0.00    -0.264 N 
HETATM   26  H10 UNL     1      25.731   0.700  51.318  1.00  0.00     0.180 HD
BRANCH  25  27
HETATM   27  S1  UNL     1      27.310   1.479  52.965  1.00  0.00     0.264 S 
HETATM   28  O2  UNL     1      26.638   1.911  54.216  1.00  0.00    -0.200 OA
HETATM   29  O3  UNL     1      28.402   2.503  52.691  1.00  0.00    -0.200 OA
BRANCH  27  30
HETATM   30  C10 UNL     1      28.037  -0.104  53.101  1.00  0.00     0.079 A 
HETATM   31  C11 UNL     1      27.155  -1.103  52.667  1.00  0.00     0.025 A 
HETATM   32  C12 UNL     1      27.502  -2.438  52.681  1.00  0.00     0.002 A 
HETATM   33  C13 UNL     1      28.761  -2.798  53.138  1.00  0.00     0.000 A 
HETATM   34  C14 UNL     1      29.627  -1.810  53.564  1.00  0.00     0.002 A 
HETATM   35  C15 UNL     1      29.271  -0.476  53.546  1.00  0.00     0.025 A 
ENDBRANCH  27  30
ENDBRANCH  25  27
ENDBRANCH  22  25
ENDBRANCH   1  19
TORSDOF 8
ENDMDL
MODEL 4
REMARK VINA RESULT:      -7.9      2.991      9.474
REMARK  8 active torsions:
REMARK  status: ('A' for Active; 'I' for Inactive)
REMARK    1  A    between atoms: C1_2  and  C2_3 
REMARK    2  A    between atoms: C2_3  and  N1_4 
REMARK    3  A    between atoms: N1_4  and  C3_5 
REMARK    4  A    between atoms: C5_7  and  N2_8 
REMARK    5  A    between atoms: N2_8  and  C6_9 
REMARK    6  A    between atoms: C9_12  and  N3_13 
REMARK    7  A    between atoms: N3_13  and  S1_14 
REMARK    8  A    between atoms: S1_14  and  C10_17 
ROOT
HETATM    1  N2  UNL     1      28.419   5.162  48.462  1.00  0.00    -0.340 N 
HETATM    2  H7  UNL     1      28.661   4.125  48.345  1.00  0.00     0.167 HD
ENDROOT
BRANCH   1   3
HETATM    3  C5  UNL     1      29.275   6.315  48.205  1.00  0.00     0.127 C 
HETATM    4  C4  UNL     1      28.503   7.174  47.478  1.00  0.00     0.050 C 
HETATM    5  C3  UNL     1      29.367   8.433  47.171  1.00  0.00     0.128 C 
HETATM    6  C21 UNL     1      30.569   7.845  46.471  1.00  0.00     0.203 C 
HETATM    7  O4  UNL     1      31.674   8.673  46.330  1.00  0.00    -0.361 OA
HETATM    8  C20 UNL     1      32.961   8.228  46.718  1.00  0.00     0.136 C 
HETATM    9  C19 UNL     1      33.796   7.446  47.391  1.00  0.00     0.043 C 
HETATM   10  C18 UNL     1      33.639   6.327  48.346  1.00  0.00     0.120 C 
HETATM   11  N6  UNL     1      32.410   6.401  48.273  1.00  0.00    -0.254 NA
HETATM   12  C17 UNL     1      31.454   5.625  48.926  1.00  0.00     0.234 C 
HETATM   13  N5  UNL     1      30.185   5.537  48.947  1.00  0.00    -0.225 NA
BRANCH   5  14
HETATM   14  N1  UNL     1      29.549   9.127  48.362  1.00  0.00    -0.406 N 
HETATM   15  H4  UNL     1      30.343   8.850  48.958  1.00  0.00     0.154 HD
BRANCH  14  16
HETATM   16  C2  UNL     1      28.747  10.094  48.916  1.00  0.00     0.184 C 
BRANCH  16  17
HETATM   17  C1  UNL     1      27.858   9.387  49.950  1.00  0.00     0.250 C 
HETATM   18  O1  UNL     1      26.865   9.929  50.396  1.00  0.00    -0.305 OA
ENDBRANCH  16  17
ENDBRANCH  14  16
ENDBRANCH   5  14
ENDBRANCH   1   3
BRANCH   1  19
HETATM   19  C6  UNL     1      27.082   4.886  48.926  1.00  0.00     0.051 A 
HETATM   20  C7  UNL     1      26.773   3.579  49.308  1.00  0.00     0.035 A 
HETATM   21  C8  UNL     1      25.515   3.223  49.768  1.00  0.00     0.053 A 
HETATM   22  C9  UNL     1      24.601   4.259  49.818  1.00  0.00     0.136 A 
HETATM   23  N4  UNL     1      24.897   5.502  49.454  1.00  0.00    -0.240 NA
HETATM   24  C16 UNL     1      26.123   5.869  49.001  1.00  0.00     0.148 A 
BRANCH  22  25
HETATM   25  N3  UNL     1      23.274   3.970  50.284  1.00  0.00    -0.264 N 
HETATM   26  H10 UNL     1      22.483   3.865  49.601  1.00  0.00     0.180 HD
BRANCH  25  27
HETATM   27  S1  UNL     1      22.945   3.788  51.966  1.00  0.00     0.264 S 
HETATM   28  O2  UNL     1      21.506   4.034  52.237  1.00  0.00    -0.200 OA
HETATM   29  O3  UNL     1      23.708   4.902  52.670  1.00  0.00    -0.200 OA
BRANCH  27  30
HETATM   30  C10 UNL     1      23.494   2.247  52.579  1.00  0.00     0.079 A 
HETATM   31  C11 UNL     1      22.463   1.298  52.554  1.00  0.00     0.025 A 
HETATM   32  C12 UNL     1      22.653   0.004  52.991  1.00  0.00     0.002 A 
HETATM   33  C13 UNL     1      23.902  -0.365  53.467  1.00  0.00     0.000 A 
HETATM   34  C14 UNL     1      24.916   0.572  53.489  1.00  0.00     0.002 A 
HETATM   35  C15 UNL     1      24.716   1.867  53.049  1.00  0.00     0.025 A 
ENDBRANCH  27  30
ENDBRANCH  25  27
ENDBRANCH  22  25
ENDBRANCH   1  19
TORSDOF 8
ENDMDL
MODEL 5
REMARK VINA RESULT:      -7.8      5.088      9.239
REMARK  8 active torsions:
REMARK  status: ('A' for Active; 'I' for Inactive)
REMARK    1  A    between atoms: C1_2  and  C2_3 
REMARK    2  A    between atoms: C2_3  and  N1_4 
REMARK    3  A    between atoms: N1_4  and  C3_5 
REMARK    4  A    between atoms: C5_7  and  N2_8 
REMARK    5  A    between atoms: N2_8  and  C6_9 
REMARK    6  A    between atoms: C9_12  and  N3_13 
REMARK    7  A    between atoms: N3_13  and  S1_14 
REMARK    8  A    between atoms: S1_14  and  C10_17 
ROOT
HETATM    1  N2  UNL     1      25.152   3.885  49.540  1.00  0.00    -0.340 N 
HETATM    2  H7  UNL     1      25.555   3.101  48.931  1.00  0.00     0.167 HD
ENDROOT
BRANCH   1   3
HETATM    3  C5  UNL     1      24.601   5.164  49.105  1.00  0.00     0.127 C 
HETATM    4  C4  UNL     1      23.252   4.968  49.049  1.00  0.00     0.050 C 
HETATM    5  C3  UNL     1      22.604   6.307  48.588  1.00  0.00     0.128 C 
HETATM    6  C21 UNL     1      23.304   6.577  47.277  1.00  0.00     0.203 C 
HETATM    7  O4  UNL     1      23.170   7.855  46.751  1.00  0.00    -0.361 OA
HETATM    8  C20 UNL     1      24.310   8.587  46.338  1.00  0.00     0.136 C 
HETATM    9  C19 UNL     1      25.608   8.861  46.331  1.00  0.00     0.043 C 
HETATM   10  C18 UNL     1      26.799   8.298  47.003  1.00  0.00     0.120 C 
HETATM   11  N6  UNL     1      26.107   7.456  47.581  1.00  0.00    -0.254 NA
HETATM   12  C17 UNL     1      26.513   6.462  48.471  1.00  0.00     0.234 C 
HETATM   13  N5  UNL     1      25.966   5.515  49.118  1.00  0.00    -0.225 NA
BRANCH   5  14
HETATM   14  N1  UNL     1      22.731   7.223  49.625  1.00  0.00    -0.406 N 
HETATM   15  H4  UNL     1      23.684   7.517  49.887  1.00  0.00     0.154 HD
BRANCH  14  16
HETATM   16  C2  UNL     1      21.749   7.739  50.433  1.00  0.00     0.184 C 
BRANCH  16  17
HETATM   17  C1  UNL     1      20.463   7.773  49.592  1.00  0.00     0.250 C 
HETATM   18  O1  UNL     1      19.988   8.828  49.219  1.00  0.00    -0.305 OA
ENDBRANCH  16  17
ENDBRANCH  14  16
ENDBRANCH   5  14
ENDBRANCH   1   3
BRANCH   1  19
HETATM   19  C6  UNL     1      25.398   3.173  50.769  1.00  0.00     0.051 A 
HETATM   20  C7  UNL     1      26.463   2.270  50.807  1.00  0.00     0.035 A 
HETATM   21  C8  UNL     1      26.774   1.544  51.945  1.00  0.00     0.053 A 
HETATM   22  C9  UNL     1      25.952   1.784  53.030  1.00  0.00     0.136 A 
HETATM   23  N4  UNL     1      24.939   2.643  52.992  1.00  0.00    -0.240 NA
HETATM   24  C16 UNL     1      24.619   3.363  51.886  1.00  0.00     0.148 A 
BRANCH  22  25
HETATM   25  N3  UNL     1      26.211   1.070  54.248  1.00  0.00    -0.264 N 
HETATM   26  H10 UNL     1      26.811   1.498  54.996  1.00  0.00     0.180 HD
BRANCH  25  27
HETATM   27  S1  UNL     1      25.548  -0.499  54.514  1.00  0.00     0.264 S 
HETATM   28  O2  UNL     1      25.760  -0.913  55.924  1.00  0.00    -0.200 OA
HETATM   29  O3  UNL     1      26.369  -1.456  53.661  1.00  0.00    -0.200 OA
BRANCH  27  30
HETATM   30  C10 UNL     1      23.873  -0.595  54.027  1.00  0.00     0.079 A 
HETATM   31  C11 UNL     1      23.077  -1.114  55.056  1.00  0.00     0.025 A 
HETATM   32  C12 UNL     1      21.716  -1.287  54.909  1.00  0.00     0.002 A 
HETATM   33  C13 UNL     1      21.124  -0.935  53.705  1.00  0.00     0.000 A 
HETATM   34  C14 UNL     1      21.912  -0.423  52.694  1.00  0.00     0.002 A 
HETATM   35  C15 UNL     1      23.274  -0.254  52.851  1.00  0.00     0.025 A 
ENDBRANCH  27  30
ENDBRANCH  25  27
ENDBRANCH  22  25
ENDBRANCH   1  19
TORSDOF 8
ENDMDL
MODEL 6
REMARK VINA RESULT:      -7.7      5.012      8.969
REMARK  8 active torsions:
REMARK  status: ('A' for Active; 'I' for Inactive)
REMARK    1  A    between atoms: C1_2  and  C2_3 
REMARK    2  A    between atoms: C2_3  and  N1_4 
REMARK    3  A    between atoms: N1_4  and  C3_5 
REMARK    4  A    between atoms: C5_7  and  N2_8 
REMARK    5  A    between atoms: N2_8  and  C6_9 
REMARK    6  A    between atoms: C9_12  and  N3_13 
REMARK    7  A    between atoms: N3_13  and  S1_14 
REMARK    8  A    between atoms: S1_14  and  C10_17 
ROOT
HETATM    1  N2  UNL     1      25.165   3.959  49.504  1.00  0.00    -0.340 N 
HETATM    2  H7  UNL     1      25.336   3.092  48.898  1.00  0.00     0.167 HD
ENDROOT
BRANCH   1   3
HETATM    3  C5  UNL     1      24.844   5.312  49.062  1.00  0.00     0.127 C 
HETATM    4  C4  UNL     1      25.938   6.059  49.389  1.00  0.00     0.050 C 
HETATM    5  C3  UNL     1      25.655   7.523  48.938  1.00  0.00     0.128 C 
HETATM    6  C21 UNL     1      24.371   7.849  49.664  1.00  0.00     0.203 C 
HETATM    7  O4  UNL     1      23.687   8.981  49.243  1.00  0.00    -0.361 OA
HETATM    8  C20 UNL     1      22.304   8.916  48.944  1.00  0.00     0.136 C 
HETATM    9  C19 UNL     1      21.186   8.279  48.620  1.00  0.00     0.043 C 
HETATM   10  C18 UNL     1      20.828   6.870  48.345  1.00  0.00     0.120 C 
HETATM   11  N6  UNL     1      21.992   6.509  48.539  1.00  0.00    -0.254 NA
HETATM   12  C17 UNL     1      22.523   5.222  48.472  1.00  0.00     0.234 C 
HETATM   13  N5  UNL     1      23.653   4.672  48.666  1.00  0.00    -0.225 NA
BRANCH   5  14
HETATM   14  N1  UNL     1      25.673   7.554  47.548  1.00  0.00    -0.406 N 
HETATM   15  H4  UNL     1      25.001   6.952  47.049  1.00  0.00     0.154 HD
BRANCH  14  16
HETATM   16  C2  UNL     1      26.542   8.221  46.722  1.00  0.00     0.184 C 
BRANCH  16  17
HETATM   17  C1  UNL     1      25.986   9.643  46.556  1.00  0.00     0.250 C 
HETATM   18  O1  UNL     1      26.372  10.553  47.265  1.00  0.00    -0.305 OA
ENDBRANCH  16  17
ENDBRANCH  14  16
ENDBRANCH   5  14
ENDBRANCH   1   3
BRANCH   1  19
HETATM   19  C6  UNL     1      25.385   3.245  50.737  1.00  0.00     0.051 A 
HETATM   20  C7  UNL     1      26.449   2.342  50.796  1.00  0.00     0.035 A 
HETATM   21  C8  UNL     1      26.737   1.615  51.939  1.00  0.00     0.053 A 
HETATM   22  C9  UNL     1      25.892   1.854  53.007  1.00  0.00     0.136 A 
HETATM   23  N4  UNL     1      24.881   2.713  52.950  1.00  0.00    -0.240 NA
HETATM   24  C16 UNL     1      24.584   3.435  51.838  1.00  0.00     0.148 A 
BRANCH  22  25
HETATM   25  N3  UNL     1      26.126   1.138  54.229  1.00  0.00    -0.264 N 
HETATM   26  H10 UNL     1      26.694   1.573  54.999  1.00  0.00     0.180 HD
BRANCH  25  27
HETATM   27  S1  UNL     1      25.486  -0.445  54.467  1.00  0.00     0.264 S 
HETATM   28  O2  UNL     1      25.708  -0.882  55.868  1.00  0.00    -0.200 OA
HETATM   29  O3  UNL     1      26.317  -1.374  53.593  1.00  0.00    -0.200 OA
BRANCH  27  30
HETATM   30  C10 UNL     1      23.812  -0.554  53.982  1.00  0.00     0.079 A 
HETATM   31  C11 UNL     1      23.030  -1.129  54.993  1.00  0.00     0.025 A 
HETATM   32  C12 UNL     1      21.672  -1.322  54.844  1.00  0.00     0.002 A 
HETATM   33  C13 UNL     1      21.068  -0.935  53.658  1.00  0.00     0.000 A 
HETATM   34  C14 UNL     1      21.841  -0.368  52.664  1.00  0.00     0.002 A 
HETATM   35  C15 UNL     1      23.200  -0.179  52.823  1.00  0.00     0.025 A 
ENDBRANCH  27  30
ENDBRANCH  25  27
ENDBRANCH  22  25
ENDBRANCH   1  19
TORSDOF 8
ENDMDL
MODEL 7
REMARK VINA RESULT:      -7.6      2.497      4.251
REMARK  8 active torsions:
REMARK  status: ('A' for Active; 'I' for Inactive)
REMARK    1  A    between atoms: C1_2  and  C2_3 
REMARK    2  A    between atoms: C2_3  and  N1_4 
REMARK    3  A    between atoms: N1_4  and  C3_5 
REMARK    4  A    between atoms: C5_7  and  N2_8 
REMARK    5  A    between atoms: N2_8  and  C6_9 
REMARK    6  A    between atoms: C9_12  and  N3_13 
REMARK    7  A    between atoms: N3_13  and  S1_14 
REMARK    8  A    between atoms: S1_14  and  C10_17 
ROOT
HETATM    1  N2  UNL     1      25.073   3.818  51.222  1.00  0.00    -0.340 N 
HETATM    2  H7  UNL     1      25.717   4.072  52.040  1.00  0.00     0.167 HD
ENDROOT
BRANCH   1   3
HETATM    3  C5  UNL     1      23.948   2.888  51.224  1.00  0.00     0.127 C 
HETATM    4  C4  UNL     1      22.908   3.589  50.687  1.00  0.00     0.050 C 
HETATM    5  C3  UNL     1      21.672   2.643  50.661  1.00  0.00     0.128 C 
HETATM    6  C21 UNL     1      21.537   2.237  52.109  1.00  0.00     0.203 C 
HETATM    7  O4  UNL     1      20.708   1.156  52.380  1.00  0.00    -0.361 OA
HETATM    8  C20 UNL     1      21.164   0.082  53.182  1.00  0.00     0.136 C 
HETATM    9  C19 UNL     1      22.105  -0.666  53.743  1.00  0.00     0.043 C 
HETATM   10  C18 UNL     1      23.584  -0.659  53.745  1.00  0.00     0.120 C 
HETATM   11  N6  UNL     1      23.607   0.331  53.010  1.00  0.00    -0.254 NA
HETATM   12  C17 UNL     1      24.713   1.016  52.510  1.00  0.00     0.234 C 
HETATM   13  N5  UNL     1      24.924   2.043  51.791  1.00  0.00    -0.225 NA
BRANCH   5  14
HETATM   14  N1  UNL     1      21.902   1.663  49.702  1.00  0.00    -0.406 N 
HETATM   15  H4  UNL     1      22.839   1.234  49.674  1.00  0.00     0.154 HD
BRANCH  14  16
HETATM   16  C2  UNL     1      21.066   1.238  48.700  1.00  0.00     0.184 C 
BRANCH  16  17
HETATM   17  C1  UNL     1      20.522   2.502  48.016  1.00  0.00     0.250 C 
HETATM   18  O1  UNL     1      21.166   3.075  47.158  1.00  0.00    -0.305 OA
ENDBRANCH  16  17
ENDBRANCH  14  16
ENDBRANCH   5  14
ENDBRANCH   1   3
BRANCH   1  19
HETATM   19  C6  UNL     1      25.760   4.685  50.299  1.00  0.00     0.051 A 
HETATM   20  C7  UNL     1      26.799   4.147  49.537  1.00  0.00     0.035 A 
HETATM   21  C8  UNL     1      27.513   4.905  48.623  1.00  0.00     0.053 A 
HETATM   22  C9  UNL     1      27.117   6.226  48.529  1.00  0.00     0.136 A 
HETATM   23  N4  UNL     1      26.128   6.736  49.256  1.00  0.00    -0.240 NA
HETATM   24  C16 UNL     1      25.418   6.009  50.155  1.00  0.00     0.148 A 
BRANCH  22  25
HETATM   25  N3  UNL     1      27.809   7.077  47.604  1.00  0.00    -0.264 N 
HETATM   26  H10 UNL     1      27.487   7.149  46.606  1.00  0.00     0.180 HD
BRANCH  25  27
HETATM   27  S1  UNL     1      29.179   7.998  48.099  1.00  0.00     0.264 S 
HETATM   28  O2  UNL     1      28.842   8.821  49.287  1.00  0.00    -0.200 OA
HETATM   29  O3  UNL     1      29.463   8.977  46.968  1.00  0.00    -0.200 OA
BRANCH  27  30
HETATM   30  C10 UNL     1      30.587   6.995  48.350  1.00  0.00     0.079 A 
HETATM   31  C11 UNL     1      30.669   5.988  47.378  1.00  0.00     0.025 A 
HETATM   32  C12 UNL     1      31.697   5.068  47.368  1.00  0.00     0.002 A 
HETATM   33  C13 UNL     1      32.674   5.144  48.349  1.00  0.00     0.000 A 
HETATM   34  C14 UNL     1      32.590   6.138  49.304  1.00  0.00     0.002 A 
HETATM   35  C15 UNL     1      31.557   7.056  49.306  1.00  0.00     0.025 A 
ENDBRANCH  27  30
ENDBRANCH  25  27
ENDBRANCH  22  25
ENDBRANCH   1  19
TORSDOF 8
ENDMDL
MODEL 8
REMARK VINA RESULT:      -7.6      3.764      5.520
REMARK  8 active torsions:
REMARK  status: ('A' for Active; 'I' for Inactive)
REMARK    1  A    between atoms: C1_2  and  C2_3 
REMARK    2  A    between atoms: C2_3  and  N1_4 
REMARK    3  A    between atoms: N1_4  and  C3_5 
REMARK    4  A    between atoms: C5_7  and  N2_8 
REMARK    5  A    between atoms: N2_8  and  C6_9 
REMARK    6  A    between atoms: C9_12  and  N3_13 
REMARK    7  A    between atoms: N3_13  and  S1_14 
REMARK    8  A    between atoms: S1_14  and  C10_17 
ROOT
HETATM    1  N2  UNL     1      25.138   3.764  49.780  1.00  0.00    -0.340 N 
HETATM    2  H7  UNL     1      24.417   3.630  48.998  1.00  0.00     0.167 HD
ENDROOT
BRANCH   1   3
HETATM    3  C5  UNL     1      25.386   2.897  50.927  1.00  0.00     0.127 C 
HETATM    4  C4  UNL     1      26.675   2.475  50.780  1.00  0.00     0.050 C 
HETATM    5  C3  UNL     1      27.001   1.541  51.983  1.00  0.00     0.128 C 
HETATM    6  C21 UNL     1      25.927   0.484  51.879  1.00  0.00     0.203 C 
HETATM    7  O4  UNL     1      25.753  -0.338  52.984  1.00  0.00    -0.361 OA
HETATM    8  C20 UNL     1      24.464  -0.537  53.537  1.00  0.00     0.136 C 
HETATM    9  C19 UNL     1      23.197  -0.206  53.746  1.00  0.00     0.043 C 
HETATM   10  C18 UNL     1      22.324   0.910  53.324  1.00  0.00     0.120 C 
HETATM   11  N6  UNL     1      23.247   1.426  52.688  1.00  0.00    -0.254 NA
HETATM   12  C17 UNL     1      23.233   2.601  51.938  1.00  0.00     0.234 C 
HETATM   13  N5  UNL     1      24.051   3.249  51.212  1.00  0.00    -0.225 NA
BRANCH   5  14
HETATM   14  N1  UNL     1      27.070   2.326  53.127  1.00  0.00    -0.406 N 
HETATM   15  H4  UNL     1      26.379   3.084  53.228  1.00  0.00     0.154 HD
BRANCH  14  16
HETATM   16  C2  UNL     1      28.010   2.294  54.127  1.00  0.00     0.184 C 
BRANCH  16  17
HETATM   17  C1  UNL     1      28.964   1.136  53.796  1.00  0.00     0.250 C 
HETATM   18  O1  UNL     1      29.040   0.161  54.519  1.00  0.00    -0.305 OA
ENDBRANCH  16  17
ENDBRANCH  14  16
ENDBRANCH   5  14
ENDBRANCH   1   3
BRANCH   1  19
HETATM   19  C6  UNL     1      25.629   5.003  49.232  1.00  0.00     0.051 A 
HETATM   20  C7  UNL     1      24.742   6.078  49.130  1.00  0.00     0.035 A 
HETATM   21  C8  UNL     1      25.128   7.306  48.618  1.00  0.00     0.053 A 
HETATM   22  C9  UNL     1      26.450   7.381  48.220  1.00  0.00     0.136 A 
HETATM   23  N4  UNL     1      27.291   6.358  48.317  1.00  0.00    -0.240 NA
HETATM   24  C16 UNL     1      26.932   5.147  48.816  1.00  0.00     0.148 A 
BRANCH  22  25
HETATM   25  N3  UNL     1      26.925   8.622  47.678  1.00  0.00    -0.264 N 
HETATM   26  H10 UNL     1      26.645   8.920  46.711  1.00  0.00     0.180 HD
BRANCH  25  27
HETATM   27  S1  UNL     1      27.962   9.650  48.594  1.00  0.00     0.264 S 
HETATM   28  O2  UNL     1      29.380   9.406  48.228  1.00  0.00    -0.200 OA
HETATM   29  O3  UNL     1      27.815   9.216  50.046  1.00  0.00    -0.200 OA
BRANCH  27  30
HETATM   30  C10 UNL     1      27.508  11.331  48.454  1.00  0.00     0.079 A 
HETATM   31  C11 UNL     1      26.165  11.461  48.074  1.00  0.00     0.025 A 
HETATM   32  C12 UNL     1      25.575  12.695  47.896  1.00  0.00     0.002 A 
HETATM   33  C13 UNL     1      26.335  13.837  48.101  1.00  0.00     0.000 A 
HETATM   34  C14 UNL     1      27.657  13.704  48.476  1.00  0.00     0.002 A 
HETATM   35  C15 UNL     1      28.240  12.464  48.651  1.00  0.00     0.025 A 
ENDBRANCH  27  30
ENDBRANCH  25  27
ENDBRANCH  22  25
ENDBRANCH   1  19
TORSDOF 8
ENDMDL
MODEL 9
REMARK VINA RESULT:      -7.6      2.563      4.042
REMARK  8 active torsions:
REMARK  status: ('A' for Active; 'I' for Inactive)
REMARK    1  A    between atoms: C1_2  and  C2_3 
REMARK    2  A    between atoms: C2_3  and  N1_4 
REMARK    3  A    between atoms: N1_4  and  C3_5 
REMARK    4  A    between atoms: C5_7  and  N2_8 
REMARK    5  A    between atoms: N2_8  and  C6_9 
REMARK    6  A    between atoms: C9_12  and  N3_13 
REMARK    7  A    between atoms: N3_13  and  S1_14 
REMARK    8  A    between atoms: S1_14  and  C10_17 
ROOT
HETATM    1  N2  UNL     1      26.169   4.998  48.989  1.00  0.00    -0.340 N 
HETATM    2  H7  UNL     1      25.751   5.146  48.013  1.00  0.00     0.167 HD
ENDROOT
BRANCH   1   3
HETATM    3  C5  UNL     1      25.609   4.228  50.095  1.00  0.00     0.127 C 
HETATM    4  C4  UNL     1      26.308   3.056  50.100  1.00  0.00     0.050 C 
HETATM    5  C3  UNL     1      25.753   2.186  51.266  1.00  0.00     0.128 C 
HETATM    6  C21 UNL     1      24.282   2.094  50.938  1.00  0.00     0.203 C 
HETATM    7  O4  UNL     1      23.446   1.634  51.946  1.00  0.00    -0.361 OA
HETATM    8  C20 UNL     1      22.278   2.354  52.297  1.00  0.00     0.136 C 
HETATM    9  C19 UNL     1      21.525   3.445  52.349  1.00  0.00     0.043 C 
HETATM   10  C18 UNL     1      21.676   4.842  51.889  1.00  0.00     0.120 C 
HETATM   11  N6  UNL     1      22.793   4.598  51.427  1.00  0.00    -0.254 NA
HETATM   12  C17 UNL     1      23.668   5.461  50.770  1.00  0.00     0.234 C 
HETATM   13  N5  UNL     1      24.809   5.381  50.213  1.00  0.00    -0.225 NA
BRANCH   5  14
HETATM   14  N1  UNL     1      26.145   2.775  52.463  1.00  0.00    -0.406 N 
HETATM   15  H4  UNL     1      26.267   3.799  52.472  1.00  0.00     0.154 HD
BRANCH  14  16
HETATM   16  C2  UNL     1      26.487   2.163  53.642  1.00  0.00     0.184 C 
BRANCH  16  17
HETATM   17  C1  UNL     1      28.020   2.065  53.657  1.00  0.00     0.250 C 
HETATM   18  O1  UNL     1      28.692   2.643  52.823  1.00  0.00    -0.305 OA
ENDBRANCH  16  17
ENDBRANCH  14  16
ENDBRANCH   5  14
ENDBRANCH   1   3
BRANCH   1  19
HETATM   19  C6  UNL     1      27.331   5.802  48.708  1.00  0.00     0.051 A 
HETATM   20  C7  UNL     1      28.517   5.150  48.361  1.00  0.00     0.035 A 
HETATM   21  C8  UNL     1      29.682   5.843  48.073  1.00  0.00     0.053 A 
HETATM   22  C9  UNL     1      29.575   7.219  48.155  1.00  0.00     0.136 A 
HETATM   23  N4  UNL     1      28.447   7.837  48.485  1.00  0.00    -0.240 NA
HETATM   24  C16 UNL     1      27.296   7.175  48.771  1.00  0.00     0.148 A 
BRANCH  22  25
HETATM   25  N3  UNL     1      30.741   8.007  47.870  1.00  0.00    -0.264 N 
HETATM   26  H10 UNL     1      31.665   7.763  48.306  1.00  0.00     0.180 HD
BRANCH  25  27
HETATM   27  S1  UNL     1      30.656   9.365  46.813  1.00  0.00     0.264 S 
HETATM   28  O2  UNL     1      29.980   8.988  45.546  1.00  0.00    -0.200 OA
HETATM   29  O3  UNL     1      32.093   9.707  46.445  1.00  0.00    -0.200 OA
BRANCH  27  30
HETATM   30  C10 UNL     1      29.921  10.750  47.583  1.00  0.00     0.079 A 
HETATM   31  C11 UNL     1      30.810  11.360  48.478  1.00  0.00     0.025 A 
HETATM   32  C12 UNL     1      30.457  12.475  49.210  1.00  0.00     0.002 A 
HETATM   33  C13 UNL     1      29.185  13.004  49.051  1.00  0.00     0.000 A 
HETATM   34  C14 UNL     1      28.312  12.401  48.168  1.00  0.00     0.002 A 
HETATM   35  C15 UNL     1      28.675  11.284  47.439  1.00  0.00     0.025 A 
ENDBRANCH  27  30
ENDBRANCH  25  27
ENDBRANCH  22  25
ENDBRANCH   1  19
TORSDOF 8
ENDMDL
