MODEL 1
REMARK VINA RESULT:      -9.3      0.000      0.000
REMARK  6 active torsions:
REMARK  status: ('A' for Active; 'I' for Inactive)
REMARK    1  A    between atoms: C5_5  and  N1_6 
REMARK    2  A    between atoms: N1_6  and  C6_7 
REMARK    3  A    between atoms: N4_17  and  C14_18 
REMARK    4  A    between atoms: C14_18  and  C15_19 
REMARK    5  A    between atoms: C15_19  and  C16_20 
REMARK    6  A    between atoms: C16_20  and  N5_21 
ROOT
HETATM    1  C6  UNL     1      26.679   2.229  51.887  1.00  0.00     0.142 A 
HETATM    2  N2  UNL     1      27.922   2.541  52.257  1.00  0.00    -0.224 NA
HETATM    3  C7  UNL     1      28.583   2.118  53.321  1.00  0.00     0.236 A 
HETATM    4  N3  UNL     1      27.970   1.272  54.160  1.00  0.00    -0.241 NA
HETATM    5  C8  UNL     1      26.692   0.875  53.892  1.00  0.00     0.075 A 
HETATM    6  C9  UNL     1      26.120   0.005  54.791  1.00  0.00     0.071 A 
HETATM    7  C10 UNL     1      24.831  -0.436  54.576  1.00  0.00     0.098 A 
HETATM    8  C11 UNL     1      24.147   0.007  53.465  1.00  0.00     0.071 A 
HETATM    9  C12 UNL     1      24.791   0.877  52.616  1.00  0.00     0.050 A 
HETATM   10  C13 UNL     1      26.070   1.360  52.762  1.00  0.00     0.041 A 
HETATM   11  N4  UNL     1      22.815  -0.446  53.234  1.00  0.00    -0.314 N 
HETATM   12  C21 UNL     1      22.249  -1.360  54.196  1.00  0.00     0.248 C 
HETATM   13  O2  UNL     1      21.253  -2.083  53.899  1.00  0.00    -0.271 OA
HETATM   14  C22 UNL     1      22.836  -1.469  55.575  1.00  0.00     0.279 C 
HETATM   15  O3  UNL     1      24.239  -1.311  55.469  1.00  0.00    -0.340 OA
ENDROOT
BRANCH   1  16
HETATM   16  N1  UNL     1      25.976   2.681  50.751  1.00  0.00    -0.340 N 
HETATM   17  H5  UNL     1      25.194   2.151  50.348  1.00  0.00     0.167 HD
BRANCH  16  18
HETATM   18  C5  UNL     1      26.217   3.869  50.021  1.00  0.00     0.034 A 
HETATM   19  C4  UNL     1      27.293   4.029  49.192  1.00  0.00     0.030 A 
HETATM   20  C3  UNL     1      27.557   5.169  48.483  1.00  0.00     0.013 A 
HETATM   21  C2  UNL     1      26.702   6.271  48.574  1.00  0.00    -0.036 A 
HETATM   22  C1  UNL     1      26.951   7.378  47.891  1.00  0.00     0.024 C 
HETATM   23  C24 UNL     1      25.610   6.149  49.397  1.00  0.00    -0.034 A 
HETATM   24  C23 UNL     1      25.402   4.978  50.081  1.00  0.00     0.041 A 
HETATM   25  C25 UNL     1      24.748   7.138  49.548  1.00  0.00     0.024 C 
ENDBRANCH  16  18
ENDBRANCH   1  16
BRANCH  11  26
HETATM   26  C14 UNL     1      22.076  -0.024  52.118  1.00  0.00     0.134 C 
BRANCH  26  27
HETATM   27  C15 UNL     1      21.208   1.169  52.492  1.00  0.00     0.050 C 
BRANCH  27  28
HETATM   28  C16 UNL     1      21.015   2.079  51.322  1.00  0.00     0.274 C 
BRANCH  28  29
HETATM   29  N5  UNL     1      22.125   2.946  51.037  1.00  0.00     0.092 N 
HETATM   30  C17 UNL     1      21.836   3.884  49.971  1.00  0.00     0.298 C 
HETATM   31  C18 UNL     1      20.806   4.926  50.370  1.00  0.00     0.198 C 
HETATM   32  O1  UNL     1      21.369   5.742  51.362  1.00  0.00    -0.388 OA
HETATM   33  C19 UNL     1      22.499   5.217  51.938  1.00  0.00     0.198 C 
HETATM   34  C20 UNL     1      22.386   3.735  52.222  1.00  0.00     0.298 C 
ENDBRANCH  28  29
ENDBRANCH  27  28
ENDBRANCH  26  27
ENDBRANCH  11  26
TORSDOF 6
ENDMDL
MODEL 2
REMARK VINA RESULT:      -9.3      1.833      5.057
REMARK  6 active torsions:
REMARK  status: ('A' for Active; 'I' for Inactive)
REMARK    1  A    between atoms: C5_5  and  N1_6 
REMARK    2  A    between atoms: N1_6  and  C6_7 
REMARK    3  A    between atoms: N4_17  and  C14_18 
REMARK    4  A    between atoms: C14_18  and  C15_19 
REMARK    5  A    between atoms: C15_19  and  C16_20 
REMARK    6  A    between atoms: C16_20  and  N5_21 
ROOT
HETATM    1  C6  UNL     1      23.274   2.922  50.156  1.00  0.00     0.142 A 
HETATM    2  N2  UNL     1      22.517   3.502  49.222  1.00  0.00    -0.224 NA
HETATM    3  C7  UNL     1      21.230   3.311  48.986  1.00  0.00     0.236 A 
HETATM    4  N3  UNL     1      20.562   2.438  49.751  1.00  0.00    -0.241 NA
HETATM    5  C8  UNL     1      21.226   1.778  50.745  1.00  0.00     0.075 A 
HETATM    6  C9  UNL     1      20.483   0.897  51.497  1.00  0.00     0.071 A 
HETATM    7  C10 UNL     1      21.093   0.200  52.518  1.00  0.00     0.098 A 
HETATM    8  C11 UNL     1      22.434   0.404  52.761  1.00  0.00     0.071 A 
HETATM    9  C12 UNL     1      23.105   1.301  51.964  1.00  0.00     0.050 A 
HETATM   10  C13 UNL     1      22.567   2.032  50.929  1.00  0.00     0.041 A 
HETATM   11  N4  UNL     1      23.073  -0.311  53.816  1.00  0.00    -0.314 N 
HETATM   12  C21 UNL     1      22.261  -1.225  54.585  1.00  0.00     0.248 C 
HETATM   13  O2  UNL     1      22.628  -1.612  55.733  1.00  0.00    -0.271 OA
HETATM   14  C22 UNL     1      20.962  -1.734  54.030  1.00  0.00     0.279 C 
HETATM   15  O3  UNL     1      20.363  -0.691  53.284  1.00  0.00    -0.340 OA
ENDROOT
BRANCH   1  16
HETATM   16  N1  UNL     1      24.646   3.128  50.407  1.00  0.00    -0.340 N 
HETATM   17  H5  UNL     1      25.159   2.583  51.110  1.00  0.00     0.167 HD
BRANCH  16  18
HETATM   18  C5  UNL     1      25.495   4.064  49.768  1.00  0.00     0.034 A 
HETATM   19  C4  UNL     1      26.761   3.759  49.351  1.00  0.00     0.030 A 
HETATM   20  C3  UNL     1      27.605   4.647  48.742  1.00  0.00     0.013 A 
HETATM   21  C2  UNL     1      27.197   5.962  48.505  1.00  0.00    -0.036 A 
HETATM   22  C1  UNL     1      28.009   6.826  47.916  1.00  0.00     0.024 C 
HETATM   23  C24 UNL     1      25.931   6.307  48.910  1.00  0.00    -0.034 A 
HETATM   24  C23 UNL     1      25.133   5.369  49.516  1.00  0.00     0.041 A 
HETATM   25  C25 UNL     1      25.459   7.526  48.730  1.00  0.00     0.024 C 
ENDBRANCH  16  18
ENDBRANCH   1  16
BRANCH  11  26
HETATM   26  C14 UNL     1      24.436  -0.140  54.104  1.00  0.00     0.134 C 
BRANCH  26  27
HETATM   27  C15 UNL     1      25.278  -0.921  53.104  1.00  0.00     0.050 C 
BRANCH  27  28
HETATM   28  C16 UNL     1      26.570  -0.220  52.830  1.00  0.00     0.274 C 
BRANCH  28  29
HETATM   29  N5  UNL     1      26.955   0.751  53.818  1.00  0.00     0.092 N 
HETATM   30  C17 UNL     1      27.898   0.217  54.780  1.00  0.00     0.298 C 
HETATM   31  C18 UNL     1      29.259  -0.068  54.171  1.00  0.00     0.198 C 
HETATM   32  O1  UNL     1      29.841   1.155  53.806  1.00  0.00    -0.388 OA
HETATM   33  C19 UNL     1      28.954   2.202  53.766  1.00  0.00     0.198 C 
HETATM   34  C20 UNL     1      27.629   1.834  53.134  1.00  0.00     0.298 C 
ENDBRANCH  28  29
ENDBRANCH  27  28
ENDBRANCH  26  27
ENDBRANCH  11  26
TORSDOF 6
ENDMDL
MODEL 3
REMARK VINA RESULT:      -9.2      1.811      6.402
REMARK  6 active torsions:
REMARK  status: ('A' for Active; 'I' for Inactive)
REMARK    1  A    between atoms: C5_5  and  N1_6 
REMARK    2  A    between atoms: N1_6  and  C6_7 
REMARK    3  A    between atoms: N4_17  and  C14_18 
REMARK    4  A    between atoms: C14_18  and  C15_19 
REMARK    5  A    between atoms: C15_19  and  C16_20 
REMARK    6  A    between atoms: C16_20  and  N5_21 
ROOT
HETATM    1  C6  UNL     1      25.748   2.923  50.949  1.00  0.00     0.142 A 
HETATM    2  N2  UNL     1      26.848   3.360  50.332  1.00  0.00    -0.224 NA
HETATM    3  C7  UNL     1      26.933   4.243  49.352  1.00  0.00     0.236 A 
HETATM    4  N3  UNL     1      25.803   4.794  48.888  1.00  0.00    -0.241 NA
HETATM    5  C8  UNL     1      24.608   4.429  49.438  1.00  0.00     0.075 A 
HETATM    6  C9  UNL     1      23.486   5.033  48.918  1.00  0.00     0.071 A 
HETATM    7  C10 UNL     1      22.248   4.710  49.431  1.00  0.00     0.098 A 
HETATM    8  C11 UNL     1      22.165   3.789  50.454  1.00  0.00     0.071 A 
HETATM    9  C12 UNL     1      23.334   3.232  50.916  1.00  0.00     0.050 A 
HETATM   10  C13 UNL     1      24.602   3.502  50.456  1.00  0.00     0.041 A 
HETATM   11  N4  UNL     1      20.888   3.451  50.992  1.00  0.00    -0.314 N 
HETATM   12  C21 UNL     1      19.734   4.106  50.424  1.00  0.00     0.248 C 
HETATM   13  O2  UNL     1      18.638   4.154  51.055  1.00  0.00    -0.271 OA
HETATM   14  C22 UNL     1      19.817   4.743  49.066  1.00  0.00     0.279 C 
HETATM   15  O3  UNL     1      21.108   5.305  48.921  1.00  0.00    -0.340 OA
ENDROOT
BRANCH   1  16
HETATM   16  N1  UNL     1      25.660   1.981  51.994  1.00  0.00    -0.340 N 
HETATM   17  H5  UNL     1      24.793   1.837  52.526  1.00  0.00     0.167 HD
BRANCH  16  18
HETATM   18  C5  UNL     1      26.690   1.128  52.458  1.00  0.00     0.034 A 
HETATM   19  C4  UNL     1      27.837   1.593  53.040  1.00  0.00     0.030 A 
HETATM   20  C3  UNL     1      28.853   0.793  53.487  1.00  0.00     0.013 A 
HETATM   21  C2  UNL     1      28.763  -0.597  53.366  1.00  0.00    -0.036 A 
HETATM   22  C1  UNL     1      29.742  -1.377  53.796  1.00  0.00     0.024 C 
HETATM   23  C24 UNL     1      27.626  -1.102  52.786  1.00  0.00    -0.034 A 
HETATM   24  C23 UNL     1      26.643  -0.245  52.358  1.00  0.00     0.041 A 
HETATM   25  C25 UNL     1      27.453  -2.401  52.628  1.00  0.00     0.024 C 
ENDBRANCH  16  18
ENDBRANCH   1  16
BRANCH  11  26
HETATM   26  C14 UNL     1      20.750   2.520  52.033  1.00  0.00     0.134 C 
BRANCH  26  27
HETATM   27  C15 UNL     1      20.557   1.124  51.456  1.00  0.00     0.050 C 
BRANCH  27  28
HETATM   28  C16 UNL     1      21.528   0.158  52.055  1.00  0.00     0.274 C 
BRANCH  28  29
HETATM   29  N5  UNL     1      21.890   0.429  53.419  1.00  0.00     0.092 N 
HETATM   30  C17 UNL     1      20.894  -0.043  54.361  1.00  0.00     0.298 C 
HETATM   31  C18 UNL     1      20.817  -1.558  54.422  1.00  0.00     0.198 C 
HETATM   32  O1  UNL     1      22.018  -2.036  54.968  1.00  0.00    -0.388 OA
HETATM   33  C19 UNL     1      23.030  -1.109  54.982  1.00  0.00     0.198 C 
HETATM   34  C20 UNL     1      23.108  -0.298  53.707  1.00  0.00     0.298 C 
ENDBRANCH  28  29
ENDBRANCH  27  28
ENDBRANCH  26  27
ENDBRANCH  11  26
TORSDOF 6
ENDMDL
MODEL 4
REMARK VINA RESULT:      -9.2      1.579      1.940
REMARK  6 active torsions:
REMARK  status: ('A' for Active; 'I' for Inactive)
REMARK    1  A    between atoms: C5_5  and  N1_6 
REMARK    2  A    between atoms: N1_6  and  C6_7 
REMARK    3  A    between atoms: N4_17  and  C14_18 
REMARK    4  A    between atoms: C14_18  and  C15_19 
REMARK    5  A    between atoms: C15_19  and  C16_20 
REMARK    6  A    between atoms: C16_20  and  N5_21 
ROOT
HETATM    1  C6  UNL     1      25.884   2.392  51.641  1.00  0.00     0.142 A 
HETATM    2  N2  UNL     1      27.185   2.258  51.903  1.00  0.00    -0.224 NA
HETATM    3  C7  UNL     1      27.763   1.399  52.727  1.00  0.00     0.236 A 
HETATM    4  N3  UNL     1      26.988   0.541  53.403  1.00  0.00    -0.241 NA
HETATM    5  C8  UNL     1      25.636   0.577  53.221  1.00  0.00     0.075 A 
HETATM    6  C9  UNL     1      24.897  -0.332  53.943  1.00  0.00     0.071 A 
HETATM    7  C10 UNL     1      23.525  -0.348  53.803  1.00  0.00     0.098 A 
HETATM    8  C11 UNL     1      22.928   0.547  52.942  1.00  0.00     0.071 A 
HETATM    9  C12 UNL     1      23.738   1.423  52.259  1.00  0.00     0.050 A 
HETATM   10  C13 UNL     1      25.109   1.500  52.345  1.00  0.00     0.041 A 
HETATM   11  N4  UNL     1      21.510   0.535  52.790  1.00  0.00    -0.314 N 
HETATM   12  C21 UNL     1      20.768  -0.433  53.561  1.00  0.00     0.248 C 
HETATM   13  O2  UNL     1      19.591  -0.763  53.231  1.00  0.00    -0.271 OA
HETATM   14  C22 UNL     1      21.385  -1.069  54.774  1.00  0.00     0.279 C 
HETATM   15  O3  UNL     1      22.765  -1.254  54.520  1.00  0.00    -0.340 OA
ENDROOT
BRANCH   1  16
HETATM   16  N1  UNL     1      25.269   3.308  50.762  1.00  0.00    -0.340 N 
HETATM   17  H5  UNL     1      24.256   3.310  50.600  1.00  0.00     0.167 HD
BRANCH  16  18
HETATM   18  C5  UNL     1      25.911   4.316  50.002  1.00  0.00     0.034 A 
HETATM   19  C4  UNL     1      27.021   4.081  49.240  1.00  0.00     0.030 A 
HETATM   20  C3  UNL     1      27.667   5.038  48.505  1.00  0.00     0.013 A 
HETATM   21  C2  UNL     1      27.201   6.356  48.496  1.00  0.00    -0.036 A 
HETATM   22  C1  UNL     1      27.821   7.287  47.788  1.00  0.00     0.024 C 
HETATM   23  C24 UNL     1      26.087   6.631  49.250  1.00  0.00    -0.034 A 
HETATM   24  C23 UNL     1      25.486   5.626  49.966  1.00  0.00     0.041 A 
HETATM   25  C25 UNL     1      25.576   7.847  49.305  1.00  0.00     0.024 C 
ENDBRANCH  16  18
ENDBRANCH   1  16
BRANCH  11  26
HETATM   26  C14 UNL     1      20.854   1.427  51.927  1.00  0.00     0.134 C 
BRANCH  26  27
HETATM   27  C15 UNL     1      20.660   0.780  50.563  1.00  0.00     0.050 C 
BRANCH  27  28
HETATM   28  C16 UNL     1      19.783   1.620  49.692  1.00  0.00     0.274 C 
BRANCH  28  29
HETATM   29  N5  UNL     1      20.369   2.012  48.439  1.00  0.00     0.092 N 
HETATM   30  C17 UNL     1      20.500   3.450  48.315  1.00  0.00     0.298 C 
HETATM   31  C18 UNL     1      21.536   4.028  49.263  1.00  0.00     0.198 C 
HETATM   32  O1  UNL     1      22.799   3.562  48.869  1.00  0.00    -0.388 OA
HETATM   33  C19 UNL     1      22.754   2.496  48.006  1.00  0.00     0.198 C 
HETATM   34  C20 UNL     1      21.710   1.468  48.387  1.00  0.00     0.298 C 
ENDBRANCH  28  29
ENDBRANCH  27  28
ENDBRANCH  26  27
ENDBRANCH  11  26
TORSDOF 6
ENDMDL
MODEL 5
REMARK VINA RESULT:      -9.0      2.251      6.188
REMARK  6 active torsions:
REMARK  status: ('A' for Active; 'I' for Inactive)
REMARK    1  A    between atoms: C5_5  and  N1_6 
REMARK    2  A    between atoms: N1_6  and  C6_7 
REMARK    3  A    between atoms: N4_17  and  C14_18 
REMARK    4  A    between atoms: C14_18  and  C15_19 
REMARK    5  A    between atoms: C15_19  and  C16_20 
REMARK    6  A    between atoms: C16_20  and  N5_21 
ROOT
HETATM    1  C6  UNL     1      23.850   0.045  53.345  1.00  0.00     0.142 A 
HETATM    2  N2  UNL     1      23.724  -0.844  54.332  1.00  0.00    -0.224 NA
HETATM    3  C7  UNL     1      22.632  -1.157  55.009  1.00  0.00     0.236 A 
HETATM    4  N3  UNL     1      21.488  -0.529  54.702  1.00  0.00    -0.241 NA
HETATM    5  C8  UNL     1      21.486   0.405  53.708  1.00  0.00     0.075 A 
HETATM    6  C9  UNL     1      20.279   1.011  53.440  1.00  0.00     0.071 A 
HETATM    7  C10 UNL     1      20.209   1.963  52.445  1.00  0.00     0.098 A 
HETATM    8  C11 UNL     1      21.350   2.284  51.742  1.00  0.00     0.071 A 
HETATM    9  C12 UNL     1      22.515   1.632  52.071  1.00  0.00     0.050 A 
HETATM   10  C13 UNL     1      22.664   0.675  53.048  1.00  0.00     0.041 A 
HETATM   11  N4  UNL     1      21.285   3.265  50.709  1.00  0.00    -0.314 N 
HETATM   12  C21 UNL     1      20.003   3.878  50.455  1.00  0.00     0.248 C 
HETATM   13  O2  UNL     1      19.768   4.463  49.358  1.00  0.00    -0.271 OA
HETATM   14  C22 UNL     1      18.921   3.830  51.497  1.00  0.00     0.279 C 
HETATM   15  O3  UNL     1      19.005   2.584  52.162  1.00  0.00    -0.340 OA
ENDROOT
BRANCH   1  16
HETATM   16  N1  UNL     1      25.016   0.377  52.624  1.00  0.00    -0.340 N 
HETATM   17  H5  UNL     1      24.988   0.968  51.785  1.00  0.00     0.167 HD
BRANCH  16  18
HETATM   18  C5  UNL     1      26.340  -0.028  52.919  1.00  0.00     0.034 A 
HETATM   19  C4  UNL     1      26.816  -1.279  52.641  1.00  0.00     0.030 A 
HETATM   20  C3  UNL     1      28.087  -1.700  52.924  1.00  0.00     0.013 A 
HETATM   21  C2  UNL     1      28.998  -0.833  53.536  1.00  0.00    -0.036 A 
HETATM   22  C1  UNL     1      30.229  -1.234  53.814  1.00  0.00     0.024 C 
HETATM   23  C24 UNL     1      28.556   0.432  53.832  1.00  0.00    -0.034 A 
HETATM   24  C23 UNL     1      27.269   0.792  53.521  1.00  0.00     0.041 A 
HETATM   25  C25 UNL     1      29.345   1.319  54.411  1.00  0.00     0.024 C 
ENDBRANCH  16  18
ENDBRANCH   1  16
BRANCH  11  26
HETATM   26  C14 UNL     1      22.418   3.628  49.964  1.00  0.00     0.134 C 
BRANCH  26  27
HETATM   27  C15 UNL     1      23.086   4.841  50.597  1.00  0.00     0.050 C 
BRANCH  27  28
HETATM   28  C16 UNL     1      24.575   4.718  50.546  1.00  0.00     0.274 C 
BRANCH  28  29
HETATM   29  N5  UNL     1      25.136   4.673  49.224  1.00  0.00     0.092 N 
HETATM   30  C17 UNL     1      25.131   5.970  48.576  1.00  0.00     0.298 C 
HETATM   31  C18 UNL     1      26.095   6.950  49.219  1.00  0.00     0.198 C 
HETATM   32  O1  UNL     1      27.402   6.492  48.994  1.00  0.00    -0.388 OA
HETATM   33  C19 UNL     1      27.469   5.183  48.586  1.00  0.00     0.198 C 
HETATM   34  C20 UNL     1      26.523   4.277  49.344  1.00  0.00     0.298 C 
ENDBRANCH  28  29
ENDBRANCH  27  28
ENDBRANCH  26  27
ENDBRANCH  11  26
TORSDOF 6
ENDMDL
MODEL 6
REMARK VINA RESULT:      -8.9      2.658      5.552
REMARK  6 active torsions:
REMARK  status: ('A' for Active; 'I' for Inactive)
REMARK    1  A    between atoms: C5_5  and  N1_6 
REMARK    2  A    between atoms: N1_6  and  C6_7 
REMARK    3  A    between atoms: N4_17  and  C14_18 
REMARK    4  A    between atoms: C14_18  and  C15_19 
REMARK    5  A    between atoms: C15_19  and  C16_20 
REMARK    6  A    between atoms: C16_20  and  N5_21 
ROOT
HETATM    1  C6  UNL     1      23.615  -0.290  53.518  1.00  0.00     0.142 A 
HETATM    2  N2  UNL     1      23.751  -1.005  54.637  1.00  0.00    -0.224 NA
HETATM    3  C7  UNL     1      22.796  -1.530  55.386  1.00  0.00     0.236 A 
HETATM    4  N3  UNL     1      21.521  -1.348  55.018  1.00  0.00    -0.241 NA
HETATM    5  C8  UNL     1      21.249  -0.632  53.888  1.00  0.00     0.075 A 
HETATM    6  C9  UNL     1      19.920  -0.483  53.563  1.00  0.00     0.071 A 
HETATM    7  C10 UNL     1      19.578   0.228  52.432  1.00  0.00     0.098 A 
HETATM    8  C11 UNL     1      20.577   0.772  51.654  1.00  0.00     0.071 A 
HETATM    9  C12 UNL     1      21.879   0.577  52.048  1.00  0.00     0.050 A 
HETATM   10  C13 UNL     1      22.299  -0.117  53.160  1.00  0.00     0.041 A 
HETATM   11  N4  UNL     1      20.232   1.506  50.481  1.00  0.00    -0.314 N 
HETATM   12  C21 UNL     1      18.828   1.640  50.170  1.00  0.00     0.248 C 
HETATM   13  O2  UNL     1      18.447   1.939  49.001  1.00  0.00    -0.271 OA
HETATM   14  C22 UNL     1      17.793   1.424  51.237  1.00  0.00     0.279 C 
HETATM   15  O3  UNL     1      18.247   0.389  52.089  1.00  0.00    -0.340 OA
ENDROOT
BRANCH   1  16
HETATM   16  N1  UNL     1      24.635   0.269  52.720  1.00  0.00    -0.340 N 
HETATM   17  H5  UNL     1      24.427   0.822  51.880  1.00  0.00     0.167 HD
BRANCH  16  18
HETATM   18  C5  UNL     1      26.031   0.166  52.932  1.00  0.00     0.034 A 
HETATM   19  C4  UNL     1      26.711  -1.018  52.856  1.00  0.00     0.030 A 
HETATM   20  C3  UNL     1      28.056  -1.147  53.067  1.00  0.00     0.013 A 
HETATM   21  C2  UNL     1      28.833  -0.029  53.381  1.00  0.00    -0.036 A 
HETATM   22  C1  UNL     1      30.136  -0.147  53.586  1.00  0.00     0.024 C 
HETATM   23  C24 UNL     1      28.186   1.179  53.467  1.00  0.00    -0.034 A 
HETATM   24  C23 UNL     1      26.833   1.241  53.245  1.00  0.00     0.041 A 
HETATM   25  C25 UNL     1      28.837   2.289  53.761  1.00  0.00     0.024 C 
ENDBRANCH  16  18
ENDBRANCH   1  16
BRANCH  11  26
HETATM   26  C14 UNL     1      21.211   2.080  49.656  1.00  0.00     0.134 C 
BRANCH  26  27
HETATM   27  C15 UNL     1      21.310   3.574  49.932  1.00  0.00     0.050 C 
BRANCH  27  28
HETATM   28  C16 UNL     1      22.560   3.897  50.685  1.00  0.00     0.274 C 
BRANCH  28  29
HETATM   29  N5  UNL     1      22.497   5.091  51.483  1.00  0.00     0.092 N 
HETATM   30  C17 UNL     1      23.712   5.879  51.399  1.00  0.00     0.298 C 
HETATM   31  C18 UNL     1      23.909   6.506  50.031  1.00  0.00     0.198 C 
HETATM   32  O1  UNL     1      22.901   7.462  49.837  1.00  0.00    -0.388 OA
HETATM   33  C19 UNL     1      21.854   7.352  50.717  1.00  0.00     0.198 C 
HETATM   34  C20 UNL     1      21.431   5.919  50.959  1.00  0.00     0.298 C 
ENDBRANCH  28  29
ENDBRANCH  27  28
ENDBRANCH  26  27
ENDBRANCH  11  26
TORSDOF 6
ENDMDL
MODEL 7
REMARK VINA RESULT:      -8.8      1.662      2.601
REMARK  6 active torsions:
REMARK  status: ('A' for Active; 'I' for Inactive)
REMARK    1  A    between atoms: C5_5  and  N1_6 
REMARK    2  A    between atoms: N1_6  and  C6_7 
REMARK    3  A    between atoms: N4_17  and  C14_18 
REMARK    4  A    between atoms: C14_18  and  C15_19 
REMARK    5  A    between atoms: C15_19  and  C16_20 
REMARK    6  A    between atoms: C16_20  and  N5_21 
ROOT
HETATM    1  C6  UNL     1      26.517   2.501  51.031  1.00  0.00     0.142 A 
HETATM    2  N2  UNL     1      27.590   2.523  51.823  1.00  0.00    -0.224 NA
HETATM    3  C7  UNL     1      27.682   2.118  53.079  1.00  0.00     0.236 A 
HETATM    4  N3  UNL     1      26.589   1.617  53.670  1.00  0.00    -0.241 NA
HETATM    5  C8  UNL     1      25.424   1.539  52.963  1.00  0.00     0.075 A 
HETATM    6  C9  UNL     1      24.340   1.013  53.627  1.00  0.00     0.071 A 
HETATM    7  C10 UNL     1      23.134   0.905  52.968  1.00  0.00     0.098 A 
HETATM    8  C11 UNL     1      23.044   1.328  51.659  1.00  0.00     0.071 A 
HETATM    9  C12 UNL     1      24.174   1.842  51.069  1.00  0.00     0.050 A 
HETATM   10  C13 UNL     1      25.409   1.981  51.659  1.00  0.00     0.041 A 
HETATM   11  N4  UNL     1      21.801   1.217  50.970  1.00  0.00    -0.314 N 
HETATM   12  C21 UNL     1      20.686   0.658  51.696  1.00  0.00     0.248 C 
HETATM   13  O2  UNL     1      19.680   0.191  51.086  1.00  0.00    -0.271 OA
HETATM   14  C22 UNL     1      20.702   0.623  53.198  1.00  0.00     0.279 C 
HETATM   15  O3  UNL     1      22.031   0.379  53.618  1.00  0.00    -0.340 OA
ENDROOT
BRANCH   1  16
HETATM   16  N1  UNL     1      26.422   2.933  49.692  1.00  0.00    -0.340 N 
HETATM   17  H5  UNL     1      26.196   2.287  48.926  1.00  0.00     0.167 HD
BRANCH  16  18
HETATM   18  C5  UNL     1      26.611   4.250  49.210  1.00  0.00     0.034 A 
HETATM   19  C4  UNL     1      25.612   5.183  49.177  1.00  0.00     0.030 A 
HETATM   20  C3  UNL     1      25.764   6.459  48.707  1.00  0.00     0.013 A 
HETATM   21  C2  UNL     1      27.001   6.889  48.220  1.00  0.00    -0.036 A 
HETATM   22  C1  UNL     1      27.156   8.122  47.764  1.00  0.00     0.024 C 
HETATM   23  C24 UNL     1      28.031   5.981  48.237  1.00  0.00    -0.034 A 
HETATM   24  C23 UNL     1      27.812   4.716  48.721  1.00  0.00     0.041 A 
HETATM   25  C25 UNL     1      29.234   6.296  47.795  1.00  0.00     0.024 C 
ENDBRANCH  16  18
ENDBRANCH   1  16
BRANCH  11  26
HETATM   26  C14 UNL     1      21.657   1.634  49.637  1.00  0.00     0.134 C 
BRANCH  26  27
HETATM   27  C15 UNL     1      20.779   2.876  49.575  1.00  0.00     0.050 C 
BRANCH  27  28
HETATM   28  C16 UNL     1      21.548   4.050  49.060  1.00  0.00     0.274 C 
BRANCH  28  29
HETATM   29  N5  UNL     1      21.073   5.330  49.509  1.00  0.00     0.092 N 
HETATM   30  C17 UNL     1      21.091   5.452  50.954  1.00  0.00     0.298 C 
HETATM   31  C18 UNL     1      22.498   5.499  51.520  1.00  0.00     0.198 C 
HETATM   32  O1  UNL     1      23.103   6.692  51.097  1.00  0.00    -0.388 OA
HETATM   33  C19 UNL     1      22.447   7.309  50.060  1.00  0.00     0.198 C 
HETATM   34  C20 UNL     1      21.974   6.341  48.998  1.00  0.00     0.298 C 
ENDBRANCH  28  29
ENDBRANCH  27  28
ENDBRANCH  26  27
ENDBRANCH  11  26
TORSDOF 6
ENDMDL
MODEL 8
REMARK VINA RESULT:      -8.8      2.088      5.353
REMARK  6 active torsions:
REMARK  status: ('A' for Active; 'I' for Inactive)
REMARK    1  A    between atoms: C5_5  and  N1_6 
REMARK    2  A    between atoms: N1_6  and  C6_7 
REMARK    3  A    between atoms: N4_17  and  C14_18 
REMARK    4  A    between atoms: C14_18  and  C15_19 
REMARK    5  A    between atoms: C15_19  and  C16_20 
REMARK    6  A    between atoms: C16_20  and  N5_21 
ROOT
HETATM    1  C6  UNL     1      22.133  -0.453  52.801  1.00  0.00     0.142 A 
HETATM    2  N2  UNL     1      21.225  -1.048  53.577  1.00  0.00    -0.224 NA
HETATM    3  C7  UNL     1      21.395  -1.549  54.789  1.00  0.00     0.236 A 
HETATM    4  N3  UNL     1      22.611  -1.474  55.347  1.00  0.00    -0.241 NA
HETATM    5  C8  UNL     1      23.628  -0.886  54.653  1.00  0.00     0.075 A 
HETATM    6  C9  UNL     1      24.851  -0.839  55.282  1.00  0.00     0.071 A 
HETATM    7  C10 UNL     1      25.920  -0.256  54.636  1.00  0.00     0.098 A 
HETATM    8  C11 UNL     1      25.737   0.266  53.373  1.00  0.00     0.071 A 
HETATM    9  C12 UNL     1      24.484   0.178  52.814  1.00  0.00     0.050 A 
HETATM   10  C13 UNL     1      23.372  -0.387  53.395  1.00  0.00     0.041 A 
HETATM   11  N4  UNL     1      26.837   0.873  52.698  1.00  0.00    -0.314 N 
HETATM   12  C21 UNL     1      28.103   0.907  53.390  1.00  0.00     0.248 C 
HETATM   13  O2  UNL     1      29.010   1.720  53.047  1.00  0.00    -0.271 OA
HETATM   14  C22 UNL     1      28.366  -0.030  54.535  1.00  0.00     0.279 C 
HETATM   15  O3  UNL     1      27.158  -0.199  55.252  1.00  0.00    -0.340 OA
ENDROOT
BRANCH   1  16
HETATM   16  N1  UNL     1      21.949   0.081  51.509  1.00  0.00    -0.340 N 
HETATM   17  H5  UNL     1      22.234  -0.429  50.664  1.00  0.00     0.167 HD
BRANCH  16  18
HETATM   18  C5  UNL     1      21.376   1.333  51.181  1.00  0.00     0.034 A 
HETATM   19  C4  UNL     1      21.411   2.411  52.022  1.00  0.00     0.030 A 
HETATM   20  C3  UNL     1      20.857   3.629  51.736  1.00  0.00     0.013 A 
HETATM   21  C2  UNL     1      20.203   3.839  50.519  1.00  0.00    -0.036 A 
HETATM   22  C1  UNL     1      19.664   5.014  50.235  1.00  0.00     0.024 C 
HETATM   23  C24 UNL     1      20.147   2.779  49.647  1.00  0.00    -0.034 A 
HETATM   24  C23 UNL     1      20.723   1.583  49.995  1.00  0.00     0.041 A 
HETATM   25  C25 UNL     1      19.549   2.883  48.475  1.00  0.00     0.024 C 
ENDBRANCH  16  18
ENDBRANCH   1  16
BRANCH  11  26
HETATM   26  C14 UNL     1      26.703   1.418  51.412  1.00  0.00     0.134 C 
BRANCH  26  27
HETATM   27  C15 UNL     1      26.139   2.829  51.503  1.00  0.00     0.050 C 
BRANCH  27  28
HETATM   28  C16 UNL     1      25.596   3.275  50.184  1.00  0.00     0.274 C 
BRANCH  28  29
HETATM   29  N5  UNL     1      24.261   3.805  50.225  1.00  0.00     0.092 N 
HETATM   30  C17 UNL     1      24.238   5.226  50.509  1.00  0.00     0.298 C 
HETATM   31  C18 UNL     1      24.799   6.060  49.371  1.00  0.00     0.198 C 
HETATM   32  O1  UNL     1      23.933   5.945  48.274  1.00  0.00    -0.388 OA
HETATM   33  C19 UNL     1      23.046   4.902  48.374  1.00  0.00     0.198 C 
HETATM   34  C20 UNL     1      23.677   3.636  48.911  1.00  0.00     0.298 C 
ENDBRANCH  28  29
ENDBRANCH  27  28
ENDBRANCH  26  27
ENDBRANCH  11  26
TORSDOF 6
ENDMDL
MODEL 9
REMARK VINA RESULT:      -8.1      2.040      3.270
REMARK  6 active torsions:
REMARK  status: ('A' for Active; 'I' for Inactive)
REMARK    1  A    between atoms: C5_5  and  N1_6 
REMARK    2  A    between atoms: N1_6  and  C6_7 
REMARK    3  A    between atoms: N4_17  and  C14_18 
REMARK    4  A    between atoms: C14_18  and  C15_19 
REMARK    5  A    between atoms: C15_19  and  C16_20 
REMARK    6  A    between atoms: C16_20  and  N5_21 
ROOT
HETATM    1  C6  UNL     1      24.260   3.191  50.755  1.00  0.00     0.142 A 
HETATM    2  N2  UNL     1      25.453   3.534  50.265  1.00  0.00    -0.224 NA
HETATM    3  C7  UNL     1      26.631   3.005  50.551  1.00  0.00     0.236 A 
HETATM    4  N3  UNL     1      26.683   2.000  51.436  1.00  0.00    -0.241 NA
HETATM    5  C8  UNL     1      25.526   1.555  52.009  1.00  0.00     0.075 A 
HETATM    6  C9  UNL     1      25.648   0.520  52.907  1.00  0.00     0.071 A 
HETATM    7  C10 UNL     1      24.517   0.023  53.520  1.00  0.00     0.098 A 
HETATM    8  C11 UNL     1      23.292   0.577  53.217  1.00  0.00     0.071 A 
HETATM    9  C12 UNL     1      23.257   1.609  52.310  1.00  0.00     0.050 A 
HETATM   10  C13 UNL     1      24.338   2.158  51.659  1.00  0.00     0.041 A 
HETATM   11  N4  UNL     1      22.117   0.067  53.845  1.00  0.00    -0.314 N 
HETATM   12  C21 UNL     1      22.282  -1.021  54.779  1.00  0.00     0.248 C 
HETATM   13  O2  UNL     1      21.305  -1.761  55.094  1.00  0.00    -0.271 OA
HETATM   14  C22 UNL     1      23.625  -1.292  55.396  1.00  0.00     0.279 C 
HETATM   15  O3  UNL     1      24.618  -1.018  54.426  1.00  0.00    -0.340 OA
ENDROOT
BRANCH   1  16
HETATM   16  N1  UNL     1      23.005   3.756  50.448  1.00  0.00    -0.340 N 
HETATM   17  H5  UNL     1      22.142   3.199  50.448  1.00  0.00     0.167 HD
BRANCH  16  18
HETATM   18  C5  UNL     1      22.741   5.105  50.109  1.00  0.00     0.034 A 
HETATM   19  C4  UNL     1      22.252   6.016  51.004  1.00  0.00     0.030 A 
HETATM   20  C3  UNL     1      21.979   7.322  50.701  1.00  0.00     0.013 A 
HETATM   21  C2  UNL     1      22.197   7.808  49.409  1.00  0.00    -0.036 A 
HETATM   22  C1  UNL     1      21.935   9.071  49.108  1.00  0.00     0.024 C 
HETATM   23  C24 UNL     1      22.688   6.923  48.482  1.00  0.00    -0.034 A 
HETATM   24  C23 UNL     1      22.941   5.625  48.849  1.00  0.00     0.041 A 
HETATM   25  C25 UNL     1      22.923   7.290  47.236  1.00  0.00     0.024 C 
ENDBRANCH  16  18
ENDBRANCH   1  16
BRANCH  11  26
HETATM   26  C14 UNL     1      20.846   0.597  53.571  1.00  0.00     0.134 C 
BRANCH  26  27
HETATM   27  C15 UNL     1      20.256  -0.081  52.343  1.00  0.00     0.050 C 
BRANCH  27  28
HETATM   28  C16 UNL     1      18.809   0.261  52.186  1.00  0.00     0.274 C 
BRANCH  28  29
HETATM   29  N5  UNL     1      18.454   0.829  50.914  1.00  0.00     0.092 N 
HETATM   30  C17 UNL     1      17.867   2.148  51.041  1.00  0.00     0.298 C 
HETATM   31  C18 UNL     1      18.865   3.192  51.507  1.00  0.00     0.198 C 
HETATM   32  O1  UNL     1      19.819   3.369  50.494  1.00  0.00    -0.388 OA
HETATM   33  C19 UNL     1      19.818   2.374  49.549  1.00  0.00     0.198 C 
HETATM   34  C20 UNL     1      19.671   0.991  50.146  1.00  0.00     0.298 C 
ENDBRANCH  28  29
ENDBRANCH  27  28
ENDBRANCH  26  27
ENDBRANCH  11  26
TORSDOF 6
ENDMDL
