MODEL 1
REMARK VINA RESULT:      -6.9      0.000      0.000
REMARK  4 active torsions:
REMARK  status: ('A' for Active; 'I' for Inactive)
REMARK    1  A    between atoms: O1_2  and  C2_3 
REMARK    2  A    between atoms: C2_3  and  N1_4 
REMARK    3  A    between atoms: C9_12  and  O2_13 
REMARK    4  A    between atoms: C11_15  and  O3_16 
ROOT
HETATM    1  N1  UNL     1      26.275   1.173  52.773  1.00  0.00    -0.327 N 
HETATM    2  C3  UNL     1      26.677   1.900  51.623  1.00  0.00     0.096 A 
HETATM    3  C4  UNL     1      25.754   2.657  50.991  1.00  0.00     0.044 A 
HETATM    4  C5  UNL     1      24.321   2.838  51.364  1.00  0.00     0.031 A 
HETATM    5  C6  UNL     1      23.826   2.198  52.477  1.00  0.00     0.176 A 
HETATM    6  C7  UNL     1      24.945   1.375  53.082  1.00  0.00     0.088 A 
HETATM    7  N2  UNL     1      23.726   1.124  53.261  1.00  0.00    -0.248 NA
HETATM    8  C8  UNL     1      23.098  -0.115  53.064  1.00  0.00     0.165 C 
HETATM    9  C9  UNL     1      21.973  -0.595  53.794  1.00  0.00     0.092 C 
HETATM   10  C11 UNL     1      20.882  -0.322  53.028  1.00  0.00     0.098 C 
HETATM   11  C13 UNL     1      20.681   0.371  51.732  1.00  0.00     0.035 C 
HETATM   12  C14 UNL     1      21.156   1.049  50.655  1.00  0.00    -0.022 C 
HETATM   13  C15 UNL     1      22.451   1.547  50.120  1.00  0.00     0.047 C 
HETATM   14  C16 UNL     1      22.428   3.048  50.239  1.00  0.00     0.123 C 
HETATM   15  N3  UNL     1      23.801   3.573  50.202  1.00  0.00    -0.391 N 
HETATM   16  H23 UNL     1      24.294   4.238  49.600  1.00  0.00     0.159 HD
ENDROOT
BRANCH   1  17
HETATM   17  C2  UNL     1      26.796   0.310  53.746  1.00  0.00     0.298 C 
BRANCH  17  18
HETATM   18  O1  UNL     1      27.552   0.975  54.689  1.00  0.00    -0.377 OA
HETATM   19  C1  UNL     1      28.896   0.839  54.526  1.00  0.00     0.203 C 
ENDBRANCH  17  18
ENDBRANCH   1  17
BRANCH   9  20
HETATM   20  O2  UNL     1      21.912  -1.207  55.009  1.00  0.00    -0.356 OA
HETATM   21  C10 UNL     1      23.085  -1.594  55.678  1.00  0.00     0.209 C 
ENDBRANCH   9  20
BRANCH  10  22
HETATM   22  O3  UNL     1      19.779  -0.802  53.689  1.00  0.00    -0.353 OA
HETATM   23  C12 UNL     1      18.504  -1.012  53.163  1.00  0.00     0.210 C 
ENDBRANCH  10  22
TORSDOF 4
ENDMDL
MODEL 2
REMARK VINA RESULT:      -6.9      2.334      4.632
REMARK  4 active torsions:
REMARK  status: ('A' for Active; 'I' for Inactive)
REMARK    1  A    between atoms: O1_2  and  C2_3 
REMARK    2  A    between atoms: C2_3  and  N1_4 
REMARK    3  A    between atoms: C9_12  and  O2_13 
REMARK    4  A    between atoms: C11_15  and  O3_16 
ROOT
HETATM    1  N1  UNL     1      25.078  -0.611  54.800  1.00  0.00    -0.327 N 
HETATM    2  C3  UNL     1      24.271  -1.282  55.755  1.00  0.00     0.096 A 
HETATM    3  C4  UNL     1      22.985  -1.541  55.436  1.00  0.00     0.044 A 
HETATM    4  C5  UNL     1      22.283  -1.208  54.163  1.00  0.00     0.031 A 
HETATM    5  C6  UNL     1      22.973  -0.578  53.155  1.00  0.00     0.176 A 
HETATM    6  C7  UNL     1      24.387  -0.328  53.639  1.00  0.00     0.088 A 
HETATM    7  N2  UNL     1      23.839   0.343  52.728  1.00  0.00    -0.248 NA
HETATM    8  C8  UNL     1      23.753   1.743  52.668  1.00  0.00     0.165 C 
HETATM    9  C9  UNL     1      23.727   2.516  51.473  1.00  0.00     0.092 C 
HETATM   10  C11 UNL     1      22.416   2.782  51.223  1.00  0.00     0.098 C 
HETATM   11  C13 UNL     1      21.144   2.391  51.878  1.00  0.00     0.035 C 
HETATM   12  C14 UNL     1      20.452   1.727  52.840  1.00  0.00    -0.022 C 
HETATM   13  C15 UNL     1      20.713   0.847  54.009  1.00  0.00     0.047 C 
HETATM   14  C16 UNL     1      20.243  -0.534  53.634  1.00  0.00     0.123 C 
HETATM   15  N3  UNL     1      20.888  -1.534  54.498  1.00  0.00    -0.391 N 
HETATM   16  H23 UNL     1      20.541  -2.254  55.138  1.00  0.00     0.159 HD
ENDROOT
BRANCH   1  17
HETATM   17  C2  UNL     1      26.387  -0.145  54.624  1.00  0.00     0.298 C 
BRANCH  17  18
HETATM   18  O1  UNL     1      27.141  -0.984  53.831  1.00  0.00    -0.377 OA
HETATM   19  C1  UNL     1      28.421  -0.565  53.633  1.00  0.00     0.203 C 
ENDBRANCH  17  18
ENDBRANCH   1  17
BRANCH   9  20
HETATM   20  O2  UNL     1      24.750   2.944  50.682  1.00  0.00    -0.356 OA
HETATM   21  C10 UNL     1      26.085   2.669  51.023  1.00  0.00     0.209 C 
ENDBRANCH   9  20
BRANCH  10  22
HETATM   22  O3  UNL     1      22.356   3.556  50.092  1.00  0.00    -0.353 OA
HETATM   23  C12 UNL     1      21.785   4.822  49.964  1.00  0.00     0.210 C 
ENDBRANCH  10  22
TORSDOF 4
ENDMDL
MODEL 3
REMARK VINA RESULT:      -6.5      2.734      6.573
REMARK  4 active torsions:
REMARK  status: ('A' for Active; 'I' for Inactive)
REMARK    1  A    between atoms: O1_2  and  C2_3 
REMARK    2  A    between atoms: C2_3  and  N1_4 
REMARK    3  A    between atoms: C9_12  and  O2_13 
REMARK    4  A    between atoms: C11_15  and  O3_16 
ROOT
HETATM    1  N1  UNL     1      19.162   1.556  51.177  1.00  0.00    -0.327 N 
HETATM    2  C3  UNL     1      18.485   0.324  51.370  1.00  0.00     0.096 A 
HETATM    3  C4  UNL     1      18.855  -0.452  52.411  1.00  0.00     0.044 A 
HETATM    4  C5  UNL     1      19.914  -0.167  53.422  1.00  0.00     0.031 A 
HETATM    5  C6  UNL     1      20.621   1.010  53.348  1.00  0.00     0.176 A 
HETATM    6  C7  UNL     1      20.129   1.777  52.137  1.00  0.00     0.088 A 
HETATM    7  N2  UNL     1      21.265   1.945  52.648  1.00  0.00    -0.248 NA
HETATM    8  C8  UNL     1      22.492   1.916  51.967  1.00  0.00     0.165 C 
HETATM    9  C9  UNL     1      23.650   2.667  52.322  1.00  0.00     0.092 C 
HETATM   10  C11 UNL     1      24.438   1.827  53.045  1.00  0.00     0.098 C 
HETATM   11  C13 UNL     1      24.285   0.432  53.528  1.00  0.00     0.035 C 
HETATM   12  C14 UNL     1      23.570  -0.716  53.651  1.00  0.00    -0.022 C 
HETATM   13  C15 UNL     1      22.251  -1.270  53.244  1.00  0.00     0.047 C 
HETATM   14  C16 UNL     1      21.419  -1.385  54.494  1.00  0.00     0.123 C 
HETATM   15  N3  UNL     1      19.993  -1.448  54.141  1.00  0.00    -0.391 N 
HETATM   16  H23 UNL     1      19.245  -2.125  54.313  1.00  0.00     0.159 HD
ENDROOT
BRANCH   1  17
HETATM   17  C2  UNL     1      19.165   2.669  50.327  1.00  0.00     0.298 C 
BRANCH  17  18
HETATM   18  O1  UNL     1      19.227   2.314  48.996  1.00  0.00    -0.377 OA
HETATM   19  C1  UNL     1      20.489   2.251  48.492  1.00  0.00     0.203 C 
ENDBRANCH  17  18
ENDBRANCH   1  17
BRANCH   9  20
HETATM   20  O2  UNL     1      23.978   3.958  52.040  1.00  0.00    -0.356 OA
HETATM   21  C10 UNL     1      23.009   4.975  52.098  1.00  0.00     0.209 C 
ENDBRANCH   9  20
BRANCH  10  22
HETATM   22  O3  UNL     1      25.581   2.509  53.376  1.00  0.00    -0.353 OA
HETATM   23  C12 UNL     1      26.856   1.979  53.568  1.00  0.00     0.210 C 
ENDBRANCH  10  22
TORSDOF 4
ENDMDL
MODEL 4
REMARK VINA RESULT:      -6.5      2.538      6.416
REMARK  4 active torsions:
REMARK  status: ('A' for Active; 'I' for Inactive)
REMARK    1  A    between atoms: O1_2  and  C2_3 
REMARK    2  A    between atoms: C2_3  and  N1_4 
REMARK    3  A    between atoms: C9_12  and  O2_13 
REMARK    4  A    between atoms: C11_15  and  O3_16 
ROOT
HETATM    1  N1  UNL     1      21.462   0.312  52.824  1.00  0.00    -0.327 N 
HETATM    2  C3  UNL     1      21.799  -0.915  53.451  1.00  0.00     0.096 A 
HETATM    3  C4  UNL     1      23.036  -1.045  53.978  1.00  0.00     0.044 A 
HETATM    4  C5  UNL     1      24.126  -0.026  53.991  1.00  0.00     0.031 A 
HETATM    5  C6  UNL     1      23.903   1.210  53.432  1.00  0.00     0.176 A 
HETATM    6  C7  UNL     1      22.498   1.223  52.865  1.00  0.00     0.088 A 
HETATM    7  N2  UNL     1      23.414   1.984  52.462  1.00  0.00    -0.248 NA
HETATM    8  C8  UNL     1      23.813   2.168  51.129  1.00  0.00     0.165 C 
HETATM    9  C9  UNL     1      24.343   3.373  50.586  1.00  0.00     0.092 C 
HETATM   10  C11 UNL     1      25.696   3.228  50.596  1.00  0.00     0.098 C 
HETATM   11  C13 UNL     1      26.614   2.170  51.083  1.00  0.00     0.035 C 
HETATM   12  C14 UNL     1      26.844   0.972  51.682  1.00  0.00    -0.022 C 
HETATM   13  C15 UNL     1      26.078  -0.146  52.293  1.00  0.00     0.047 C 
HETATM   14  C16 UNL     1      26.327  -0.090  53.777  1.00  0.00     0.123 C 
HETATM   15  N3  UNL     1      25.264  -0.814  54.490  1.00  0.00    -0.391 N 
HETATM   16  H23 UNL     1      25.251  -1.605  55.139  1.00  0.00     0.159 HD
ENDROOT
BRANCH   1  17
HETATM   17  C2  UNL     1      20.389   0.939  52.176  1.00  0.00     0.298 C 
BRANCH  17  18
HETATM   18  O1  UNL     1      20.086   2.165  52.730  1.00  0.00    -0.377 OA
HETATM   19  C1  UNL     1      19.377   2.988  51.910  1.00  0.00     0.203 C 
ENDBRANCH  17  18
ENDBRANCH   1  17
BRANCH   9  20
HETATM   20  O2  UNL     1      23.704   4.486  50.130  1.00  0.00    -0.356 OA
HETATM   21  C10 UNL     1      22.303   4.579  50.176  1.00  0.00     0.209 C 
ENDBRANCH   9  20
BRANCH  10  22
HETATM   22  O3  UNL     1      26.240   4.362  50.047  1.00  0.00    -0.353 OA
HETATM   23  C12 UNL     1      27.152   4.437  48.995  1.00  0.00     0.210 C 
ENDBRANCH  10  22
TORSDOF 4
ENDMDL
MODEL 5
REMARK VINA RESULT:      -6.4      1.820      2.662
REMARK  4 active torsions:
REMARK  status: ('A' for Active; 'I' for Inactive)
REMARK    1  A    between atoms: O1_2  and  C2_3 
REMARK    2  A    between atoms: C2_3  and  N1_4 
REMARK    3  A    between atoms: C9_12  and  O2_13 
REMARK    4  A    between atoms: C11_15  and  O3_16 
ROOT
HETATM    1  N1  UNL     1      25.779   0.189  52.770  1.00  0.00    -0.327 N 
HETATM    2  C3  UNL     1      26.861   0.652  51.979  1.00  0.00     0.096 A 
HETATM    3  C4  UNL     1      26.792   1.901  51.470  1.00  0.00     0.044 A 
HETATM    4  C5  UNL     1      25.689   2.891  51.645  1.00  0.00     0.031 A 
HETATM    5  C6  UNL     1      24.598   2.558  52.413  1.00  0.00     0.176 A 
HETATM    6  C7  UNL     1      24.787   1.138  52.908  1.00  0.00     0.088 A 
HETATM    7  N2  UNL     1      23.663   1.691  52.804  1.00  0.00    -0.248 NA
HETATM    8  C8  UNL     1      22.542   1.170  52.138  1.00  0.00     0.165 C 
HETATM    9  C9  UNL     1      21.185   1.412  52.496  1.00  0.00     0.092 C 
HETATM   10  C11 UNL     1      20.754   2.416  51.686  1.00  0.00     0.098 C 
HETATM   11  C13 UNL     1      21.405   3.255  50.650  1.00  0.00     0.035 C 
HETATM   12  C14 UNL     1      22.493   3.624  49.924  1.00  0.00    -0.022 C 
HETATM   13  C15 UNL     1      23.928   3.262  49.782  1.00  0.00     0.047 C 
HETATM   14  C16 UNL     1      24.728   4.405  50.350  1.00  0.00     0.123 C 
HETATM   15  N3  UNL     1      26.080   3.945  50.697  1.00  0.00    -0.391 N 
HETATM   16  H23 UNL     1      27.024   4.225  50.415  1.00  0.00     0.159 HD
ENDROOT
BRANCH   1  17
HETATM   17  C2  UNL     1      25.376  -0.936  53.502  1.00  0.00     0.298 C 
BRANCH  17  18
HETATM   18  O1  UNL     1      25.562  -0.774  54.859  1.00  0.00    -0.377 OA
HETATM   19  C1  UNL     1      24.518  -1.200  55.621  1.00  0.00     0.203 C 
ENDBRANCH  17  18
ENDBRANCH   1  17
BRANCH   9  20
HETATM   20  O2  UNL     1      20.406   0.812  53.438  1.00  0.00    -0.356 OA
HETATM   21  C10 UNL     1      20.985   0.078  54.488  1.00  0.00     0.209 C 
ENDBRANCH   9  20
BRANCH  10  22
HETATM   22  O3  UNL     1      19.435   2.653  51.982  1.00  0.00    -0.353 OA
HETATM   23  C12 UNL     1      18.626   3.671  51.478  1.00  0.00     0.210 C 
ENDBRANCH  10  22
TORSDOF 4
ENDMDL
MODEL 6
REMARK VINA RESULT:      -6.3      2.007      4.238
REMARK  4 active torsions:
REMARK  status: ('A' for Active; 'I' for Inactive)
REMARK    1  A    between atoms: O1_2  and  C2_3 
REMARK    2  A    between atoms: C2_3  and  N1_4 
REMARK    3  A    between atoms: C9_12  and  O2_13 
REMARK    4  A    between atoms: C11_15  and  O3_16 
ROOT
HETATM    1  N1  UNL     1      26.420   1.268  52.974  1.00  0.00    -0.327 N 
HETATM    2  C3  UNL     1      26.862   0.981  54.291  1.00  0.00     0.096 A 
HETATM    3  C4  UNL     1      26.209   0.029  54.991  1.00  0.00     0.044 A 
HETATM    4  C5  UNL     1      25.048  -0.792  54.539  1.00  0.00     0.031 A 
HETATM    5  C6  UNL     1      24.549  -0.616  53.270  1.00  0.00     0.176 A 
HETATM    6  C7  UNL     1      25.349   0.483  52.599  1.00  0.00     0.088 A 
HETATM    7  N2  UNL     1      24.181   0.170  52.256  1.00  0.00    -0.248 NA
HETATM    8  C8  UNL     1      23.097   1.049  52.108  1.00  0.00     0.165 C 
HETATM    9  C9  UNL     1      22.022   0.885  51.188  1.00  0.00     0.092 C 
HETATM   10  C11 UNL     1      21.005   0.318  51.892  1.00  0.00     0.098 C 
HETATM   11  C13 UNL     1      20.863  -0.164  53.288  1.00  0.00     0.035 C 
HETATM   12  C14 UNL     1      21.366  -0.389  54.529  1.00  0.00    -0.022 C 
HETATM   13  C15 UNL     1      22.636  -0.204  55.280  1.00  0.00     0.047 C 
HETATM   14  C16 UNL     1      23.218  -1.575  55.504  1.00  0.00     0.123 C 
HETATM   15  N3  UNL     1      24.657  -1.468  55.785  1.00  0.00    -0.391 N 
HETATM   16  H23 UNL     1      25.255  -1.755  56.565  1.00  0.00     0.159 HD
ENDROOT
BRANCH   1  17
HETATM   17  C2  UNL     1      26.729   2.091  51.883  1.00  0.00     0.298 C 
BRANCH  17  18
HETATM   18  O1  UNL     1      25.773   3.061  51.669  1.00  0.00    -0.377 OA
HETATM   19  C1  UNL     1      25.789   3.596  50.418  1.00  0.00     0.203 C 
ENDBRANCH  17  18
ENDBRANCH   1  17
BRANCH   9  20
HETATM   20  O2  UNL     1      21.945   1.200  49.865  1.00  0.00    -0.356 OA
HETATM   21  C10 UNL     1      22.417   2.436  49.392  1.00  0.00     0.209 C 
ENDBRANCH   9  20
BRANCH  10  22
HETATM   22  O3  UNL     1      19.939   0.176  51.041  1.00  0.00    -0.353 OA
HETATM   23  C12 UNL     1      18.595   0.036  51.387  1.00  0.00     0.210 C 
ENDBRANCH  10  22
TORSDOF 4
ENDMDL
MODEL 7
REMARK VINA RESULT:      -6.2      2.950      6.995
REMARK  4 active torsions:
REMARK  status: ('A' for Active; 'I' for Inactive)
REMARK    1  A    between atoms: O1_2  and  C2_3 
REMARK    2  A    between atoms: C2_3  and  N1_4 
REMARK    3  A    between atoms: C9_12  and  O2_13 
REMARK    4  A    between atoms: C11_15  and  O3_16 
ROOT
HETATM    1  N1  UNL     1      18.772   0.444  51.144  1.00  0.00    -0.327 N 
HETATM    2  C3  UNL     1      18.340  -0.608  51.993  1.00  0.00     0.096 A 
HETATM    3  C4  UNL     1      19.015  -0.819  53.143  1.00  0.00     0.044 A 
HETATM    4  C5  UNL     1      20.191  -0.057  53.656  1.00  0.00     0.031 A 
HETATM    5  C6  UNL     1      20.682   1.000  52.927  1.00  0.00     0.176 A 
HETATM    6  C7  UNL     1      19.857   1.121  51.662  1.00  0.00     0.088 A 
HETATM    7  N2  UNL     1      21.031   1.560  51.767  1.00  0.00    -0.248 NA
HETATM    8  C8  UNL     1      22.096   1.298  50.892  1.00  0.00     0.165 C 
HETATM    9  C9  UNL     1      23.171   2.189  50.610  1.00  0.00     0.092 C 
HETATM   10  C11 UNL     1      24.201   1.802  51.409  1.00  0.00     0.098 C 
HETATM   11  C13 UNL     1      24.358   0.762  52.456  1.00  0.00     0.035 C 
HETATM   12  C14 UNL     1      23.864  -0.249  53.217  1.00  0.00    -0.022 C 
HETATM   13  C15 UNL     1      22.593  -0.997  53.408  1.00  0.00     0.047 C 
HETATM   14  C16 UNL     1      22.040  -0.588  54.748  1.00  0.00     0.123 C 
HETATM   15  N3  UNL     1      20.600  -0.879  54.805  1.00  0.00    -0.391 N 
HETATM   16  H23 UNL     1      20.011  -1.448  55.419  1.00  0.00     0.159 HD
ENDROOT
BRANCH   1  17
HETATM   17  C2  UNL     1      18.442   1.062  49.931  1.00  0.00     0.298 C 
BRANCH  17  18
HETATM   18  O1  UNL     1      18.069   2.378  50.096  1.00  0.00    -0.377 OA
HETATM   19  C1  UNL     1      16.730   2.598  49.983  1.00  0.00     0.203 C 
ENDBRANCH  17  18
ENDBRANCH   1  17
BRANCH   9  20
HETATM   20  O2  UNL     1      23.237   3.236  49.742  1.00  0.00    -0.356 OA
HETATM   21  C10 UNL     1      22.537   3.205  48.524  1.00  0.00     0.209 C 
ENDBRANCH   9  20
BRANCH  10  22
HETATM   22  O3  UNL     1      25.268   2.621  51.140  1.00  0.00    -0.353 OA
HETATM   23  C12 UNL     1      26.611   2.383  51.430  1.00  0.00     0.210 C 
ENDBRANCH  10  22
TORSDOF 4
ENDMDL
MODEL 8
REMARK VINA RESULT:      -6.2      3.048      5.071
REMARK  4 active torsions:
REMARK  status: ('A' for Active; 'I' for Inactive)
REMARK    1  A    between atoms: O1_2  and  C2_3 
REMARK    2  A    between atoms: C2_3  and  N1_4 
REMARK    3  A    between atoms: C9_12  and  O2_13 
REMARK    4  A    between atoms: C11_15  and  O3_16 
ROOT
HETATM    1  N1  UNL     1      24.637   0.390  52.965  1.00  0.00    -0.327 N 
HETATM    2  C3  UNL     1      23.725  -0.546  53.516  1.00  0.00     0.096 A 
HETATM    3  C4  UNL     1      22.454  -0.545  53.059  1.00  0.00     0.044 A 
HETATM    4  C5  UNL     1      21.870   0.338  52.009  1.00  0.00     0.031 A 
HETATM    5  C6  UNL     1      22.668   1.269  51.387  1.00  0.00     0.176 A 
HETATM    6  C7  UNL     1      24.053   1.181  51.996  1.00  0.00     0.088 A 
HETATM    7  N2  UNL     1      23.613   2.210  51.422  1.00  0.00    -0.248 NA
HETATM    8  C8  UNL     1      23.609   3.512  51.945  1.00  0.00     0.165 C 
HETATM    9  C9  UNL     1      23.717   4.708  51.180  1.00  0.00     0.092 C 
HETATM   10  C11 UNL     1      22.446   5.159  51.002  1.00  0.00     0.098 C 
HETATM   11  C13 UNL     1      21.107   4.638  51.376  1.00  0.00     0.035 C 
HETATM   12  C14 UNL     1      20.309   3.696  51.943  1.00  0.00    -0.022 C 
HETATM   13  C15 UNL     1      20.432   2.395  52.651  1.00  0.00     0.047 C 
HETATM   14  C16 UNL     1      19.916   1.334  51.714  1.00  0.00     0.123 C 
HETATM   15  N3  UNL     1      20.438   0.019  52.113  1.00  0.00    -0.391 N 
HETATM   16  H23 UNL     1      20.004  -0.870  52.379  1.00  0.00     0.159 HD
ENDROOT
BRANCH   1  17
HETATM   17  C2  UNL     1      25.979   0.779  53.059  1.00  0.00     0.298 C 
BRANCH  17  18
HETATM   18  O1  UNL     1      26.801   0.033  52.240  1.00  0.00    -0.377 OA
HETATM   19  C1  UNL     1      27.398  -1.022  52.858  1.00  0.00     0.203 C 
ENDBRANCH  17  18
ENDBRANCH   1  17
BRANCH   9  20
HETATM   20  O2  UNL     1      24.819   5.338  50.686  1.00  0.00    -0.356 OA
HETATM   21  C10 UNL     1      25.676   4.685  49.784  1.00  0.00     0.209 C 
ENDBRANCH   9  20
BRANCH  10  22
HETATM   22  O3  UNL     1      22.514   6.332  50.294  1.00  0.00    -0.353 OA
HETATM   23  C12 UNL     1      21.824   7.516  50.552  1.00  0.00     0.210 C 
ENDBRANCH  10  22
TORSDOF 4
ENDMDL
MODEL 9
REMARK VINA RESULT:      -6.0      2.286      4.919
REMARK  4 active torsions:
REMARK  status: ('A' for Active; 'I' for Inactive)
REMARK    1  A    between atoms: O1_2  and  C2_3 
REMARK    2  A    between atoms: C2_3  and  N1_4 
REMARK    3  A    between atoms: C9_12  and  O2_13 
REMARK    4  A    between atoms: C11_15  and  O3_16 
ROOT
HETATM    1  N1  UNL     1      22.867   4.805  49.683  1.00  0.00    -0.327 N 
HETATM    2  C3  UNL     1      24.059   5.567  49.793  1.00  0.00     0.096 A 
HETATM    3  C4  UNL     1      25.202   4.923  50.112  1.00  0.00     0.044 A 
HETATM    4  C5  UNL     1      25.379   3.463  50.366  1.00  0.00     0.031 A 
HETATM    5  C6  UNL     1      24.295   2.623  50.265  1.00  0.00     0.176 A 
HETATM    6  C7  UNL     1      23.081   3.462  49.922  1.00  0.00     0.088 A 
HETATM    7  N2  UNL     1      23.010   2.340  50.484  1.00  0.00    -0.248 NA
HETATM    8  C8  UNL     1      22.311   2.048  51.665  1.00  0.00     0.165 C 
HETATM    9  C9  UNL     1      21.706   0.796  51.977  1.00  0.00     0.092 C 
HETATM   10  C11 UNL     1      22.596   0.131  52.762  1.00  0.00     0.098 C 
HETATM   11  C13 UNL     1      23.967   0.430  53.243  1.00  0.00     0.035 C 
HETATM   12  C14 UNL     1      25.062   1.231  53.305  1.00  0.00    -0.022 C 
HETATM   13  C15 UNL     1      25.527   2.544  52.784  1.00  0.00     0.047 C 
HETATM   14  C16 UNL     1      26.598   2.257  51.764  1.00  0.00     0.123 C 
HETATM   15  N3  UNL     1      26.760   3.413  50.870  1.00  0.00    -0.391 N 
HETATM   16  H23 UNL     1      27.546   4.022  50.627  1.00  0.00     0.159 HD
ENDROOT
BRANCH   1  17
HETATM   17  C2  UNL     1      21.508   4.958  49.382  1.00  0.00     0.298 C 
BRANCH  17  18
HETATM   18  O1  UNL     1      20.737   5.141  50.510  1.00  0.00    -0.377 OA
HETATM   19  C1  UNL     1      19.551   4.474  50.492  1.00  0.00     0.203 C 
ENDBRANCH  17  18
ENDBRANCH   1  17
BRANCH   9  20
HETATM   20  O2  UNL     1      20.497   0.291  51.608  1.00  0.00    -0.356 OA
HETATM   21  C10 UNL     1      19.304   0.928  51.990  1.00  0.00     0.209 C 
ENDBRANCH   9  20
BRANCH  10  22
HETATM   22  O3  UNL     1      22.030  -1.069  53.109  1.00  0.00    -0.353 OA
HETATM   23  C12 UNL     1      21.750  -1.531  54.395  1.00  0.00     0.210 C 
ENDBRANCH  10  22
TORSDOF 4
ENDMDL
