MODEL 1
REMARK VINA RESULT:      -8.1      0.000      0.000
REMARK  2 active torsions:
REMARK  status: ('A' for Active; 'I' for Inactive)
REMARK    1  A    between atoms: C3_4  and  C4_5 
REMARK    2  A    between atoms: C5_6  and  C6_7 
ROOT
HETATM    1  C6  UNL     1      23.363  -0.989  54.587  1.00  0.00     0.094 C 
HETATM    2  N1  UNL     1      24.338  -1.315  55.437  1.00  0.00    -0.176 NA
HETATM    3  N2  UNL     1      25.553  -0.646  55.129  1.00  0.00    -0.290 N 
HETATM    4  C7  UNL     1      26.806  -0.356  54.421  1.00  0.00     0.316 C 
HETATM    5  O1  UNL     1      27.376   0.823  54.951  1.00  0.00    -0.343 OA
HETATM    6  C8  UNL     1      28.242   1.559  54.192  1.00  0.00     0.133 C 
HETATM    7  C9  UNL     1      28.609   2.282  53.157  1.00  0.00     0.005 C 
HETATM    8  C10 UNL     1      27.312   2.212  52.504  1.00  0.00     0.098 C 
HETATM    9  C11 UNL     1      26.662   2.630  51.397  1.00  0.00     0.049 A 
HETATM   10 BR2  UNL     1      25.674   3.168  49.881  1.00  0.00    -0.110 Br
HETATM   11  C12 UNL     1      25.473   1.960  51.756  1.00  0.00     0.058 A 
HETATM   12  C13 UNL     1      24.514   1.400  52.056  1.00  0.00    -0.001 C 
HETATM   13  N3  UNL     1      23.404   0.731  52.424  1.00  0.00    -0.215 NA
HETATM   14  C14 UNL     1      23.318  -0.075  53.408  1.00  0.00     0.160 C 
HETATM   15  H7  UNL     1      25.293  -0.030  55.942  1.00  0.00     0.184 HD
ENDROOT
BRANCH   1  16
HETATM   16  C5  UNL     1      22.122  -1.637  54.858  1.00  0.00     0.035 C 
HETATM   17  C4  UNL     1      20.919  -1.454  54.353  1.00  0.00     0.003 C 
BRANCH  17  18
HETATM   18  C3  UNL     1      20.033  -0.750  53.444  1.00  0.00     0.014 C 
HETATM   19  C2  UNL     1      18.883  -0.506  52.851  1.00  0.00    -0.015 C 
HETATM   20  C1  UNL     1      17.748  -1.390  53.251  1.00  0.00     0.056 C 
HETATM   21 BR1  UNL     1      18.736   0.895  51.574  1.00  0.00    -0.056 Br
ENDBRANCH  17  18
ENDBRANCH   1  16
TORSDOF 2
ENDMDL
MODEL 2
REMARK VINA RESULT:      -7.8      4.628      6.721
REMARK  2 active torsions:
REMARK  status: ('A' for Active; 'I' for Inactive)
REMARK    1  A    between atoms: C3_4  and  C4_5 
REMARK    2  A    between atoms: C5_6  and  C6_7 
ROOT
HETATM    1  C6  UNL     1      24.528   1.841  52.013  1.00  0.00     0.094 C 
HETATM    2  N1  UNL     1      23.348   2.446  52.156  1.00  0.00    -0.176 NA
HETATM    3  N2  UNL     1      23.289   3.667  51.433  1.00  0.00    -0.290 N 
HETATM    4  C7  UNL     1      23.532   5.082  51.129  1.00  0.00     0.316 C 
HETATM    5  O1  UNL     1      23.003   5.381  49.853  1.00  0.00    -0.343 OA
HETATM    6  C8  UNL     1      23.494   6.441  49.145  1.00  0.00     0.133 C 
HETATM    7  C9  UNL     1      24.418   7.139  48.522  1.00  0.00     0.005 C 
HETATM    8  C10 UNL     1      25.478   6.175  48.773  1.00  0.00     0.098 C 
HETATM    9  C11 UNL     1      26.790   5.963  48.543  1.00  0.00     0.049 A 
HETATM   10 BR2  UNL     1      28.620   5.584  48.269  1.00  0.00    -0.110 Br
HETATM   11  C12 UNL     1      26.794   4.747  49.259  1.00  0.00     0.058 A 
HETATM   12  C13 UNL     1      26.783   3.763  49.855  1.00  0.00    -0.001 C 
HETATM   13  N3  UNL     1      26.749   2.617  50.563  1.00  0.00    -0.215 NA
HETATM   14  C14 UNL     1      25.760   2.203  51.251  1.00  0.00     0.160 C 
HETATM   15  H7  UNL     1      22.718   3.108  50.748  1.00  0.00     0.184 HD
ENDROOT
BRANCH   1  16
HETATM   16  C5  UNL     1      24.634   0.609  52.722  1.00  0.00     0.035 C 
HETATM   17  C4  UNL     1      25.684  -0.045  53.175  1.00  0.00     0.003 C 
BRANCH  17  18
HETATM   18  C3  UNL     1      27.122  -0.147  53.345  1.00  0.00     0.014 C 
HETATM   19  C2  UNL     1      28.336   0.326  53.531  1.00  0.00    -0.015 C 
HETATM   20  C1  UNL     1      28.440   1.810  53.659  1.00  0.00     0.056 C 
HETATM   21 BR1  UNL     1      29.825  -0.852  53.624  1.00  0.00    -0.056 Br
ENDBRANCH  17  18
ENDBRANCH   1  16
TORSDOF 2
ENDMDL
MODEL 3
REMARK VINA RESULT:      -7.5      3.603      7.703
REMARK  2 active torsions:
REMARK  status: ('A' for Active; 'I' for Inactive)
REMARK    1  A    between atoms: C3_4  and  C4_5 
REMARK    2  A    between atoms: C5_6  and  C6_7 
ROOT
HETATM    1  C6  UNL     1      25.153   4.153  49.844  1.00  0.00     0.094 C 
HETATM    2  N1  UNL     1      26.442   3.819  49.926  1.00  0.00    -0.176 NA
HETATM    3  N2  UNL     1      26.646   2.705  50.784  1.00  0.00    -0.290 N 
HETATM    4  C7  UNL     1      26.781   1.963  52.043  1.00  0.00     0.316 C 
HETATM    5  O1  UNL     1      26.924   0.586  51.759  1.00  0.00    -0.343 OA
HETATM    6  C8  UNL     1      26.593  -0.341  52.706  1.00  0.00     0.133 C 
HETATM    7  C9  UNL     1      25.789  -0.970  53.535  1.00  0.00     0.005 C 
HETATM    8  C10 UNL     1      24.624  -0.171  53.191  1.00  0.00     0.098 C 
HETATM    9  C11 UNL     1      23.314  -0.032  53.485  1.00  0.00     0.049 A 
HETATM   10 BR2  UNL     1      21.477   0.236  53.833  1.00  0.00    -0.110 Br
HETATM   11  C12 UNL     1      23.159   1.062  52.607  1.00  0.00     0.058 A 
HETATM   12  C13 UNL     1      23.051   1.960  51.896  1.00  0.00    -0.001 C 
HETATM   13  N3  UNL     1      22.950   3.013  51.062  1.00  0.00    -0.215 NA
HETATM   14  C14 UNL     1      23.923   3.584  50.470  1.00  0.00     0.160 C 
HETATM   15  H7  UNL     1      26.747   2.169  49.884  1.00  0.00     0.184 HD
ENDROOT
BRANCH   1  16
HETATM   16  C5  UNL     1      24.900   5.267  48.993  1.00  0.00     0.035 C 
HETATM   17  C4  UNL     1      25.690   6.232  48.567  1.00  0.00     0.003 C 
BRANCH  17  18
HETATM   18  C3  UNL     1      26.999   6.860  48.533  1.00  0.00     0.014 C 
HETATM   19  C2  UNL     1      28.310   6.878  48.413  1.00  0.00    -0.015 C 
HETATM   20  C1  UNL     1      28.954   5.554  48.163  1.00  0.00     0.056 C 
HETATM   21 BR1  UNL     1      29.268   8.513  48.557  1.00  0.00    -0.056 Br
ENDBRANCH  17  18
ENDBRANCH   1  16
TORSDOF 2
ENDMDL
MODEL 4
REMARK VINA RESULT:      -7.4      3.242      6.978
REMARK  2 active torsions:
REMARK  status: ('A' for Active; 'I' for Inactive)
REMARK    1  A    between atoms: C3_4  and  C4_5 
REMARK    2  A    between atoms: C5_6  and  C6_7 
ROOT
HETATM    1  C6  UNL     1      26.244   3.215  50.152  1.00  0.00     0.094 C 
HETATM    2  N1  UNL     1      27.022   2.750  51.129  1.00  0.00    -0.176 NA
HETATM    3  N2  UNL     1      26.310   1.888  52.006  1.00  0.00    -0.290 N 
HETATM    4  C7  UNL     1      25.395   1.499  53.086  1.00  0.00     0.316 C 
HETATM    5  O1  UNL     1      25.298   0.089  53.127  1.00  0.00    -0.343 OA
HETATM    6  C8  UNL     1      24.198  -0.500  53.682  1.00  0.00     0.133 C 
HETATM    7  C9  UNL     1      22.917  -0.773  53.797  1.00  0.00     0.005 C 
HETATM    8  C10 UNL     1      22.523   0.050  52.665  1.00  0.00     0.098 C 
HETATM    9  C11 UNL     1      21.434   0.433  51.964  1.00  0.00     0.049 A 
HETATM   10 BR2  UNL     1      19.970   1.023  50.928  1.00  0.00    -0.110 Br
HETATM   11  C12 UNL     1      22.189   1.264  51.108  1.00  0.00     0.058 A 
HETATM   12  C13 UNL     1      22.816   1.945  50.425  1.00  0.00    -0.001 C 
HETATM   13  N3  UNL     1      23.569   2.741  49.642  1.00  0.00    -0.215 NA
HETATM   14  C14 UNL     1      24.804   3.001  49.821  1.00  0.00     0.160 C 
HETATM   15  H7  UNL     1      26.810   1.123  51.485  1.00  0.00     0.184 HD
ENDROOT
BRANCH   1  16
HETATM   16  C5  UNL     1      26.916   4.085  49.245  1.00  0.00     0.035 C 
HETATM   17  C4  UNL     1      26.675   5.333  48.897  1.00  0.00     0.003 C 
BRANCH  17  18
HETATM   18  C3  UNL     1      25.869   6.535  49.014  1.00  0.00     0.014 C 
HETATM   19  C2  UNL     1      25.013   7.344  49.603  1.00  0.00    -0.015 C 
HETATM   20  C1  UNL     1      24.487   6.879  50.921  1.00  0.00     0.056 C 
HETATM   21 BR1  UNL     1      24.516   8.984  48.782  1.00  0.00    -0.056 Br
ENDBRANCH  17  18
ENDBRANCH   1  16
TORSDOF 2
ENDMDL
MODEL 5
REMARK VINA RESULT:      -7.3      3.800      6.024
REMARK  2 active torsions:
REMARK  status: ('A' for Active; 'I' for Inactive)
REMARK    1  A    between atoms: C3_4  and  C4_5 
REMARK    2  A    between atoms: C5_6  and  C6_7 
ROOT
HETATM    1  C6  UNL     1      24.516   4.299  50.415  1.00  0.00     0.094 C 
HETATM    2  N1  UNL     1      25.843   4.197  50.338  1.00  0.00    -0.176 NA
HETATM    3  N2  UNL     1      26.327   3.058  51.037  1.00  0.00    -0.290 N 
HETATM    4  C7  UNL     1      26.725   2.232  52.183  1.00  0.00     0.316 C 
HETATM    5  O1  UNL     1      27.067   0.939  51.727  1.00  0.00    -0.343 OA
HETATM    6  C8  UNL     1      27.005  -0.122  52.586  1.00  0.00     0.133 C 
HETATM    7  C9  UNL     1      26.417  -0.964  53.406  1.00  0.00     0.005 C 
HETATM    8  C10 UNL     1      25.102  -0.359  53.267  1.00  0.00     0.098 C 
HETATM    9  C11 UNL     1      23.828  -0.489  53.695  1.00  0.00     0.049 A 
HETATM   10 BR2  UNL     1      22.023  -0.592  54.240  1.00  0.00    -0.110 Br
HETATM   11  C12 UNL     1      23.394   0.641  52.969  1.00  0.00     0.058 A 
HETATM   12  C13 UNL     1      23.057   1.571  52.381  1.00  0.00    -0.001 C 
HETATM   13  N3  UNL     1      22.686   2.665  51.688  1.00  0.00    -0.215 NA
HETATM   14  C14 UNL     1      23.477   3.459  51.081  1.00  0.00     0.160 C 
HETATM   15  H7  UNL     1      26.417   2.641  50.075  1.00  0.00     0.184 HD
ENDROOT
BRANCH   1  16
HETATM   16  C5  UNL     1      23.984   5.428  49.726  1.00  0.00     0.035 C 
HETATM   17  C4  UNL     1      23.262   5.515  48.628  1.00  0.00     0.003 C 
BRANCH  17  18
HETATM   18  C3  UNL     1      22.584   4.871  47.517  1.00  0.00     0.014 C 
HETATM   19  C2  UNL     1      22.087   3.846  46.857  1.00  0.00    -0.015 C 
HETATM   20  C1  UNL     1      22.237   2.516  47.519  1.00  0.00     0.056 C 
HETATM   21 BR1  UNL     1      21.242   4.103  45.173  1.00  0.00    -0.056 Br
ENDBRANCH  17  18
ENDBRANCH   1  16
TORSDOF 2
ENDMDL
MODEL 6
REMARK VINA RESULT:      -7.2      3.630      6.982
REMARK  2 active torsions:
REMARK  status: ('A' for Active; 'I' for Inactive)
REMARK    1  A    between atoms: C3_4  and  C4_5 
REMARK    2  A    between atoms: C5_6  and  C6_7 
ROOT
HETATM    1  C6  UNL     1      22.071   4.424  51.949  1.00  0.00     0.094 C 
HETATM    2  N1  UNL     1      20.795   4.052  52.059  1.00  0.00    -0.176 NA
HETATM    3  N2  UNL     1      20.672   2.723  52.548  1.00  0.00    -0.290 N 
HETATM    4  C7  UNL     1      20.685   1.256  52.520  1.00  0.00     0.316 C 
HETATM    5  O1  UNL     1      20.455   0.764  53.824  1.00  0.00    -0.343 OA
HETATM    6  C8  UNL     1      20.880  -0.490  54.162  1.00  0.00     0.133 C 
HETATM    7  C9  UNL     1      21.768  -1.440  54.354  1.00  0.00     0.005 C 
HETATM    8  C10 UNL     1      22.903  -0.617  53.970  1.00  0.00     0.098 C 
HETATM    9  C11 UNL     1      24.245  -0.663  53.835  1.00  0.00     0.049 A 
HETATM   10 BR2  UNL     1      26.120  -0.636  53.615  1.00  0.00    -0.110 Br
HETATM   11  C12 UNL     1      24.316   0.667  53.369  1.00  0.00     0.058 A 
HETATM   12  C13 UNL     1      24.356   1.749  52.980  1.00  0.00    -0.001 C 
HETATM   13  N3  UNL     1      24.379   3.016  52.521  1.00  0.00    -0.215 NA
HETATM   14  C14 UNL     1      23.354   3.718  52.238  1.00  0.00     0.160 C 
HETATM   15  H7  UNL     1      20.428   3.196  53.456  1.00  0.00     0.184 HD
ENDROOT
BRANCH   1  16
HETATM   16  C5  UNL     1      22.244   5.752  51.462  1.00  0.00     0.035 C 
HETATM   17  C4  UNL     1      23.189   6.288  50.717  1.00  0.00     0.003 C 
BRANCH  17  18
HETATM   18  C3  UNL     1      24.430   6.155  49.976  1.00  0.00     0.014 C 
HETATM   19  C2  UNL     1      25.368   5.493  49.331  1.00  0.00    -0.015 C 
HETATM   20  C1  UNL     1      25.161   4.017  49.225  1.00  0.00     0.056 C 
HETATM   21 BR1  UNL     1      26.865   6.409  48.602  1.00  0.00    -0.056 Br
ENDBRANCH  17  18
ENDBRANCH   1  16
TORSDOF 2
ENDMDL
MODEL 7
REMARK VINA RESULT:      -7.2      6.443      8.676
REMARK  2 active torsions:
REMARK  status: ('A' for Active; 'I' for Inactive)
REMARK    1  A    between atoms: C3_4  and  C4_5 
REMARK    2  A    between atoms: C5_6  and  C6_7 
ROOT
HETATM    1  C6  UNL     1      26.541   5.914  48.904  1.00  0.00     0.094 C 
HETATM    2  N1  UNL     1      27.316   4.842  48.740  1.00  0.00    -0.176 NA
HETATM    3  N2  UNL     1      28.694   5.186  48.706  1.00  0.00    -0.290 N 
HETATM    4  C7  UNL     1      29.957   5.693  48.157  1.00  0.00     0.316 C 
HETATM    5  O1  UNL     1      30.944   5.673  49.168  1.00  0.00    -0.343 OA
HETATM    6  C8  UNL     1      32.025   6.505  49.078  1.00  0.00     0.133 C 
HETATM    7  C9  UNL     1      32.639   7.665  49.010  1.00  0.00     0.005 C 
HETATM    8  C10 UNL     1      31.413   8.446  49.067  1.00  0.00     0.098 C 
HETATM    9  C11 UNL     1      30.972   9.721  49.065  1.00  0.00     0.049 A 
HETATM   10 BR2  UNL     1      30.263  11.472  49.069  1.00  0.00    -0.110 Br
HETATM   11  C12 UNL     1      29.617   9.328  49.116  1.00  0.00     0.058 A 
HETATM   12  C13 UNL     1      28.517   8.992  49.146  1.00  0.00    -0.001 C 
HETATM   13  N3  UNL     1      27.237   8.575  49.175  1.00  0.00    -0.215 NA
HETATM   14  C14 UNL     1      26.849   7.367  49.056  1.00  0.00     0.160 C 
HETATM   15  H7  UNL     1      28.698   4.818  49.692  1.00  0.00     0.184 HD
ENDROOT
BRANCH   1  16
HETATM   16  C5  UNL     1      25.147   5.617  48.946  1.00  0.00     0.035 C 
HETATM   17  C4  UNL     1      24.476   4.690  49.598  1.00  0.00     0.003 C 
BRANCH  17  18
HETATM   18  C3  UNL     1      24.458   3.559  50.508  1.00  0.00     0.014 C 
HETATM   19  C2  UNL     1      24.997   2.573  51.194  1.00  0.00    -0.015 C 
HETATM   20  C1  UNL     1      26.473   2.407  51.037  1.00  0.00     0.056 C 
HETATM   21 BR1  UNL     1      23.917   1.463  52.296  1.00  0.00    -0.056 Br
ENDBRANCH  17  18
ENDBRANCH   1  16
TORSDOF 2
ENDMDL
MODEL 8
REMARK VINA RESULT:      -7.2      5.193      7.573
REMARK  2 active torsions:
REMARK  status: ('A' for Active; 'I' for Inactive)
REMARK    1  A    between atoms: C3_4  and  C4_5 
REMARK    2  A    between atoms: C5_6  and  C6_7 
ROOT
HETATM    1  C6  UNL     1      25.507   2.927  50.701  1.00  0.00     0.094 C 
HETATM    2  N1  UNL     1      26.811   3.194  50.631  1.00  0.00    -0.176 NA
HETATM    3  N2  UNL     1      27.076   4.326  49.814  1.00  0.00    -0.290 N 
HETATM    4  C7  UNL     1      27.254   5.104  48.583  1.00  0.00     0.316 C 
HETATM    5  O1  UNL     1      27.471   6.460  48.917  1.00  0.00    -0.343 OA
HETATM    6  C8  UNL     1      27.192   7.437  48.004  1.00  0.00     0.133 C 
HETATM    7  C9  UNL     1      26.425   8.138  47.198  1.00  0.00     0.005 C 
HETATM    8  C10 UNL     1      25.217   7.391  47.512  1.00  0.00     0.098 C 
HETATM    9  C11 UNL     1      23.903   7.334  47.213  1.00  0.00     0.049 A 
HETATM   10 BR2  UNL     1      22.055   7.177  46.854  1.00  0.00    -0.110 Br
HETATM   11  C12 UNL     1      23.688   6.218  48.050  1.00  0.00     0.058 A 
HETATM   12  C13 UNL     1      23.530   5.302  48.729  1.00  0.00    -0.001 C 
HETATM   13  N3  UNL     1      23.370   4.227  49.525  1.00  0.00    -0.215 NA
HETATM   14  C14 UNL     1      24.310   3.583  50.095  1.00  0.00     0.160 C 
HETATM   15  H7  UNL     1      27.205   4.823  50.733  1.00  0.00     0.184 HD
ENDROOT
BRANCH   1  16
HETATM   16  C5  UNL     1      25.192   1.798  51.512  1.00  0.00     0.035 C 
HETATM   17  C4  UNL     1      25.955   1.026  52.259  1.00  0.00     0.003 C 
BRANCH  17  18
HETATM   18  C3  UNL     1      27.265   0.684  52.782  1.00  0.00     0.014 C 
HETATM   19  C2  UNL     1      28.432   0.942  53.335  1.00  0.00    -0.015 C 
HETATM   20  C1  UNL     1      28.686   2.375  53.671  1.00  0.00     0.056 C 
HETATM   21 BR1  UNL     1      29.673  -0.460  53.662  1.00  0.00    -0.056 Br
ENDBRANCH  17  18
ENDBRANCH   1  16
TORSDOF 2
ENDMDL
MODEL 9
REMARK VINA RESULT:      -7.0      3.183      4.474
REMARK  2 active torsions:
REMARK  status: ('A' for Active; 'I' for Inactive)
REMARK    1  A    between atoms: C3_4  and  C4_5 
REMARK    2  A    between atoms: C5_6  and  C6_7 
ROOT
HETATM    1  C6  UNL     1      19.165  -0.181  52.516  1.00  0.00     0.094 C 
HETATM    2  N1  UNL     1      19.052  -1.051  53.520  1.00  0.00    -0.176 NA
HETATM    3  N2  UNL     1      20.306  -1.314  54.135  1.00  0.00    -0.290 N 
HETATM    4  C7  UNL     1      21.643  -1.894  54.305  1.00  0.00     0.316 C 
HETATM    5  O1  UNL     1      22.242  -1.349  55.463  1.00  0.00    -0.343 OA
HETATM    6  C8  UNL     1      23.603  -1.340  55.584  1.00  0.00     0.133 C 
HETATM    7  C9  UNL     1      24.832  -1.023  55.243  1.00  0.00     0.005 C 
HETATM    8  C10 UNL     1      24.432  -0.251  54.078  1.00  0.00     0.098 C 
HETATM    9  C11 UNL     1      24.946   0.481  53.067  1.00  0.00     0.049 A 
HETATM   10 BR2  UNL     1      25.574   1.521  51.620  1.00  0.00    -0.110 Br
HETATM   11  C12 UNL     1      23.675   0.728  52.504  1.00  0.00     0.058 A 
HETATM   12  C13 UNL     1      22.633   0.911  52.050  1.00  0.00    -0.001 C 
HETATM   13  N3  UNL     1      21.405   1.107  51.534  1.00  0.00    -0.215 NA
HETATM   14  C14 UNL     1      20.335   0.546  51.938  1.00  0.00     0.160 C 
HETATM   15  H7  UNL     1      19.949  -0.670  54.887  1.00  0.00     0.184 HD
ENDROOT
BRANCH   1  16
HETATM   16  C5  UNL     1      17.930   0.115  51.868  1.00  0.00     0.035 C 
HETATM   17  C4  UNL     1      16.805  -0.567  51.791  1.00  0.00     0.003 C 
BRANCH  17  18
HETATM   18  C3  UNL     1      16.028  -1.748  52.120  1.00  0.00     0.014 C 
HETATM   19  C2  UNL     1      15.833  -2.936  52.652  1.00  0.00    -0.015 C 
HETATM   20  C1  UNL     1      17.010  -3.531  53.354  1.00  0.00     0.056 C 
HETATM   21 BR1  UNL     1      14.142  -3.792  52.506  1.00  0.00    -0.056 Br
ENDBRANCH  17  18
ENDBRANCH   1  16
TORSDOF 2
ENDMDL
