MODEL 1
REMARK VINA RESULT:      -9.0      0.000      0.000
REMARK  1 active torsions:
REMARK  status: ('A' for Active; 'I' for Inactive)
REMARK    1  A    between atoms: C5_6  and  C6_7 
ROOT
HETATM    1  C6  UNL     1      24.581   4.094  49.940  1.00  0.00     0.091 C 
HETATM    2  C7  UNL     1      24.665   3.339  51.078  1.00  0.00    -0.000 C 
HETATM    3  C8  UNL     1      24.053   4.329  51.917  1.00  0.00     0.013 C 
HETATM    4  C9  UNL     1      23.843   3.457  52.883  1.00  0.00     0.007 C 
HETATM    5  C10 UNL     1      23.534   2.055  52.986  1.00  0.00     0.178 C 
HETATM    6  C11 UNL     1      24.646   1.223  52.359  1.00  0.00     0.065 C 
HETATM    7  C12 UNL     1      24.927   1.946  51.308  1.00  0.00     0.044 C 
HETATM    8  N1  UNL     1      24.670   0.146  53.269  1.00  0.00    -0.245 NA
HETATM    9  C13 UNL     1      23.516  -0.568  53.304  1.00  0.00     0.223 C 
HETATM   10  N2  UNL     1      22.298   0.118  52.804  1.00  0.00    -0.294 N 
HETATM   11  N3  UNL     1      22.350   1.484  52.308  1.00  0.00    -0.295 N 
HETATM   12  C14 UNL     1      21.646   2.374  51.336  1.00  0.00     0.107 A 
HETATM   13  C15 UNL     1      22.411   1.641  50.467  1.00  0.00     0.084 A 
HETATM   14  C16 UNL     1      23.087   2.267  49.457  1.00  0.00    -0.002 A 
HETATM   15  C17 UNL     1      22.378   3.158  50.221  1.00  0.00     0.116 A 
HETATM   16  C18 UNL     1      21.595   3.799  51.119  1.00  0.00     0.120 A 
HETATM   17 CL1  UNL     1      21.119   5.484  51.088  1.00  0.00    -0.108 Cl
HETATM   18  C19 UNL     1      20.916   3.173  52.143  1.00  0.00     0.014 A 
HETATM   19  O1  UNL     1      23.138   4.057  49.366  1.00  0.00    -0.332 OA
HETATM   20  H9  UNL     1      21.264  -0.153  52.664  1.00  0.00     0.187 HD
ENDROOT
BRANCH   1  21
HETATM   21  C5  UNL     1      25.649   4.844  49.310  1.00  0.00     0.001 A 
HETATM   22  C4  UNL     1      26.846   4.174  49.212  1.00  0.00     0.014 A 
HETATM   23  C3  UNL     1      27.883   4.893  48.603  1.00  0.00     0.004 A 
HETATM   24  C2  UNL     1      27.677   6.190  48.144  1.00  0.00     0.042 A 
HETATM   25  C1  UNL     1      26.445   6.809  48.274  1.00  0.00     0.117 A 
HETATM   26  F1  UNL     1      26.211   8.067  47.839  1.00  0.00    -0.206 F 
HETATM   27  C20 UNL     1      25.391   6.127  48.873  1.00  0.00     0.056 A 
ENDBRANCH   1  21
TORSDOF 1
ENDMDL
MODEL 2
REMARK VINA RESULT:      -8.9      3.712      6.481
REMARK  1 active torsions:
REMARK  status: ('A' for Active; 'I' for Inactive)
REMARK    1  A    between atoms: C5_6  and  C6_7 
ROOT
HETATM    1  C6  UNL     1      22.786   1.712  52.092  1.00  0.00     0.091 C 
HETATM    2  C7  UNL     1      22.606   3.066  52.176  1.00  0.00    -0.000 C 
HETATM    3  C8  UNL     1      23.878   3.312  52.792  1.00  0.00     0.013 C 
HETATM    4  C9  UNL     1      23.810   4.604  52.538  1.00  0.00     0.007 C 
HETATM    5  C10 UNL     1      23.274   5.447  51.502  1.00  0.00     0.178 C 
HETATM    6  C11 UNL     1      21.766   5.259  51.397  1.00  0.00     0.065 C 
HETATM    7  C12 UNL     1      21.670   3.966  51.562  1.00  0.00     0.044 C 
HETATM    8  N1  UNL     1      21.384   6.591  51.138  1.00  0.00    -0.245 NA
HETATM    9  C13 UNL     1      21.875   7.084  49.972  1.00  0.00     0.223 C 
HETATM   10  N2  UNL     1      23.068   6.399  49.412  1.00  0.00    -0.294 N 
HETATM   11  N3  UNL     1      23.672   5.262  50.089  1.00  0.00    -0.295 N 
HETATM   12  C14 UNL     1      24.453   4.028  49.773  1.00  0.00     0.107 A 
HETATM   13  C15 UNL     1      23.202   3.611  49.404  1.00  0.00     0.084 A 
HETATM   14  C16 UNL     1      22.758   2.372  49.775  1.00  0.00    -0.002 A 
HETATM   15  C17 UNL     1      24.026   2.614  50.233  1.00  0.00     0.116 A 
HETATM   16  C18 UNL     1      25.248   3.106  50.547  1.00  0.00     0.120 A 
HETATM   17 CL1  UNL     1      26.571   2.240  51.298  1.00  0.00    -0.108 Cl
HETATM   18  C19 UNL     1      25.698   4.356  50.178  1.00  0.00     0.014 A 
HETATM   19  O1  UNL     1      23.718   1.358  50.901  1.00  0.00    -0.332 OA
HETATM   20  H9  UNL     1      23.671   6.503  48.525  1.00  0.00     0.187 HD
ENDROOT
BRANCH   1  21
HETATM   21  C5  UNL     1      22.216   0.701  52.960  1.00  0.00     0.001 A 
HETATM   22  C4  UNL     1      20.855   0.539  52.844  1.00  0.00     0.014 A 
HETATM   23  C3  UNL     1      20.299  -0.437  53.680  1.00  0.00     0.004 A 
HETATM   24  C2  UNL     1      21.097  -1.170  54.552  1.00  0.00     0.042 A 
HETATM   25  C1  UNL     1      22.464  -0.957  54.620  1.00  0.00     0.117 A 
HETATM   26  F1  UNL     1      23.270  -1.651  55.456  1.00  0.00    -0.206 F 
HETATM   27  C20 UNL     1      23.054   0.004  53.807  1.00  0.00     0.056 A 
ENDBRANCH   1  21
TORSDOF 1
ENDMDL
MODEL 3
REMARK VINA RESULT:      -8.9      3.515      5.160
REMARK  1 active torsions:
REMARK  status: ('A' for Active; 'I' for Inactive)
REMARK    1  A    between atoms: C5_6  and  C6_7 
ROOT
HETATM    1  C6  UNL     1      24.231   2.059  51.566  1.00  0.00     0.091 C 
HETATM    2  C7  UNL     1      23.075   2.629  52.024  1.00  0.00    -0.000 C 
HETATM    3  C8  UNL     1      23.694   3.873  52.380  1.00  0.00     0.013 C 
HETATM    4  C9  UNL     1      22.530   4.485  52.478  1.00  0.00     0.007 C 
HETATM    5  C10 UNL     1      21.247   4.415  51.832  1.00  0.00     0.178 C 
HETATM    6  C11 UNL     1      20.634   3.033  52.025  1.00  0.00     0.065 C 
HETATM    7  C12 UNL     1      21.690   2.277  51.880  1.00  0.00     0.044 C 
HETATM    8  N1  UNL     1      19.284   3.401  52.198  1.00  0.00    -0.245 NA
HETATM    9  C13 UNL     1      18.737   4.006  51.112  1.00  0.00     0.223 C 
HETATM   10  N2  UNL     1      19.686   4.617  50.147  1.00  0.00    -0.294 N 
HETATM   11  N3  UNL     1      21.123   4.567  50.366  1.00  0.00    -0.295 N 
HETATM   12  C14 UNL     1      22.397   4.554  49.585  1.00  0.00     0.107 A 
HETATM   13  C15 UNL     1      22.008   3.252  49.414  1.00  0.00     0.084 A 
HETATM   14  C16 UNL     1      22.919   2.242  49.555  1.00  0.00    -0.002 A 
HETATM   15  C17 UNL     1      23.488   3.472  49.762  1.00  0.00     0.116 A 
HETATM   16  C18 UNL     1      23.784   4.785  49.905  1.00  0.00     0.120 A 
HETATM   17 CL1  UNL     1      25.375   5.491  50.101  1.00  0.00    -0.108 Cl
HETATM   18  C19 UNL     1      22.867   5.806  49.769  1.00  0.00     0.014 A 
HETATM   19  O1  UNL     1      24.577   2.586  50.147  1.00  0.00    -0.332 OA
HETATM   20  H9  UNL     1      19.600   5.128  49.202  1.00  0.00     0.187 HD
ENDROOT
BRANCH   1  21
HETATM   21  C5  UNL     1      25.062   1.094  52.260  1.00  0.00     0.001 A 
HETATM   22  C4  UNL     1      26.342   0.975  51.771  1.00  0.00     0.014 A 
HETATM   23  C3  UNL     1      27.149   0.045  52.437  1.00  0.00     0.004 A 
HETATM   24  C2  UNL     1      26.656  -0.688  53.513  1.00  0.00     0.042 A 
HETATM   25  C1  UNL     1      25.355  -0.520  53.956  1.00  0.00     0.117 A 
HETATM   26  F1  UNL     1      24.844  -1.215  54.997  1.00  0.00    -0.206 F 
HETATM   27  C20 UNL     1      24.522   0.394  53.320  1.00  0.00     0.056 A 
ENDBRANCH   1  21
TORSDOF 1
ENDMDL
MODEL 4
REMARK VINA RESULT:      -8.8      3.336      5.969
REMARK  1 active torsions:
REMARK  status: ('A' for Active; 'I' for Inactive)
REMARK    1  A    between atoms: C5_6  and  C6_7 
ROOT
HETATM    1  C6  UNL     1      22.961   2.323  52.221  1.00  0.00     0.091 C 
HETATM    2  C7  UNL     1      23.800   2.551  51.164  1.00  0.00    -0.000 C 
HETATM    3  C8  UNL     1      22.800   2.293  50.168  1.00  0.00     0.013 C 
HETATM    4  C9  UNL     1      23.529   2.848  49.219  1.00  0.00     0.007 C 
HETATM    5  C10 UNL     1      24.470   3.931  49.111  1.00  0.00     0.178 C 
HETATM    6  C11 UNL     1      25.676   3.672  50.005  1.00  0.00     0.065 C 
HETATM    7  C12 UNL     1      25.093   3.167  51.060  1.00  0.00     0.044 C 
HETATM    8  N1  UNL     1      26.694   4.177  49.171  1.00  0.00    -0.245 NA
HETATM    9  C13 UNL     1      26.582   5.506  48.912  1.00  0.00     0.223 C 
HETATM   10  N2  UNL     1      25.237   6.105  49.100  1.00  0.00    -0.294 N 
HETATM   11  N3  UNL     1      24.105   5.301  49.534  1.00  0.00    -0.295 N 
HETATM   12  C14 UNL     1      22.822   5.446  50.286  1.00  0.00     0.107 A 
HETATM   13  C15 UNL     1      23.704   5.432  51.334  1.00  0.00     0.084 A 
HETATM   14  C16 UNL     1      23.438   4.674  52.441  1.00  0.00    -0.002 A 
HETATM   15  C17 UNL     1      22.447   4.564  51.500  1.00  0.00     0.116 A 
HETATM   16  C18 UNL     1      21.631   4.645  50.423  1.00  0.00     0.120 A 
HETATM   17 CL1  UNL     1      20.015   3.986  50.274  1.00  0.00    -0.108 Cl
HETATM   18  C19 UNL     1      21.898   5.403  49.303  1.00  0.00     0.014 A 
HETATM   19  O1  UNL     1      22.041   3.550  52.462  1.00  0.00    -0.332 OA
HETATM   20  H9  UNL     1      24.816   7.094  49.019  1.00  0.00     0.187 HD
ENDROOT
BRANCH   1  21
HETATM   21  C5  UNL     1      22.893   1.128  53.039  1.00  0.00     0.001 A 
HETATM   22  C4  UNL     1      21.621   0.740  53.390  1.00  0.00     0.014 A 
HETATM   23  C3  UNL     1      21.548  -0.415  54.179  1.00  0.00     0.004 A 
HETATM   24  C2  UNL     1      22.702  -1.092  54.561  1.00  0.00     0.042 A 
HETATM   25  C1  UNL     1      23.955  -0.647  54.173  1.00  0.00     0.117 A 
HETATM   26  F1  UNL     1      25.096  -1.281  54.526  1.00  0.00    -0.206 F 
HETATM   27  C20 UNL     1      24.068   0.495  53.390  1.00  0.00     0.056 A 
ENDBRANCH   1  21
TORSDOF 1
ENDMDL
MODEL 5
REMARK VINA RESULT:      -8.7      3.495      6.084
REMARK  1 active torsions:
REMARK  status: ('A' for Active; 'I' for Inactive)
REMARK    1  A    between atoms: C5_6  and  C6_7 
ROOT
HETATM    1  C6  UNL     1      22.474   2.146  52.124  1.00  0.00     0.091 C 
HETATM    2  C7  UNL     1      23.389   2.285  51.117  1.00  0.00    -0.000 C 
HETATM    3  C8  UNL     1      22.410   2.276  50.070  1.00  0.00     0.013 C 
HETATM    4  C9  UNL     1      23.270   2.750  49.190  1.00  0.00     0.007 C 
HETATM    5  C10 UNL     1      24.393   3.650  49.194  1.00  0.00     0.178 C 
HETATM    6  C11 UNL     1      25.489   3.121  50.111  1.00  0.00     0.065 C 
HETATM    7  C12 UNL     1      24.775   2.663  51.105  1.00  0.00     0.044 C 
HETATM    8  N1  UNL     1      26.620   3.487  49.353  1.00  0.00    -0.245 NA
HETATM    9  C13 UNL     1      26.758   4.827  49.186  1.00  0.00     0.223 C 
HETATM   10  N2  UNL     1      25.533   5.646  49.367  1.00  0.00    -0.294 N 
HETATM   11  N3  UNL     1      24.257   5.033  49.701  1.00  0.00    -0.295 N 
HETATM   12  C14 UNL     1      22.985   5.360  50.414  1.00  0.00     0.107 A 
HETATM   13  C15 UNL     1      23.799   5.119  51.490  1.00  0.00     0.084 A 
HETATM   14  C16 UNL     1      23.349   4.353  52.529  1.00  0.00    -0.002 A 
HETATM   15  C17 UNL     1      22.401   4.484  51.548  1.00  0.00     0.116 A 
HETATM   16  C18 UNL     1      21.666   4.779  50.450  1.00  0.00     0.120 A 
HETATM   17 CL1  UNL     1      19.968   4.434  50.195  1.00  0.00    -0.108 Cl
HETATM   18  C19 UNL     1      22.117   5.547  49.398  1.00  0.00     0.014 A 
HETATM   19  O1  UNL     1      21.775   3.501  52.419  1.00  0.00    -0.332 OA
HETATM   20  H9  UNL     1      25.299   6.698  49.341  1.00  0.00     0.187 HD
ENDROOT
BRANCH   1  21
HETATM   21  C5  UNL     1      22.155   0.932  52.852  1.00  0.00     0.001 A 
HETATM   22  C4  UNL     1      23.235   0.298  53.420  1.00  0.00     0.014 A 
HETATM   23  C3  UNL     1      22.934  -0.874  54.124  1.00  0.00     0.004 A 
HETATM   24  C2  UNL     1      21.624  -1.332  54.220  1.00  0.00     0.042 A 
HETATM   25  C1  UNL     1      20.580  -0.645  53.623  1.00  0.00     0.117 A 
HETATM   26  F1  UNL     1      19.296  -1.062  53.696  1.00  0.00    -0.206 F 
HETATM   27  C20 UNL     1      20.839   0.522  52.915  1.00  0.00     0.056 A 
ENDBRANCH   1  21
TORSDOF 1
ENDMDL
MODEL 6
REMARK VINA RESULT:      -8.7      6.645      9.906
REMARK  1 active torsions:
REMARK  status: ('A' for Active; 'I' for Inactive)
REMARK    1  A    between atoms: C5_6  and  C6_7 
ROOT
HETATM    1  C6  UNL     1      29.992   6.591  48.259  1.00  0.00     0.091 C 
HETATM    2  C7  UNL     1      30.813   5.956  47.368  1.00  0.00    -0.000 C 
HETATM    3  C8  UNL     1      30.934   7.090  46.497  1.00  0.00     0.013 C 
HETATM    4  C9  UNL     1      31.971   6.566  45.873  1.00  0.00     0.007 C 
HETATM    5  C10 UNL     1      33.089   5.726  46.212  1.00  0.00     0.178 C 
HETATM    6  C11 UNL     1      32.599   4.373  46.715  1.00  0.00     0.065 C 
HETATM    7  C12 UNL     1      31.573   4.740  47.437  1.00  0.00     0.044 C 
HETATM    8  N1  UNL     1      33.577   3.542  46.133  1.00  0.00    -0.245 NA
HETATM    9  C13 UNL     1      34.836   3.779  46.584  1.00  0.00     0.223 C 
HETATM   10  N2  UNL     1      35.080   5.109  47.197  1.00  0.00    -0.294 N 
HETATM   11  N3  UNL     1      34.020   6.100  47.299  1.00  0.00    -0.295 N 
HETATM   12  C14 UNL     1      33.608   7.246  48.165  1.00  0.00     0.107 A 
HETATM   13  C15 UNL     1      33.211   6.202  48.958  1.00  0.00     0.084 A 
HETATM   14  C16 UNL     1      31.985   6.232  49.563  1.00  0.00    -0.002 A 
HETATM   15  C17 UNL     1      32.208   7.357  48.812  1.00  0.00     0.116 A 
HETATM   16  C18 UNL     1      32.685   8.344  48.019  1.00  0.00     0.120 A 
HETATM   17 CL1  UNL     1      31.967   9.918  47.748  1.00  0.00    -0.108 Cl
HETATM   18  C19 UNL     1      33.919   8.316  47.403  1.00  0.00     0.014 A 
HETATM   19  O1  UNL     1      30.811   7.533  49.182  1.00  0.00    -0.332 OA
HETATM   20  H9  UNL     1      35.918   5.598  47.666  1.00  0.00     0.187 HD
ENDROOT
BRANCH   1  21
HETATM   21  C5  UNL     1      28.554   6.447  48.376  1.00  0.00     0.001 A 
HETATM   22  C4  UNL     1      27.842   7.614  48.229  1.00  0.00     0.014 A 
HETATM   23  C3  UNL     1      26.453   7.482  48.340  1.00  0.00     0.004 A 
HETATM   24  C2  UNL     1      25.871   6.242  48.582  1.00  0.00     0.042 A 
HETATM   25  C1  UNL     1      26.646   5.102  48.721  1.00  0.00     0.117 A 
HETATM   26  F1  UNL     1      26.114   3.882  48.957  1.00  0.00    -0.206 F 
HETATM   27  C20 UNL     1      28.030   5.193  48.618  1.00  0.00     0.056 A 
ENDBRANCH   1  21
TORSDOF 1
ENDMDL
MODEL 7
REMARK VINA RESULT:      -8.6      3.499      5.611
REMARK  1 active torsions:
REMARK  status: ('A' for Active; 'I' for Inactive)
REMARK    1  A    between atoms: C5_6  and  C6_7 
ROOT
HETATM    1  C6  UNL     1      24.126   2.354  51.852  1.00  0.00     0.091 C 
HETATM    2  C7  UNL     1      24.366   3.062  50.706  1.00  0.00    -0.000 C 
HETATM    3  C8  UNL     1      23.333   2.413  49.952  1.00  0.00     0.013 C 
HETATM    4  C9  UNL     1      23.367   3.337  49.011  1.00  0.00     0.007 C 
HETATM    5  C10 UNL     1      23.609   4.753  48.935  1.00  0.00     0.178 C 
HETATM    6  C11 UNL     1      25.017   5.075  49.422  1.00  0.00     0.065 C 
HETATM    7  C12 UNL     1      25.114   4.259  50.438  1.00  0.00     0.044 C 
HETATM    8  N1  UNL     1      25.350   6.095  48.508  1.00  0.00    -0.245 NA
HETATM    9  C13 UNL     1      24.560   7.195  48.603  1.00  0.00     0.223 C 
HETATM   10  N2  UNL     1      23.236   7.006  49.248  1.00  0.00    -0.294 N 
HETATM   11  N3  UNL     1      22.816   5.705  49.743  1.00  0.00    -0.295 N 
HETATM   12  C14 UNL     1      21.938   5.113  50.798  1.00  0.00     0.107 A 
HETATM   13  C15 UNL     1      23.015   5.466  51.565  1.00  0.00     0.084 A 
HETATM   14  C16 UNL     1      23.508   4.591  52.494  1.00  0.00    -0.002 A 
HETATM   15  C17 UNL     1      22.433   4.068  51.824  1.00  0.00     0.116 A 
HETATM   16  C18 UNL     1      21.370   3.808  51.028  1.00  0.00     0.120 A 
HETATM   17 CL1  UNL     1      20.292   2.431  51.126  1.00  0.00    -0.108 Cl
HETATM   18  C19 UNL     1      20.873   4.685  50.087  1.00  0.00     0.014 A 
HETATM   19  O1  UNL     1      22.881   2.914  52.591  1.00  0.00    -0.332 OA
HETATM   20  H9  UNL     1      22.407   7.645  49.506  1.00  0.00     0.187 HD
ENDROOT
BRANCH   1  21
HETATM   21  C5  UNL     1      24.889   1.229  52.358  1.00  0.00     0.001 A 
HETATM   22  C4  UNL     1      26.081   1.001  51.710  1.00  0.00     0.014 A 
HETATM   23  C3  UNL     1      26.823  -0.083  52.194  1.00  0.00     0.004 A 
HETATM   24  C2  UNL     1      26.355  -0.851  53.256  1.00  0.00     0.042 A 
HETATM   25  C1  UNL     1      25.144  -0.567  53.865  1.00  0.00     0.117 A 
HETATM   26  F1  UNL     1      24.660  -1.293  54.898  1.00  0.00    -0.206 F 
HETATM   27  C20 UNL     1      24.378   0.501  53.412  1.00  0.00     0.056 A 
ENDBRANCH   1  21
TORSDOF 1
ENDMDL
MODEL 8
REMARK VINA RESULT:      -8.5      3.811      5.032
REMARK  1 active torsions:
REMARK  status: ('A' for Active; 'I' for Inactive)
REMARK    1  A    between atoms: C5_6  and  C6_7 
ROOT
HETATM    1  C6  UNL     1      22.840   1.645  51.802  1.00  0.00     0.091 C 
HETATM    2  C7  UNL     1      21.517   1.352  51.991  1.00  0.00    -0.000 C 
HETATM    3  C8  UNL     1      21.186   2.649  52.506  1.00  0.00     0.013 C 
HETATM    4  C9  UNL     1      19.894   2.441  52.345  1.00  0.00     0.007 C 
HETATM    5  C10 UNL     1      19.049   1.736  51.417  1.00  0.00     0.178 C 
HETATM    6  C11 UNL     1      19.375   0.247  51.434  1.00  0.00     0.065 C 
HETATM    7  C12 UNL     1      20.678   0.285  51.522  1.00  0.00     0.044 C 
HETATM    8  N1  UNL     1      18.073  -0.276  51.297  1.00  0.00    -0.245 NA
HETATM    9  C13 UNL     1      17.469   0.056  50.127  1.00  0.00     0.223 C 
HETATM   10  N2  UNL     1      18.004   1.248  49.421  1.00  0.00    -0.294 N 
HETATM   11  N3  UNL     1      19.114   2.014  49.966  1.00  0.00    -0.295 N 
HETATM   12  C14 UNL     1      20.247   2.870  49.502  1.00  0.00     0.107 A 
HETATM   13  C15 UNL     1      20.761   1.632  49.218  1.00  0.00     0.084 A 
HETATM   14  C16 UNL     1      22.056   1.339  49.545  1.00  0.00    -0.002 A 
HETATM   15  C17 UNL     1      21.719   2.618  49.904  1.00  0.00     0.116 A 
HETATM   16  C18 UNL     1      21.131   3.814  50.140  1.00  0.00     0.120 A 
HETATM   17 CL1  UNL     1      21.907   5.275  50.713  1.00  0.00    -0.108 Cl
HETATM   18  C19 UNL     1      19.824   4.113  49.816  1.00  0.00     0.014 A 
HETATM   19  O1  UNL     1      23.035   2.488  50.512  1.00  0.00    -0.332 OA
HETATM   20  H9  UNL     1      17.791   1.753  48.493  1.00  0.00     0.187 HD
ENDROOT
BRANCH   1  21
HETATM   21  C5  UNL     1      23.950   1.253  52.649  1.00  0.00     0.001 A 
HETATM   22  C4  UNL     1      23.876  -0.028  53.142  1.00  0.00     0.014 A 
HETATM   23  C3  UNL     1      24.945  -0.413  53.961  1.00  0.00     0.004 A 
HETATM   24  C2  UNL     1      25.989   0.466  54.233  1.00  0.00     0.042 A 
HETATM   25  C1  UNL     1      26.002   1.746  53.704  1.00  0.00     0.117 A 
HETATM   26  F1  UNL     1      26.999   2.626  53.948  1.00  0.00    -0.206 F 
HETATM   27  C20 UNL     1      24.958   2.165  52.887  1.00  0.00     0.056 A 
ENDBRANCH   1  21
TORSDOF 1
ENDMDL
MODEL 9
REMARK VINA RESULT:      -8.3      4.443      6.229
REMARK  1 active torsions:
REMARK  status: ('A' for Active; 'I' for Inactive)
REMARK    1  A    between atoms: C5_6  and  C6_7 
ROOT
HETATM    1  C6  UNL     1      22.039   1.165  52.257  1.00  0.00     0.091 C 
HETATM    2  C7  UNL     1      22.190   1.610  50.972  1.00  0.00    -0.000 C 
HETATM    3  C8  UNL     1      21.466   0.520  50.386  1.00  0.00     0.013 C 
HETATM    4  C9  UNL     1      21.339   1.153  49.237  1.00  0.00     0.007 C 
HETATM    5  C10 UNL     1      21.182   2.514  48.796  1.00  0.00     0.178 C 
HETATM    6  C11 UNL     1      22.385   3.348  49.221  1.00  0.00     0.065 C 
HETATM    7  C12 UNL     1      22.599   2.871  50.420  1.00  0.00     0.044 C 
HETATM    8  N1  UNL     1      22.515   4.165  48.080  1.00  0.00    -0.245 NA
HETATM    9  C13 UNL     1      21.444   4.970  47.859  1.00  0.00     0.223 C 
HETATM   10  N2  UNL     1      20.165   4.560  48.492  1.00  0.00    -0.294 N 
HETATM   11  N3  UNL     1      20.075   3.355  49.301  1.00  0.00    -0.295 N 
HETATM   12  C14 UNL     1      19.291   2.805  50.448  1.00  0.00     0.107 A 
HETATM   13  C15 UNL     1      20.140   3.638  51.126  1.00  0.00     0.084 A 
HETATM   14  C16 UNL     1      20.757   3.204  52.267  1.00  0.00    -0.002 A 
HETATM   15  C17 UNL     1      19.947   2.238  51.728  1.00  0.00     0.116 A 
HETATM   16  C18 UNL     1      19.089   1.488  50.999  1.00  0.00     0.120 A 
HETATM   17 CL1  UNL     1      18.433  -0.079  51.426  1.00  0.00    -0.108 Cl
HETATM   18  C19 UNL     1      18.469   1.920  49.845  1.00  0.00     0.014 A 
HETATM   19  O1  UNL     1      20.616   1.493  52.785  1.00  0.00    -0.332 OA
HETATM   20  H9  UNL     1      19.168   4.967  48.547  1.00  0.00     0.187 HD
ENDROOT
BRANCH   1  21
HETATM   21  C5  UNL     1      23.027   0.476  53.064  1.00  0.00     0.001 A 
HETATM   22  C4  UNL     1      24.334   0.760  52.743  1.00  0.00     0.014 A 
HETATM   23  C3  UNL     1      25.295   0.099  53.519  1.00  0.00     0.004 A 
HETATM   24  C2  UNL     1      24.914  -0.775  54.533  1.00  0.00     0.042 A 
HETATM   25  C1  UNL     1      23.578  -1.017  54.805  1.00  0.00     0.117 A 
HETATM   26  F1  UNL     1      23.174  -1.859  55.782  1.00  0.00    -0.206 F 
HETATM   27  C20 UNL     1      22.595  -0.380  54.056  1.00  0.00     0.056 A 
ENDBRANCH   1  21
TORSDOF 1
ENDMDL
