MODEL 1
REMARK VINA RESULT:      -9.6      0.000      0.000
REMARK  2 active torsions:
REMARK  status: ('A' for Active; 'I' for Inactive)
REMARK    1  A    between atoms: C7_9  and  N2_10 
REMARK       I    between atoms: N2_10  and  C8_11 
REMARK    2  A    between atoms: C8_11  and  C9_13 
ROOT
HETATM    1  C1  UNL     1      16.600   0.031  50.735  1.00  0.00     0.050 C 
HETATM    2  C2  UNL     1      17.995   0.379  51.106  1.00  0.00    -0.043 C 
HETATM    3  C3  UNL     1      18.220  -0.428  52.188  1.00  0.00    -0.010 C 
HETATM    4  C4  UNL     1      17.150  -1.342  52.652  1.00  0.00     0.062 C 
HETATM    5  N1  UNL     1      19.465  -0.350  52.936  1.00  0.00    -0.265 NA
HETATM    6  C5  UNL     1      20.505   0.181  53.865  1.00  0.00     0.252 C 
HETATM    7  O1  UNL     1      21.397  -0.855  53.966  1.00  0.00    -0.359 OA
HETATM    8  C6  UNL     1      22.712  -0.578  54.128  1.00  0.00     0.228 C 
HETATM    9  C7  UNL     1      23.203   0.599  53.402  1.00  0.00     0.048 C 
HETATM   10  C15 UNL     1      22.487   1.447  52.750  1.00  0.00     0.017 C 
HETATM   11  C16 UNL     1      23.005   2.440  51.764  1.00  0.00     0.022 C 
HETATM   12  C17 UNL     1      21.730   2.717  51.720  1.00  0.00    -0.034 C 
HETATM   13  C18 UNL     1      20.383   3.286  52.156  1.00  0.00     0.185 C 
HETATM   14  N4  UNL     1      19.863   1.996  52.815  1.00  0.00    -0.285 NA
HETATM   15  C19 UNL     1      21.048   1.349  53.121  1.00  0.00     0.084 C 
HETATM   16  C20 UNL     1      21.366   1.918  50.495  1.00  0.00     0.175 C 
HETATM   17 CL1  UNL     1      21.945   0.220  50.622  1.00  0.00    -0.113 Cl
HETATM   18  C21 UNL     1      19.984   1.885  50.055  1.00  0.00     0.117 C 
HETATM   19  F1  UNL     1      19.858   2.846  49.050  1.00  0.00    -0.209 F 
HETATM   20  C22 UNL     1      18.819   1.281  50.344  1.00  0.00     0.048 C 
HETATM   21  H7  UNL     1      18.835   0.480  53.209  1.00  0.00     0.130 HD
ENDROOT
BRANCH   9  22
HETATM   22  N2  UNL     1      24.588   0.911  53.359  1.00  0.00    -0.326 N 
HETATM   23  C8  UNL     1      25.511  -0.103  53.031  1.00  0.00     0.255 C 
HETATM   24  O2  UNL     1      25.279  -1.308  52.759  1.00  0.00    -0.271 OA
HETATM   25  H11 UNL     1      25.070   1.791  53.533  1.00  0.00     0.168 HD
BRANCH  23  26
HETATM   26  C9  UNL     1      26.966  -0.020  52.922  1.00  0.00     0.314 C 
HETATM   27  C10 UNL     1      27.653  -1.356  53.101  1.00  0.00     0.046 C 
HETATM   28  C11 UNL     1      29.144  -1.068  53.003  1.00  0.00     0.004 C 
HETATM   29  C12 UNL     1      29.511  -0.296  54.242  1.00  0.00     0.030 C 
HETATM   30  C13 UNL     1      28.386   0.497  54.813  1.00  0.00     0.273 C 
HETATM   31  N3  UNL     1      27.422   0.958  53.878  1.00  0.00     0.098 N 
HETATM   32  C14 UNL     1      27.750   2.225  53.273  1.00  0.00     0.310 C 
ENDBRANCH  23  26
ENDBRANCH   9  22
TORSDOF 2
ENDMDL
MODEL 2
REMARK VINA RESULT:      -9.5      4.575      6.813
REMARK  2 active torsions:
REMARK  status: ('A' for Active; 'I' for Inactive)
REMARK    1  A    between atoms: C7_9  and  N2_10 
REMARK       I    between atoms: N2_10  and  C8_11 
REMARK    2  A    between atoms: C8_11  and  C9_13 
ROOT
HETATM    1  C1  UNL     1      23.401  -1.864  55.725  1.00  0.00     0.050 C 
HETATM    2  C2  UNL     1      23.993  -0.833  54.835  1.00  0.00    -0.043 C 
HETATM    3  C3  UNL     1      22.894  -0.344  54.182  1.00  0.00    -0.010 C 
HETATM    4  C4  UNL     1      21.554  -0.892  54.499  1.00  0.00     0.062 C 
HETATM    5  N1  UNL     1      23.027   0.651  53.131  1.00  0.00    -0.265 NA
HETATM    6  C5  UNL     1      23.343   1.239  51.796  1.00  0.00     0.252 C 
HETATM    7  O1  UNL     1      22.816   2.502  51.874  1.00  0.00    -0.359 OA
HETATM    8  C6  UNL     1      23.429   3.514  51.216  1.00  0.00     0.228 C 
HETATM    9  C7  UNL     1      24.895   3.451  51.190  1.00  0.00     0.048 C 
HETATM   10  C15 UNL     1      25.625   2.476  51.608  1.00  0.00     0.017 C 
HETATM   11  C16 UNL     1      27.092   2.544  51.872  1.00  0.00     0.022 C 
HETATM   12  C17 UNL     1      26.861   1.297  52.183  1.00  0.00    -0.034 C 
HETATM   13  C18 UNL     1      26.583  -0.189  51.983  1.00  0.00     0.185 C 
HETATM   14  N4  UNL     1      25.053  -0.093  52.124  1.00  0.00    -0.285 NA
HETATM   15  C19 UNL     1      24.830   1.228  51.772  1.00  0.00     0.084 C 
HETATM   16  C20 UNL     1      26.738   1.454  53.677  1.00  0.00     0.175 C 
HETATM   17 CL1  UNL     1      25.570   2.752  54.108  1.00  0.00    -0.113 Cl
HETATM   18  C21 UNL     1      26.431   0.292  54.489  1.00  0.00     0.117 C 
HETATM   19  F1  UNL     1      27.646  -0.188  54.980  1.00  0.00    -0.209 F 
HETATM   20  C22 UNL     1      25.387  -0.471  54.854  1.00  0.00     0.048 C 
HETATM   21  H7  UNL     1      23.298  -0.315  52.741  1.00  0.00     0.130 HD
ENDROOT
BRANCH   9  22
HETATM   22  N2  UNL     1      25.668   4.524  50.672  1.00  0.00    -0.326 N 
HETATM   23  C8  UNL     1      25.324   5.076  49.421  1.00  0.00     0.255 C 
HETATM   24  O2  UNL     1      24.388   4.740  48.653  1.00  0.00    -0.271 OA
HETATM   25  H11 UNL     1      26.479   5.001  51.063  1.00  0.00     0.168 HD
BRANCH  23  26
HETATM   26  C9  UNL     1      25.961   6.173  48.696  1.00  0.00     0.314 C 
HETATM   27  C10 UNL     1      27.448   5.974  48.501  1.00  0.00     0.046 C 
HETATM   28  C11 UNL     1      27.939   7.221  47.780  1.00  0.00     0.004 C 
HETATM   29  C12 UNL     1      27.845   8.350  48.769  1.00  0.00     0.030 C 
HETATM   30  C13 UNL     1      26.792   8.158  49.806  1.00  0.00     0.273 C 
HETATM   31  N3  UNL     1      25.665   7.395  49.402  1.00  0.00     0.098 N 
HETATM   32  C14 UNL     1      24.626   8.171  48.770  1.00  0.00     0.310 C 
ENDBRANCH  23  26
ENDBRANCH   9  22
TORSDOF 2
ENDMDL
MODEL 3
REMARK VINA RESULT:      -9.2      2.580      3.830
REMARK  2 active torsions:
REMARK  status: ('A' for Active; 'I' for Inactive)
REMARK    1  A    between atoms: C7_9  and  N2_10 
REMARK       I    between atoms: N2_10  and  C8_11 
REMARK    2  A    between atoms: C8_11  and  C9_13 
ROOT
HETATM    1  C1  UNL     1      17.425   4.105  48.631  1.00  0.00     0.050 C 
HETATM    2  C2  UNL     1      18.613   3.626  49.382  1.00  0.00    -0.043 C 
HETATM    3  C3  UNL     1      19.391   4.750  49.449  1.00  0.00    -0.010 C 
HETATM    4  C4  UNL     1      18.903   6.011  48.841  1.00  0.00     0.062 C 
HETATM    5  N1  UNL     1      20.717   4.711  50.042  1.00  0.00    -0.265 NA
HETATM    6  C5  UNL     1      22.174   4.418  50.189  1.00  0.00     0.252 C 
HETATM    7  O1  UNL     1      22.527   5.126  51.308  1.00  0.00    -0.359 OA
HETATM    8  C6  UNL     1      23.490   4.633  52.122  1.00  0.00     0.228 C 
HETATM    9  C7  UNL     1      23.497   3.174  52.280  1.00  0.00     0.048 C 
HETATM   10  C15 UNL     1      22.775   2.332  51.625  1.00  0.00     0.017 C 
HETATM   11  C16 UNL     1      22.553   0.905  52.002  1.00  0.00     0.022 C 
HETATM   12  C17 UNL     1      21.838   0.968  50.912  1.00  0.00    -0.034 C 
HETATM   13  C18 UNL     1      21.521   1.018  49.420  1.00  0.00     0.185 C 
HETATM   14  N4  UNL     1      21.418   2.551  49.323  1.00  0.00    -0.285 NA
HETATM   15  C19 UNL     1      22.195   2.945  50.398  1.00  0.00     0.084 C 
HETATM   16  C20 UNL     1      20.485   1.187  51.539  1.00  0.00     0.175 C 
HETATM   17 CL1  UNL     1      20.517   2.551  52.712  1.00  0.00    -0.113 Cl
HETATM   18  C21 UNL     1      19.326   1.362  50.685  1.00  0.00     0.117 C 
HETATM   19  F1  UNL     1      18.704   0.116  50.589  1.00  0.00    -0.209 F 
HETATM   20  C22 UNL     1      18.722   2.302  49.938  1.00  0.00     0.048 C 
HETATM   21  H7  UNL     1      20.758   4.283  49.054  1.00  0.00     0.130 HD
ENDROOT
BRANCH   9  22
HETATM   22  N2  UNL     1      24.350   2.540  53.222  1.00  0.00    -0.326 N 
HETATM   23  C8  UNL     1      25.700   2.318  52.884  1.00  0.00     0.255 C 
HETATM   24  O2  UNL     1      26.294   2.609  51.815  1.00  0.00    -0.271 OA
HETATM   25  H11 UNL     1      24.153   2.194  54.160  1.00  0.00     0.168 HD
BRANCH  23  26
HETATM   26  C9  UNL     1      26.755   1.696  53.681  1.00  0.00     0.314 C 
HETATM   27  C10 UNL     1      28.145   2.147  53.287  1.00  0.00     0.046 C 
HETATM   28  C11 UNL     1      29.100   1.370  54.180  1.00  0.00     0.004 C 
HETATM   29  C12 UNL     1      29.035  -0.064  53.728  1.00  0.00     0.030 C 
HETATM   30  C13 UNL     1      27.735  -0.441  53.105  1.00  0.00     0.273 C 
HETATM   31  N3  UNL     1      26.598   0.267  53.577  1.00  0.00     0.098 N 
HETATM   32  C14 UNL     1      25.986  -0.318  54.745  1.00  0.00     0.310 C 
ENDBRANCH  23  26
ENDBRANCH   9  22
TORSDOF 2
ENDMDL
MODEL 4
REMARK VINA RESULT:      -9.0      3.564      5.306
REMARK  2 active torsions:
REMARK  status: ('A' for Active; 'I' for Inactive)
REMARK    1  A    between atoms: C7_9  and  N2_10 
REMARK       I    between atoms: N2_10  and  C8_11 
REMARK    2  A    between atoms: C8_11  and  C9_13 
ROOT
HETATM    1  C1  UNL     1      20.820   7.869  50.110  1.00  0.00     0.050 C 
HETATM    2  C2  UNL     1      21.635   6.648  50.329  1.00  0.00    -0.043 C 
HETATM    3  C3  UNL     1      22.822   6.976  49.731  1.00  0.00    -0.010 C 
HETATM    4  C4  UNL     1      22.977   8.310  49.104  1.00  0.00     0.062 C 
HETATM    5  N1  UNL     1      23.906   6.012  49.636  1.00  0.00    -0.265 NA
HETATM    6  C5  UNL     1      24.684   4.827  49.170  1.00  0.00     0.252 C 
HETATM    7  O1  UNL     1      25.905   4.995  49.769  1.00  0.00    -0.359 OA
HETATM    8  C6  UNL     1      26.609   3.903  50.148  1.00  0.00     0.228 C 
HETATM    9  C7  UNL     1      25.809   2.786  50.666  1.00  0.00     0.048 C 
HETATM   10  C15 UNL     1      24.525   2.702  50.665  1.00  0.00     0.017 C 
HETATM   11  C16 UNL     1      23.720   1.733  51.466  1.00  0.00     0.022 C 
HETATM   12  C17 UNL     1      22.763   2.375  50.852  1.00  0.00    -0.034 C 
HETATM   13  C18 UNL     1      21.831   2.794  49.719  1.00  0.00     0.185 C 
HETATM   14  N4  UNL     1      22.647   4.022  49.278  1.00  0.00    -0.285 NA
HETATM   15  C19 UNL     1      23.912   3.685  49.728  1.00  0.00     0.084 C 
HETATM   16  C20 UNL     1      22.402   3.346  51.947  1.00  0.00     0.175 C 
HETATM   17 CL1  UNL     1      23.854   4.210  52.565  1.00  0.00    -0.113 Cl
HETATM   18  C21 UNL     1      21.366   4.333  51.708  1.00  0.00     0.117 C 
HETATM   19  F1  UNL     1      20.186   3.816  52.243  1.00  0.00    -0.209 F 
HETATM   20  C22 UNL     1      21.185   5.519  51.102  1.00  0.00     0.048 C 
HETATM   21  H7  UNL     1      23.160   5.782  48.893  1.00  0.00     0.130 HD
ENDROOT
BRANCH   9  22
HETATM   22  N2  UNL     1      26.428   1.644  51.241  1.00  0.00    -0.326 N 
HETATM   23  C8  UNL     1      26.847   1.695  52.586  1.00  0.00     0.255 C 
HETATM   24  O2  UNL     1      26.753   2.652  53.395  1.00  0.00    -0.271 OA
HETATM   25  H11 UNL     1      26.638   0.734  50.834  1.00  0.00     0.168 HD
BRANCH  23  26
HETATM   26  C9  UNL     1      27.495   0.657  53.385  1.00  0.00     0.314 C 
HETATM   27  C10 UNL     1      28.970   0.506  53.082  1.00  0.00     0.046 C 
HETATM   28  C11 UNL     1      29.456  -0.636  53.962  1.00  0.00     0.004 C 
HETATM   29  C12 UNL     1      28.836  -1.892  53.413  1.00  0.00     0.030 C 
HETATM   30  C13 UNL     1      27.541  -1.667  52.710  1.00  0.00     0.273 C 
HETATM   31  N3  UNL     1      26.769  -0.571  53.179  1.00  0.00     0.098 N 
HETATM   32  C14 UNL     1      25.893  -0.897  54.277  1.00  0.00     0.310 C 
ENDBRANCH  23  26
ENDBRANCH   9  22
TORSDOF 2
ENDMDL
MODEL 5
REMARK VINA RESULT:      -8.8      1.937      2.457
REMARK  2 active torsions:
REMARK  status: ('A' for Active; 'I' for Inactive)
REMARK    1  A    between atoms: C7_9  and  N2_10 
REMARK       I    between atoms: N2_10  and  C8_11 
REMARK    2  A    between atoms: C8_11  and  C9_13 
ROOT
HETATM    1  C1  UNL     1      17.363   4.344  50.140  1.00  0.00     0.050 C 
HETATM    2  C2  UNL     1      18.787   3.993  50.372  1.00  0.00    -0.043 C 
HETATM    3  C3  UNL     1      18.689   2.882  51.166  1.00  0.00    -0.010 C 
HETATM    4  C4  UNL     1      17.350   2.367  51.537  1.00  0.00     0.062 C 
HETATM    5  N1  UNL     1      19.876   2.243  51.711  1.00  0.00    -0.265 NA
HETATM    6  C5  UNL     1      21.072   2.025  52.577  1.00  0.00     0.252 C 
HETATM    7  O1  UNL     1      21.452   0.743  52.273  1.00  0.00    -0.359 OA
HETATM    8  C6  UNL     1      22.767   0.422  52.300  1.00  0.00     0.228 C 
HETATM    9  C7  UNL     1      23.681   1.471  51.832  1.00  0.00     0.048 C 
HETATM   10  C15 UNL     1      23.365   2.683  51.535  1.00  0.00     0.017 C 
HETATM   11  C16 UNL     1      24.219   3.637  50.768  1.00  0.00     0.022 C 
HETATM   12  C17 UNL     1      23.176   4.390  50.990  1.00  0.00    -0.034 C 
HETATM   13  C18 UNL     1      22.204   5.284  51.756  1.00  0.00     0.185 C 
HETATM   14  N4  UNL     1      21.214   4.168  52.134  1.00  0.00    -0.285 NA
HETATM   15  C19 UNL     1      22.029   3.050  52.082  1.00  0.00     0.084 C 
HETATM   16  C20 UNL     1      22.471   4.197  49.671  1.00  0.00     0.175 C 
HETATM   17 CL1  UNL     1      22.291   2.453  49.271  1.00  0.00    -0.113 Cl
HETATM   18  C21 UNL     1      21.189   4.838  49.451  1.00  0.00     0.117 C 
HETATM   19  F1  UNL     1      21.444   6.021  48.756  1.00  0.00    -0.209 F 
HETATM   20  C22 UNL     1      19.888   4.682  49.749  1.00  0.00     0.048 C 
HETATM   21  H7  UNL     1      19.659   3.132  52.279  1.00  0.00     0.130 HD
ENDROOT
BRANCH   9  22
HETATM   22  N2  UNL     1      25.068   1.214  51.661  1.00  0.00    -0.326 N 
HETATM   23  C8  UNL     1      25.818   0.740  52.756  1.00  0.00     0.255 C 
HETATM   24  O2  UNL     1      25.424   0.501  53.925  1.00  0.00    -0.271 OA
HETATM   25  H11 UNL     1      25.659   1.315  50.838  1.00  0.00     0.168 HD
BRANCH  23  26
HETATM   26  C9  UNL     1      27.239   0.406  52.819  1.00  0.00     0.314 C 
HETATM   27  C10 UNL     1      27.496  -1.078  52.971  1.00  0.00     0.046 C 
HETATM   28  C11 UNL     1      29.007  -1.227  53.065  1.00  0.00     0.004 C 
HETATM   29  C12 UNL     1      29.411  -0.644  54.392  1.00  0.00     0.030 C 
HETATM   30  C13 UNL     1      28.489   0.415  54.892  1.00  0.00     0.273 C 
HETATM   31  N3  UNL     1      27.823   1.171  53.892  1.00  0.00     0.098 N 
HETATM   32  C14 UNL     1      28.569   2.314  53.425  1.00  0.00     0.310 C 
ENDBRANCH  23  26
ENDBRANCH   9  22
TORSDOF 2
ENDMDL
MODEL 6
REMARK VINA RESULT:      -8.7      4.957      7.785
REMARK  2 active torsions:
REMARK  status: ('A' for Active; 'I' for Inactive)
REMARK    1  A    between atoms: C7_9  and  N2_10 
REMARK       I    between atoms: N2_10  and  C8_11 
REMARK    2  A    between atoms: C8_11  and  C9_13 
ROOT
HETATM    1  C1  UNL     1      26.668  10.100  48.968  1.00  0.00     0.050 C 
HETATM    2  C2  UNL     1      26.000   8.805  49.251  1.00  0.00    -0.043 C 
HETATM    3  C3  UNL     1      27.045   7.922  49.213  1.00  0.00    -0.010 C 
HETATM    4  C4  UNL     1      28.413   8.423  48.944  1.00  0.00     0.062 C 
HETATM    5  N1  UNL     1      26.825   6.492  49.358  1.00  0.00    -0.265 NA
HETATM    6  C5  UNL     1      26.413   5.100  49.012  1.00  0.00     0.252 C 
HETATM    7  O1  UNL     1      26.918   4.355  50.046  1.00  0.00    -0.359 OA
HETATM    8  C6  UNL     1      26.243   3.256  50.457  1.00  0.00     0.228 C 
HETATM    9  C7  UNL     1      24.779   3.365  50.424  1.00  0.00     0.048 C 
HETATM   10  C15 UNL     1      24.098   4.337  49.925  1.00  0.00     0.017 C 
HETATM   11  C16 UNL     1      22.649   4.596  50.174  1.00  0.00     0.022 C 
HETATM   12  C17 UNL     1      22.926   5.590  49.374  1.00  0.00    -0.034 C 
HETATM   13  C18 UNL     1      23.222   6.325  48.070  1.00  0.00     0.185 C 
HETATM   14  N4  UNL     1      24.755   6.281  48.199  1.00  0.00    -0.285 NA
HETATM   15  C19 UNL     1      24.928   5.182  49.022  1.00  0.00     0.084 C 
HETATM   16  C20 UNL     1      23.140   6.664  50.410  1.00  0.00     0.175 C 
HETATM   17 CL1  UNL     1      24.305   6.135  51.673  1.00  0.00    -0.113 Cl
HETATM   18  C21 UNL     1      23.521   7.996  49.982  1.00  0.00     0.117 C 
HETATM   19  F1  UNL     1      22.350   8.753  49.931  1.00  0.00    -0.209 F 
HETATM   20  C22 UNL     1      24.603   8.685  49.580  1.00  0.00     0.048 C 
HETATM   21  H7  UNL     1      26.550   6.794  48.362  1.00  0.00     0.130 HD
ENDROOT
BRANCH   9  22
HETATM   22  N2  UNL     1      23.954   2.348  50.971  1.00  0.00    -0.326 N 
HETATM   23  C8  UNL     1      23.776   2.286  52.368  1.00  0.00     0.255 C 
HETATM   24  O2  UNL     1      24.268   3.034  53.249  1.00  0.00    -0.271 OA
HETATM   25  H11 UNL     1      23.431   1.605  50.510  1.00  0.00     0.168 HD
BRANCH  23  26
HETATM   26  C9  UNL     1      22.980   1.343  53.151  1.00  0.00     0.314 C 
HETATM   27  C10 UNL     1      23.727   0.072  53.491  1.00  0.00     0.046 C 
HETATM   28  C11 UNL     1      22.738  -0.795  54.256  1.00  0.00     0.004 C 
HETATM   29  C12 UNL     1      21.698  -1.234  53.261  1.00  0.00     0.030 C 
HETATM   30  C13 UNL     1      21.511  -0.286  52.126  1.00  0.00     0.273 C 
HETATM   31  N3  UNL     1      21.767   1.080  52.419  1.00  0.00     0.098 N 
HETATM   32  C14 UNL     1      20.627   1.791  52.945  1.00  0.00     0.310 C 
ENDBRANCH  23  26
ENDBRANCH   9  22
TORSDOF 2
ENDMDL
MODEL 7
REMARK VINA RESULT:      -8.7      3.699      4.968
REMARK  2 active torsions:
REMARK  status: ('A' for Active; 'I' for Inactive)
REMARK    1  A    between atoms: C7_9  and  N2_10 
REMARK       I    between atoms: N2_10  and  C8_11 
REMARK    2  A    between atoms: C8_11  and  C9_13 
ROOT
HETATM    1  C1  UNL     1      18.561  -1.423  53.455  1.00  0.00     0.050 C 
HETATM    2  C2  UNL     1      19.394  -0.448  52.707  1.00  0.00    -0.043 C 
HETATM    3  C3  UNL     1      20.621  -0.601  53.294  1.00  0.00    -0.010 C 
HETATM    4  C4  UNL     1      20.789  -1.588  54.386  1.00  0.00     0.062 C 
HETATM    5  N1  UNL     1      21.744   0.242  52.916  1.00  0.00    -0.265 NA
HETATM    6  C5  UNL     1      22.607   1.455  52.811  1.00  0.00     0.252 C 
HETATM    7  O1  UNL     1      23.756   0.977  52.237  1.00  0.00    -0.359 OA
HETATM    8  C6  UNL     1      24.459   1.778  51.402  1.00  0.00     0.228 C 
HETATM    9  C7  UNL     1      23.653   2.656  50.545  1.00  0.00     0.048 C 
HETATM   10  C15 UNL     1      22.379   2.827  50.610  1.00  0.00     0.017 C 
HETATM   11  C16 UNL     1      21.535   3.459  49.554  1.00  0.00     0.022 C 
HETATM   12  C17 UNL     1      20.620   3.181  50.443  1.00  0.00    -0.034 C 
HETATM   13  C18 UNL     1      19.789   3.309  51.716  1.00  0.00     0.185 C 
HETATM   14  N4  UNL     1      20.600   2.298  52.546  1.00  0.00    -0.285 NA
HETATM   15  C19 UNL     1      21.826   2.339  51.904  1.00  0.00     0.084 C 
HETATM   16  C20 UNL     1      20.118   1.886  49.855  1.00  0.00     0.175 C 
HETATM   17 CL1  UNL     1      21.470   0.747  49.524  1.00  0.00    -0.113 Cl
HETATM   18  C21 UNL     1      19.075   1.151  50.546  1.00  0.00     0.117 C 
HETATM   19  F1  UNL     1      17.868   1.501  49.940  1.00  0.00    -0.209 F 
HETATM   20  C22 UNL     1      18.912   0.315  51.585  1.00  0.00     0.048 C 
HETATM   21  H7  UNL     1      21.084   0.799  53.560  1.00  0.00     0.130 HD
ENDROOT
BRANCH   9  22
HETATM   22  N2  UNL     1      24.253   3.432  49.518  1.00  0.00    -0.326 N 
HETATM   23  C8  UNL     1      24.826   4.678  49.844  1.00  0.00     0.255 C 
HETATM   24  O2  UNL     1      24.887   5.236  50.968  1.00  0.00    -0.271 OA
HETATM   25  H11 UNL     1      24.352   3.241  48.522  1.00  0.00     0.168 HD
BRANCH  23  26
HETATM   26  C9  UNL     1      25.495   5.637  48.968  1.00  0.00     0.314 C 
HETATM   27  C10 UNL     1      26.991   5.425  48.884  1.00  0.00     0.046 C 
HETATM   28  C11 UNL     1      27.514   6.530  47.979  1.00  0.00     0.004 C 
HETATM   29  C12 UNL     1      27.366   7.816  48.747  1.00  0.00     0.030 C 
HETATM   30  C13 UNL     1      26.262   7.797  49.748  1.00  0.00     0.273 C 
HETATM   31  N3  UNL     1      25.159   6.961  49.431  1.00  0.00     0.098 N 
HETATM   32  C14 UNL     1      24.151   7.600  48.621  1.00  0.00     0.310 C 
ENDBRANCH  23  26
ENDBRANCH   9  22
TORSDOF 2
ENDMDL
MODEL 8
REMARK VINA RESULT:      -8.5      3.902      5.262
REMARK  2 active torsions:
REMARK  status: ('A' for Active; 'I' for Inactive)
REMARK    1  A    between atoms: C7_9  and  N2_10 
REMARK       I    between atoms: N2_10  and  C8_11 
REMARK    2  A    between atoms: C8_11  and  C9_13 
ROOT
HETATM    1  C1  UNL     1      21.972   6.271  45.354  1.00  0.00     0.050 C 
HETATM    2  C2  UNL     1      22.420   5.812  46.692  1.00  0.00    -0.043 C 
HETATM    3  C3  UNL     1      21.963   4.523  46.729  1.00  0.00    -0.010 C 
HETATM    4  C4  UNL     1      21.235   3.974  45.560  1.00  0.00     0.062 C 
HETATM    5  N1  UNL     1      22.114   3.707  47.922  1.00  0.00    -0.265 NA
HETATM    6  C5  UNL     1      21.879   3.199  49.306  1.00  0.00     0.252 C 
HETATM    7  O1  UNL     1      22.621   2.048  49.350  1.00  0.00    -0.359 OA
HETATM    8  C6  UNL     1      23.200   1.682  50.518  1.00  0.00     0.228 C 
HETATM    9  C7  UNL     1      23.710   2.784  51.342  1.00  0.00     0.048 C 
HETATM   10  C15 UNL     1      23.540   4.042  51.124  1.00  0.00     0.017 C 
HETATM   11  C16 UNL     1      24.314   5.144  51.768  1.00  0.00     0.022 C 
HETATM   12  C17 UNL     1      23.514   5.840  51.006  1.00  0.00    -0.034 C 
HETATM   13  C18 UNL     1      22.227   6.508  50.531  1.00  0.00     0.185 C 
HETATM   14  N4  UNL     1      21.784   5.370  49.595  1.00  0.00    -0.285 NA
HETATM   15  C19 UNL     1      22.435   4.286  50.156  1.00  0.00     0.084 C 
HETATM   16  C20 UNL     1      24.447   6.068  49.844  1.00  0.00     0.175 C 
HETATM   17 CL1  UNL     1      25.171   4.525  49.270  1.00  0.00    -0.113 Cl
HETATM   18  C21 UNL     1      23.971   6.795  48.683  1.00  0.00     0.117 C 
HETATM   19  F1  UNL     1      24.386   8.118  48.838  1.00  0.00    -0.209 F 
HETATM   20  C22 UNL     1      23.232   6.609  47.576  1.00  0.00     0.048 C 
HETATM   21  H7  UNL     1      21.301   4.399  48.067  1.00  0.00     0.130 HD
ENDROOT
BRANCH   9  22
HETATM   22  N2  UNL     1      24.475   2.534  52.512  1.00  0.00    -0.326 N 
HETATM   23  C8  UNL     1      25.817   2.124  52.380  1.00  0.00     0.255 C 
HETATM   24  O2  UNL     1      26.472   1.932  51.326  1.00  0.00    -0.271 OA
HETATM   25  H11 UNL     1      24.216   2.602  53.495  1.00  0.00     0.168 HD
BRANCH  23  26
HETATM   26  C9  UNL     1      26.789   1.816  53.427  1.00  0.00     0.314 C 
HETATM   27  C10 UNL     1      28.182   2.319  53.112  1.00  0.00     0.046 C 
HETATM   28  C11 UNL     1      29.054   1.871  54.276  1.00  0.00     0.004 C 
HETATM   29  C12 UNL     1      29.170   0.374  54.170  1.00  0.00     0.030 C 
HETATM   30  C13 UNL     1      28.009  -0.274  53.497  1.00  0.00     0.273 C 
HETATM   31  N3  UNL     1      26.763   0.391  53.644  1.00  0.00     0.098 N 
HETATM   32  C14 UNL     1      26.034   0.017  54.831  1.00  0.00     0.310 C 
ENDBRANCH  23  26
ENDBRANCH   9  22
TORSDOF 2
ENDMDL
MODEL 9
REMARK VINA RESULT:      -8.3      5.161      6.742
REMARK  2 active torsions:
REMARK  status: ('A' for Active; 'I' for Inactive)
REMARK    1  A    between atoms: C7_9  and  N2_10 
REMARK       I    between atoms: N2_10  and  C8_11 
REMARK    2  A    between atoms: C8_11  and  C9_13 
ROOT
HETATM    1  C1  UNL     1      21.672  10.821  47.996  1.00  0.00     0.050 C 
HETATM    2  C2  UNL     1      22.224   9.526  48.467  1.00  0.00    -0.043 C 
HETATM    3  C3  UNL     1      21.211   9.044  49.251  1.00  0.00    -0.010 C 
HETATM    4  C4  UNL     1      19.968   9.835  49.403  1.00  0.00     0.062 C 
HETATM    5  N1  UNL     1      21.365   7.805  49.997  1.00  0.00    -0.265 NA
HETATM    6  C5  UNL     1      21.831   6.859  51.052  1.00  0.00     0.252 C 
HETATM    7  O1  UNL     1      21.064   5.743  50.838  1.00  0.00    -0.359 OA
HETATM    8  C6  UNL     1      21.593   4.522  51.088  1.00  0.00     0.228 C 
HETATM    9  C7  UNL     1      23.016   4.373  50.761  1.00  0.00     0.048 C 
HETATM   10  C15 UNL     1      23.818   5.311  50.396  1.00  0.00     0.017 C 
HETATM   11  C16 UNL     1      25.156   5.110  49.766  1.00  0.00     0.022 C 
HETATM   12  C17 UNL     1      25.112   6.414  49.799  1.00  0.00    -0.034 C 
HETATM   13  C18 UNL     1      25.176   7.824  50.378  1.00  0.00     0.185 C 
HETATM   14  N4  UNL     1      23.661   7.980  50.604  1.00  0.00    -0.285 NA
HETATM   15  C19 UNL     1      23.264   6.658  50.707  1.00  0.00     0.084 C 
HETATM   16  C20 UNL     1      24.653   6.662  48.385  1.00  0.00     0.175 C 
HETATM   17 CL1  UNL     1      23.191   5.692  47.989  1.00  0.00    -0.113 Cl
HETATM   18  C21 UNL     1      24.415   8.024  47.945  1.00  0.00     0.117 C 
HETATM   19  F1  UNL     1      25.571   8.440  47.282  1.00  0.00    -0.209 F 
HETATM   20  C22 UNL     1      23.486   8.991  48.025  1.00  0.00     0.048 C 
HETATM   21  H7  UNL     1      21.894   8.593  50.506  1.00  0.00     0.130 HD
ENDROOT
BRANCH   9  22
HETATM   22  N2  UNL     1      23.656   3.106  50.827  1.00  0.00    -0.326 N 
HETATM   23  C8  UNL     1      24.089   2.620  52.077  1.00  0.00     0.255 C 
HETATM   24  O2  UNL     1      23.991   3.171  53.203  1.00  0.00    -0.271 OA
HETATM   25  H11 UNL     1      23.874   2.440  50.089  1.00  0.00     0.168 HD
BRANCH  23  26
HETATM   26  C9  UNL     1      24.759   1.360  52.390  1.00  0.00     0.314 C 
HETATM   27  C10 UNL     1      23.927   0.444  53.261  1.00  0.00     0.046 C 
HETATM   28  C11 UNL     1      24.794  -0.780  53.517  1.00  0.00     0.004 C 
HETATM   29  C12 UNL     1      25.912  -0.329  54.418  1.00  0.00     0.030 C 
HETATM   30  C13 UNL     1      26.255   1.114  54.277  1.00  0.00     0.273 C 
HETATM   31  N3  UNL     1      26.029   1.677  52.993  1.00  0.00     0.098 N 
HETATM   32  C14 UNL     1      27.137   1.525  52.082  1.00  0.00     0.310 C 
ENDBRANCH  23  26
ENDBRANCH   9  22
TORSDOF 2
ENDMDL
