MODEL 1
REMARK VINA RESULT:      -7.4      0.000      0.000
REMARK  5 active torsions:
REMARK  status: ('A' for Active; 'I' for Inactive)
REMARK    1  A    between atoms: C4_4  and  C5_5 
REMARK    2  A    between atoms: C6_6  and  C7_7 
REMARK    3  A    between atoms: C10_12  and  C11_13 
REMARK    4  A    between atoms: C11_13  and  O1_14 
REMARK    5  A    between atoms: O1_14  and  C12_15 
ROOT
HETATM    1  C1  UNL     1      22.649  -1.462  54.852  1.00  0.00     0.017 C 
HETATM    2  C2  UNL     1      21.794  -0.595  54.713  1.00  0.00    -0.089 C 
HETATM    3  C3  UNL     1      20.786   0.413  54.528  1.00  0.00     0.063 C 
HETATM    4  C4  UNL     1      20.458   0.856  53.312  1.00  0.00     0.009 C 
ENDROOT
BRANCH   4   5
HETATM    5  C5  UNL     1      21.116   0.333  52.123  1.00  0.00     0.003 C 
HETATM    6  C6  UNL     1      22.200   0.819  51.547  1.00  0.00     0.027 C 
BRANCH   6   7
HETATM    7  C7  UNL     1      22.952   1.984  52.000  1.00  0.00     0.038 C 
HETATM    8  N1  UNL     1      22.572   3.215  52.041  1.00  0.00    -0.264 NA
HETATM    9  C8  UNL     1      23.470   4.243  52.528  1.00  0.00     0.417 C 
HETATM   10  N2  UNL     1      24.681   4.139  51.719  1.00  0.00     0.103 N 
HETATM   11  C9  UNL     1      25.202   2.809  51.702  1.00  0.00     0.284 C 
HETATM   12  H8  UNL     1      25.358   4.880  51.926  1.00  0.00     0.318 HD
HETATM   13  C10 UNL     1      24.333   1.882  52.501  1.00  0.00     0.089 C 
BRANCH  13  14
HETATM   14  C11 UNL     1      24.861   0.476  52.540  1.00  0.00     0.184 C 
BRANCH  14  15
HETATM   15  O1  UNL     1      26.149   0.570  53.117  1.00  0.00    -0.355 OA
BRANCH  15  16
HETATM   16  C12 UNL     1      26.481  -0.545  53.863  1.00  0.00     0.309 C 
HETATM   17  O2  UNL     1      27.132  -0.209  55.051  1.00  0.00    -0.354 OA
HETATM   18  C13 UNL     1      28.224   0.601  54.801  1.00  0.00     0.191 C 
HETATM   19  C14 UNL     1      29.346  -0.211  54.195  1.00  0.00     0.146 C 
HETATM   20  N3  UNL     1      28.759  -1.066  53.180  1.00  0.00    -0.388 N 
HETATM   21  C15 UNL     1      27.380  -1.381  53.042  1.00  0.00     0.051 C 
HETATM   22  H19 UNL     1      29.464  -1.471  52.502  1.00  0.00     0.159 HD
HETATM   23  C16 UNL     1      26.950  -2.343  52.241  1.00  0.00     0.043 C 
ENDBRANCH  15  16
ENDBRANCH  14  15
ENDBRANCH  13  14
ENDBRANCH   6   7
ENDBRANCH   4   5
TORSDOF 5
ENDMDL
MODEL 2
REMARK VINA RESULT:      -7.1      2.273      6.147
REMARK  5 active torsions:
REMARK  status: ('A' for Active; 'I' for Inactive)
REMARK    1  A    between atoms: C4_4  and  C5_5 
REMARK    2  A    between atoms: C6_6  and  C7_7 
REMARK    3  A    between atoms: C10_12  and  C11_13 
REMARK    4  A    between atoms: C11_13  and  O1_14 
REMARK    5  A    between atoms: O1_14  and  C12_15 
ROOT
HETATM    1  C1  UNL     1      29.870  -0.643  53.711  1.00  0.00     0.017 C 
HETATM    2  C2  UNL     1      29.181   0.362  53.581  1.00  0.00    -0.089 C 
HETATM    3  C3  UNL     1      28.353   1.526  53.425  1.00  0.00     0.063 C 
HETATM    4  C4  UNL     1      27.230   1.492  52.705  1.00  0.00     0.009 C 
ENDROOT
BRANCH   4   5
HETATM    5  C5  UNL     1      26.801   0.267  52.046  1.00  0.00     0.003 C 
HETATM    6  C6  UNL     1      25.980  -0.643  52.537  1.00  0.00     0.027 C 
BRANCH   6   7
HETATM    7  C7  UNL     1      25.342  -0.592  53.847  1.00  0.00     0.038 C 
HETATM    8  N1  UNL     1      25.847  -0.893  54.995  1.00  0.00    -0.264 NA
HETATM    9  C8  UNL     1      25.048  -0.777  56.199  1.00  0.00     0.417 C 
HETATM   10  N2  UNL     1      23.853  -1.584  55.972  1.00  0.00     0.103 N 
HETATM   11  C9  UNL     1      23.198  -1.240  54.750  1.00  0.00     0.284 C 
HETATM   12  H8  UNL     1      23.252  -1.639  56.800  1.00  0.00     0.318 HD
HETATM   13  C10 UNL     1      23.946  -0.159  54.025  1.00  0.00     0.089 C 
BRANCH  13  14
HETATM   14  C11 UNL     1      23.275   0.261  52.749  1.00  0.00     0.184 C 
BRANCH  14  15
HETATM   15  O1  UNL     1      23.185   1.671  52.814  1.00  0.00    -0.355 OA
BRANCH  15  16
HETATM   16  C12 UNL     1      23.715   2.290  51.698  1.00  0.00     0.309 C 
HETATM   17  O2  UNL     1      24.398   3.464  52.021  1.00  0.00    -0.354 OA
HETATM   18  C13 UNL     1      23.594   4.312  52.760  1.00  0.00     0.191 C 
HETATM   19  C14 UNL     1      22.547   4.942  51.872  1.00  0.00     0.146 C 
HETATM   20  N3  UNL     1      22.006   3.891  51.031  1.00  0.00    -0.388 N 
HETATM   21  C15 UNL     1      22.595   2.619  50.793  1.00  0.00     0.051 C 
HETATM   22  H19 UNL     1      21.086   4.141  50.571  1.00  0.00     0.159 HD
HETATM   23  C16 UNL     1      22.166   1.807  49.840  1.00  0.00     0.043 C 
ENDBRANCH  15  16
ENDBRANCH  14  15
ENDBRANCH  13  14
ENDBRANCH   6   7
ENDBRANCH   4   5
TORSDOF 5
ENDMDL
MODEL 3
REMARK VINA RESULT:      -6.9      2.553      5.917
REMARK  5 active torsions:
REMARK  status: ('A' for Active; 'I' for Inactive)
REMARK    1  A    between atoms: C4_4  and  C5_5 
REMARK    2  A    between atoms: C6_6  and  C7_7 
REMARK    3  A    between atoms: C10_12  and  C11_13 
REMARK    4  A    between atoms: C11_13  and  O1_14 
REMARK    5  A    between atoms: O1_14  and  C12_15 
ROOT
HETATM    1  C1  UNL     1      29.537  -0.491  54.036  1.00  0.00     0.017 C 
HETATM    2  C2  UNL     1      29.145   0.653  53.841  1.00  0.00    -0.089 C 
HETATM    3  C3  UNL     1      28.663   1.987  53.609  1.00  0.00     0.063 C 
HETATM    4  C4  UNL     1      27.622   2.223  52.808  1.00  0.00     0.009 C 
ENDROOT
BRANCH   4   5
HETATM    5  C5  UNL     1      26.934   1.131  52.135  1.00  0.00     0.003 C 
HETATM    6  C6  UNL     1      25.757   1.193  51.539  1.00  0.00     0.027 C 
BRANCH   6   7
HETATM    7  C7  UNL     1      24.917   2.380  51.441  1.00  0.00     0.038 C 
HETATM    8  N1  UNL     1      25.052   3.394  50.655  1.00  0.00    -0.264 NA
HETATM    9  C8  UNL     1      24.106   4.491  50.706  1.00  0.00     0.417 C 
HETATM   10  N2  UNL     1      24.096   4.953  52.091  1.00  0.00     0.103 N 
HETATM   11  C9  UNL     1      23.865   3.885  53.011  1.00  0.00     0.284 C 
HETATM   12  H8  UNL     1      23.516   5.788  52.223  1.00  0.00     0.318 HD
HETATM   13  C10 UNL     1      23.729   2.575  52.290  1.00  0.00     0.089 C 
BRANCH  13  14
HETATM   14  C11 UNL     1      23.452   1.425  53.216  1.00  0.00     0.184 C 
BRANCH  14  15
HETATM   15  O1  UNL     1      22.070   1.155  53.081  1.00  0.00    -0.355 OA
BRANCH  15  16
HETATM   16  C12 UNL     1      21.820  -0.128  52.632  1.00  0.00     0.309 C 
HETATM   17  O2  UNL     1      21.029  -0.140  51.482  1.00  0.00    -0.354 OA
HETATM   18  C13 UNL     1      19.868   0.585  51.677  1.00  0.00     0.191 C 
HETATM   19  C14 UNL     1      18.918  -0.185  52.565  1.00  0.00     0.146 C 
HETATM   20  N3  UNL     1      19.696  -0.722  53.666  1.00  0.00    -0.388 N 
HETATM   21  C15 UNL     1      21.112  -0.849  53.710  1.00  0.00     0.051 C 
HETATM   22  H19 UNL     1      19.112  -1.037  54.491  1.00  0.00     0.159 HD
HETATM   23  C16 UNL     1      21.731  -1.556  54.643  1.00  0.00     0.043 C 
ENDBRANCH  15  16
ENDBRANCH  14  15
ENDBRANCH  13  14
ENDBRANCH   6   7
ENDBRANCH   4   5
TORSDOF 5
ENDMDL
MODEL 4
REMARK VINA RESULT:      -6.8      1.584      2.181
REMARK  5 active torsions:
REMARK  status: ('A' for Active; 'I' for Inactive)
REMARK    1  A    between atoms: C4_4  and  C5_5 
REMARK    2  A    between atoms: C6_6  and  C7_7 
REMARK    3  A    between atoms: C10_12  and  C11_13 
REMARK    4  A    between atoms: C11_13  and  O1_14 
REMARK    5  A    between atoms: O1_14  and  C12_15 
ROOT
HETATM    1  C1  UNL     1      17.973  -0.151  51.213  1.00  0.00     0.017 C 
HETATM    2  C2  UNL     1      18.853  -0.073  52.062  1.00  0.00    -0.089 C 
HETATM    3  C3  UNL     1      19.898   0.033  53.043  1.00  0.00     0.063 C 
HETATM    4  C4  UNL     1      21.173   0.206  52.688  1.00  0.00     0.009 C 
ENDROOT
BRANCH   4   5
HETATM    5  C5  UNL     1      21.554   0.293  51.285  1.00  0.00     0.003 C 
HETATM    6  C6  UNL     1      22.267   1.251  50.723  1.00  0.00     0.027 C 
BRANCH   6   7
HETATM    7  C7  UNL     1      22.814   2.416  51.409  1.00  0.00     0.038 C 
HETATM    8  N1  UNL     1      22.246   3.552  51.632  1.00  0.00    -0.264 NA
HETATM    9  C8  UNL     1      22.958   4.600  52.337  1.00  0.00     0.417 C 
HETATM   10  N2  UNL     1      24.197   4.817  51.596  1.00  0.00     0.103 N 
HETATM   11  C9  UNL     1      24.918   3.602  51.387  1.00  0.00     0.284 C 
HETATM   12  H8  UNL     1      24.744   5.602  51.965  1.00  0.00     0.318 HD
HETATM   13  C10 UNL     1      24.177   2.431  51.966  1.00  0.00     0.089 C 
BRANCH  13  14
HETATM   14  C11 UNL     1      24.914   1.133  51.801  1.00  0.00     0.184 C 
BRANCH  14  15
HETATM   15  O1  UNL     1      26.198   1.353  52.353  1.00  0.00    -0.355 OA
BRANCH  15  16
HETATM   16  C12 UNL     1      26.169   1.492  53.727  1.00  0.00     0.309 C 
HETATM   17  O2  UNL     1      27.206   2.300  54.197  1.00  0.00    -0.354 OA
HETATM   18  C13 UNL     1      28.429   1.844  53.740  1.00  0.00     0.191 C 
HETATM   19  C14 UNL     1      28.823   0.585  54.477  1.00  0.00     0.146 C 
HETATM   20  N3  UNL     1      27.648  -0.264  54.539  1.00  0.00    -0.388 N 
HETATM   21  C15 UNL     1      26.304   0.145  54.317  1.00  0.00     0.051 C 
HETATM   22  H19 UNL     1      27.860  -1.273  54.776  1.00  0.00     0.159 HD
HETATM   23  C16 UNL     1      25.271  -0.627  54.615  1.00  0.00     0.043 C 
ENDBRANCH  15  16
ENDBRANCH  14  15
ENDBRANCH  13  14
ENDBRANCH   6   7
ENDBRANCH   4   5
TORSDOF 5
ENDMDL
MODEL 5
REMARK VINA RESULT:      -6.8      1.306      2.085
REMARK  5 active torsions:
REMARK  status: ('A' for Active; 'I' for Inactive)
REMARK    1  A    between atoms: C4_4  and  C5_5 
REMARK    2  A    between atoms: C6_6  and  C7_7 
REMARK    3  A    between atoms: C10_12  and  C11_13 
REMARK    4  A    between atoms: C11_13  and  O1_14 
REMARK    5  A    between atoms: O1_14  and  C12_15 
ROOT
HETATM    1  C1  UNL     1      21.353  -0.240  54.591  1.00  0.00     0.017 C 
HETATM    2  C2  UNL     1      21.744  -0.125  53.436  1.00  0.00    -0.089 C 
HETATM    3  C3  UNL     1      22.216   0.030  52.087  1.00  0.00     0.063 C 
HETATM    4  C4  UNL     1      22.507   1.231  51.584  1.00  0.00     0.009 C 
ENDROOT
BRANCH   4   5
HETATM    5  C5  UNL     1      22.355   2.436  52.388  1.00  0.00     0.003 C 
HETATM    6  C6  UNL     1      23.163   3.481  52.398  1.00  0.00     0.027 C 
BRANCH   6   7
HETATM    7  C7  UNL     1      24.372   3.626  51.596  1.00  0.00     0.038 C 
HETATM    8  N1  UNL     1      24.504   4.186  50.442  1.00  0.00    -0.264 NA
HETATM    9  C8  UNL     1      25.800   4.233  49.795  1.00  0.00     0.417 C 
HETATM   10  N2  UNL     1      26.263   2.850  49.716  1.00  0.00     0.103 N 
HETATM   11  C9  UNL     1      26.220   2.196  50.985  1.00  0.00     0.284 C 
HETATM   12  H8  UNL     1      27.143   2.759  49.197  1.00  0.00     0.318 HD
HETATM   13  C10 UNL     1      25.678   3.113  52.043  1.00  0.00     0.089 C 
BRANCH  13  14
HETATM   14  C11 UNL     1      25.645   2.479  53.404  1.00  0.00     0.184 C 
BRANCH  14  15
HETATM   15  O1  UNL     1      26.865   1.772  53.522  1.00  0.00    -0.355 OA
BRANCH  15  16
HETATM   16  C12 UNL     1      26.768   0.677  54.360  1.00  0.00     0.309 C 
HETATM   17  O2  UNL     1      27.837   0.601  55.253  1.00  0.00    -0.354 OA
HETATM   18  C13 UNL     1      29.044   0.641  54.579  1.00  0.00     0.191 C 
HETATM   19  C14 UNL     1      29.291  -0.674  53.877  1.00  0.00     0.146 C 
HETATM   20  N3  UNL     1      28.050  -1.058  53.232  1.00  0.00    -0.388 N 
HETATM   21  C15 UNL     1      26.759  -0.534  53.515  1.00  0.00     0.051 C 
HETATM   22  H19 UNL     1      28.166  -1.802  52.488  1.00  0.00     0.159 HD
HETATM   23  C16 UNL     1      25.651  -1.093  53.053  1.00  0.00     0.043 C 
ENDBRANCH  15  16
ENDBRANCH  14  15
ENDBRANCH  13  14
ENDBRANCH   6   7
ENDBRANCH   4   5
TORSDOF 5
ENDMDL
MODEL 6
REMARK VINA RESULT:      -6.7      2.384      4.085
REMARK  5 active torsions:
REMARK  status: ('A' for Active; 'I' for Inactive)
REMARK    1  A    between atoms: C4_4  and  C5_5 
REMARK    2  A    between atoms: C6_6  and  C7_7 
REMARK    3  A    between atoms: C10_12  and  C11_13 
REMARK    4  A    between atoms: C11_13  and  O1_14 
REMARK    5  A    between atoms: O1_14  and  C12_15 
ROOT
HETATM    1  C1  UNL     1      23.424   3.299  48.949  1.00  0.00     0.017 C 
HETATM    2  C2  UNL     1      22.636   2.372  49.092  1.00  0.00    -0.089 C 
HETATM    3  C3  UNL     1      21.699   1.297  49.276  1.00  0.00     0.063 C 
HETATM    4  C4  UNL     1      21.012   1.158  50.413  1.00  0.00     0.009 C 
ENDROOT
BRANCH   4   5
HETATM    5  C5  UNL     1      21.191   2.093  51.514  1.00  0.00     0.003 C 
HETATM    6  C6  UNL     1      21.562   1.794  52.746  1.00  0.00     0.027 C 
BRANCH   6   7
HETATM    7  C7  UNL     1      21.868   0.456  53.239  1.00  0.00     0.038 C 
HETATM    8  N1  UNL     1      21.104  -0.346  53.899  1.00  0.00    -0.264 NA
HETATM    9  C8  UNL     1      21.590  -1.649  54.307  1.00  0.00     0.417 C 
HETATM   10  N2  UNL     1      22.809  -1.404  55.073  1.00  0.00     0.103 N 
HETATM   11  C9  UNL     1      23.736  -0.586  54.360  1.00  0.00     0.284 C 
HETATM   12  H8  UNL     1      23.194  -2.261  55.484  1.00  0.00     0.318 HD
HETATM   13  C10 UNL     1      23.178  -0.180  53.026  1.00  0.00     0.089 C 
BRANCH  13  14
HETATM   14  C11 UNL     1      24.134   0.656  52.223  1.00  0.00     0.184 C 
BRANCH  14  15
HETATM   15  O1  UNL     1      25.338   0.672  52.965  1.00  0.00    -0.355 OA
BRANCH  15  16
HETATM   16  C12 UNL     1      26.460   0.619  52.159  1.00  0.00     0.309 C 
HETATM   17  O2  UNL     1      27.481  -0.144  52.728  1.00  0.00    -0.354 OA
HETATM   18  C13 UNL     1      27.772   0.299  54.005  1.00  0.00     0.191 C 
HETATM   19  C14 UNL     1      28.526   1.606  53.943  1.00  0.00     0.146 C 
HETATM   20  N3  UNL     1      27.861   2.441  52.961  1.00  0.00    -0.388 N 
HETATM   21  C15 UNL     1      26.941   2.002  51.970  1.00  0.00     0.051 C 
HETATM   22  H19 UNL     1      28.117   3.467  53.026  1.00  0.00     0.159 HD
HETATM   23  C16 UNL     1      26.556   2.777  50.968  1.00  0.00     0.043 C 
ENDBRANCH  15  16
ENDBRANCH  14  15
ENDBRANCH  13  14
ENDBRANCH   6   7
ENDBRANCH   4   5
TORSDOF 5
ENDMDL
MODEL 7
REMARK VINA RESULT:      -6.6      2.419      6.271
REMARK  5 active torsions:
REMARK  status: ('A' for Active; 'I' for Inactive)
REMARK    1  A    between atoms: C4_4  and  C5_5 
REMARK    2  A    between atoms: C6_6  and  C7_7 
REMARK    3  A    between atoms: C10_12  and  C11_13 
REMARK    4  A    between atoms: C11_13  and  O1_14 
REMARK    5  A    between atoms: O1_14  and  C12_15 
ROOT
HETATM    1  C1  UNL     1      25.068   5.385  48.981  1.00  0.00     0.017 C 
HETATM    2  C2  UNL     1      25.710   4.398  49.318  1.00  0.00    -0.089 C 
HETATM    3  C3  UNL     1      26.446   3.233  49.727  1.00  0.00     0.063 C 
HETATM    4  C4  UNL     1      26.220   2.643  50.903  1.00  0.00     0.009 C 
ENDROOT
BRANCH   4   5
HETATM    5  C5  UNL     1      25.216   3.163  51.820  1.00  0.00     0.003 C 
HETATM    6  C6  UNL     1      24.900   2.666  53.003  1.00  0.00     0.027 C 
BRANCH   6   7
HETATM    7  C7  UNL     1      25.505   1.491  53.619  1.00  0.00     0.038 C 
HETATM    8  N1  UNL     1      26.491   1.442  54.449  1.00  0.00    -0.264 NA
HETATM    9  C8  UNL     1      26.957   0.167  54.957  1.00  0.00     0.417 C 
HETATM   10  N2  UNL     1      27.273  -0.645  53.785  1.00  0.00     0.103 N 
HETATM   11  C9  UNL     1      26.186  -0.699  52.860  1.00  0.00     0.284 C 
HETATM   12  H8  UNL     1      27.693  -1.546  54.033  1.00  0.00     0.318 HD
HETATM   13  C10 UNL     1      25.028   0.126  53.344  1.00  0.00     0.089 C 
BRANCH  13  14
HETATM   14  C11 UNL     1      23.846   0.073  52.419  1.00  0.00     0.184 C 
BRANCH  14  15
HETATM   15  O1  UNL     1      22.843  -0.631  53.126  1.00  0.00    -0.355 OA
BRANCH  15  16
HETATM   16  C12 UNL     1      22.054   0.199  53.900  1.00  0.00     0.309 C 
HETATM   17  O2  UNL     1      21.342  -0.505  54.871  1.00  0.00    -0.354 OA
HETATM   18  C13 UNL     1      20.618  -1.535  54.299  1.00  0.00     0.191 C 
HETATM   19  C14 UNL     1      19.424  -0.981  53.557  1.00  0.00     0.146 C 
HETATM   20  N3  UNL     1      19.884   0.166  52.796  1.00  0.00    -0.388 N 
HETATM   21  C15 UNL     1      21.099   0.876  52.999  1.00  0.00     0.051 C 
HETATM   22  H19 UNL     1      19.219   0.466  52.028  1.00  0.00     0.159 HD
HETATM   23  C16 UNL     1      21.342   2.043  52.424  1.00  0.00     0.043 C 
ENDBRANCH  15  16
ENDBRANCH  14  15
ENDBRANCH  13  14
ENDBRANCH   6   7
ENDBRANCH   4   5
TORSDOF 5
ENDMDL
MODEL 8
REMARK VINA RESULT:      -6.5      9.452     12.274
REMARK  5 active torsions:
REMARK  status: ('A' for Active; 'I' for Inactive)
REMARK    1  A    between atoms: C4_4  and  C5_5 
REMARK    2  A    between atoms: C6_6  and  C7_7 
REMARK    3  A    between atoms: C10_12  and  C11_13 
REMARK    4  A    between atoms: C11_13  and  O1_14 
REMARK    5  A    between atoms: O1_14  and  C12_15 
ROOT
HETATM    1  C1  UNL     1      33.381   2.633  47.705  1.00  0.00     0.017 C 
HETATM    2  C2  UNL     1      34.140   3.066  46.847  1.00  0.00    -0.089 C 
HETATM    3  C3  UNL     1      35.015   3.595  45.836  1.00  0.00     0.063 C 
HETATM    4  C4  UNL     1      34.567   4.415  44.884  1.00  0.00     0.009 C 
ENDROOT
BRANCH   4   5
HETATM    5  C5  UNL     1      33.165   4.805  44.833  1.00  0.00     0.003 C 
HETATM    6  C6  UNL     1      32.611   5.829  45.457  1.00  0.00     0.027 C 
BRANCH   6   7
HETATM    7  C7  UNL     1      33.308   6.772  46.324  1.00  0.00     0.038 C 
HETATM    8  N1  UNL     1      34.193   7.652  46.000  1.00  0.00    -0.264 NA
HETATM    9  C8  UNL     1      34.779   8.507  47.013  1.00  0.00     0.417 C 
HETATM   10  N2  UNL     1      35.334   7.614  48.026  1.00  0.00     0.103 N 
HETATM   11  C9  UNL     1      34.374   6.663  48.488  1.00  0.00     0.284 C 
HETATM   12  H8  UNL     1      35.850   8.118  48.755  1.00  0.00     0.318 HD
HETATM   13  C10 UNL     1      33.064   6.833  47.775  1.00  0.00     0.089 C 
BRANCH  13  14
HETATM   14  C11 UNL     1      32.010   5.875  48.252  1.00  0.00     0.184 C 
BRANCH  14  15
HETATM   15  O1  UNL     1      30.979   6.683  48.788  1.00  0.00    -0.355 OA
BRANCH  15  16
HETATM   16  C12 UNL     1      29.975   6.940  47.873  1.00  0.00     0.309 C 
HETATM   17  O2  UNL     1      29.909   8.291  47.529  1.00  0.00    -0.354 OA
HETATM   18  C13 UNL     1      29.806   9.081  48.659  1.00  0.00     0.191 C 
HETATM   19  C14 UNL     1      28.418   8.969  49.247  1.00  0.00     0.146 C 
HETATM   20  N3  UNL     1      28.061   7.563  49.243  1.00  0.00    -0.388 N 
HETATM   21  C15 UNL     1      28.694   6.538  48.489  1.00  0.00     0.051 C 
HETATM   22  H19 UNL     1      27.245   7.326  49.874  1.00  0.00     0.159 HD
HETATM   23  C16 UNL     1      28.171   5.329  48.358  1.00  0.00     0.043 C 
ENDBRANCH  15  16
ENDBRANCH  14  15
ENDBRANCH  13  14
ENDBRANCH   6   7
ENDBRANCH   4   5
TORSDOF 5
ENDMDL
MODEL 9
REMARK VINA RESULT:      -6.4      2.513      4.968
REMARK  5 active torsions:
REMARK  status: ('A' for Active; 'I' for Inactive)
REMARK    1  A    between atoms: C4_4  and  C5_5 
REMARK    2  A    between atoms: C6_6  and  C7_7 
REMARK    3  A    between atoms: C10_12  and  C11_13 
REMARK    4  A    between atoms: C11_13  and  O1_14 
REMARK    5  A    between atoms: O1_14  and  C12_15 
ROOT
HETATM    1  C1  UNL     1      26.545   7.635  47.706  1.00  0.00     0.017 C 
HETATM    2  C2  UNL     1      25.867   7.297  48.669  1.00  0.00    -0.089 C 
HETATM    3  C3  UNL     1      25.087   6.881  49.802  1.00  0.00     0.063 C 
HETATM    4  C4  UNL     1      25.069   5.610  50.209  1.00  0.00     0.009 C 
ENDROOT
BRANCH   4   5
HETATM    5  C5  UNL     1      25.842   4.591  49.513  1.00  0.00     0.003 C 
HETATM    6  C6  UNL     1      25.765   3.286  49.695  1.00  0.00     0.027 C 
BRANCH   6   7
HETATM    7  C7  UNL     1      24.881   2.611  50.638  1.00  0.00     0.038 C 
HETATM    8  N1  UNL     1      23.653   2.254  50.468  1.00  0.00    -0.264 NA
HETATM    9  C8  UNL     1      22.931   1.588  51.533  1.00  0.00     0.417 C 
HETATM   10  N2  UNL     1      23.020   2.469  52.695  1.00  0.00     0.103 N 
HETATM   11  C9  UNL     1      24.369   2.836  52.988  1.00  0.00     0.284 C 
HETATM   12  H8  UNL     1      22.468   2.130  53.489  1.00  0.00     0.318 HD
HETATM   13  C10 UNL     1      25.318   2.233  51.992  1.00  0.00     0.089 C 
BRANCH  13  14
HETATM   14  C11 UNL     1      26.754   2.564  52.280  1.00  0.00     0.184 C 
BRANCH  14  15
HETATM   15  O1  UNL     1      27.430   1.321  52.314  1.00  0.00    -0.355 OA
BRANCH  15  16
HETATM   16  C12 UNL     1      27.165   0.602  53.464  1.00  0.00     0.309 C 
HETATM   17  O2  UNL     1      28.041   0.926  54.501  1.00  0.00    -0.354 OA
HETATM   18  C13 UNL     1      29.356   0.798  54.092  1.00  0.00     0.191 C 
HETATM   19  C14 UNL     1      29.726  -0.662  53.983  1.00  0.00     0.146 C 
HETATM   20  N3  UNL     1      28.631  -1.336  53.311  1.00  0.00    -0.388 N 
HETATM   21  C15 UNL     1      27.313  -0.831  53.140  1.00  0.00     0.051 C 
HETATM   22  H19 UNL     1      28.884  -2.291  52.929  1.00  0.00     0.159 HD
HETATM   23  C16 UNL     1      26.312  -1.591  52.724  1.00  0.00     0.043 C 
ENDBRANCH  15  16
ENDBRANCH  14  15
ENDBRANCH  13  14
ENDBRANCH   6   7
ENDBRANCH   4   5
TORSDOF 5
ENDMDL
